data_image0
_chemical_formula_structural       C4NCHSHCHS2C4HCHC2HFeCH4CH2C3H3CHCH2C3HCFeHCSH2SHCH2FeCHC3HSH2C5H2FeCH2SHSHCHCNHSH2CHCH2C3H2CH7CH3CHFeSCFeS2H2CH2FeS2C2H2C2NCHCH3C3NH2SHCHCSHCSH2C3NH2C5HCHSHC3H4CH3CH2C2SC2H2CH4C4H2CH4C2HCH2CH2SCSFeC3H5CFeS2FeSHFeS2H2SHC3SHC2H2C3HSHCHC7H4C3FeHCH5C2H2C2H3CHCSCNC3HCFeSCH2NH2SC2HFeHFeC2SH4CH3C2HCH3CNC5HCH7CFeH2SCHC2H3CHC2HCHSFeS2HCFeS2FeSNFeCFeS3FeS2FeS2FeSFeS3FeS2FeS2FeSFeS3CH2FeSHFeS2FeSFeCS2C7H4C2H2C2H4C6H4C6H4C3HCHC3HC6H6C2H3CHC6H5CH7SCH2CSCH5CNCH5CH3CH2CH2CN2C2HCH7N2C4H3C3HC3HC2H4SHNC4HCHCH10CFeHCH3CHC2H3C2H2C2HCHCH4CH2CHCH4C2HCHCHCH4CH3C2HCHCH4SHNCHCHC2HCH3C3HCHCH4NH2CFeH3CHCNC3H2CH3NC2HC2HC2FeCHCHC2HCH4C2H2FeS2HCHFeS2FeS2FeCFeS3FeSHFeSHFeSFeS3FeS2FeS2FeSFeS3CSFeS2FeS2FeSFeS3CHCH2C6H4C3HC2H3C7H4C3H3C6H6C2H2CHC6H5CHC6H3NHCHCH2SH5CH2C2HCSHCH2CH3C2H5C2H2CH4C2H2CHC3HC3HC3H3C3NH2NHC3HCHC2H5CH3C2H2CHCNH2CH2NH2CHCSC3HCHN2H3C2H2C3H2CH6C4H3CH3CNCH2CH2CHCHCHCHC2SHCH2C2FeHCH4CH2NCH2C2SCHCH6C2H2CH4NH2CHCH2SH2SFeSHSCS2FeS2FeS2FeHFeS3C6H5C8H4CH4CHS2H2FeNH5NC9H13CH3CH3C3HC2HC6SH3CHCHCH2FeHCH2SCHN2CH3FeCH3NH4CHCH3C4HC2HFeCNFeSHFeS2FeSFeS3CHFeS2FeH2SHFeS2HCH2C3SHCHCH4C6H4C6H4C4H3C3HCHCH4CH2C3H2C2H3NH2CH2CS2HCSC6NSCH2CFeH2C2HCHCSH3C4HC4H7CHCH6CHC4FeC2H2CH2CHCH2FeS2HCH2CHFeS2FeSHFeSFeNS2FeS2FeHSFeS2HS2H4C3HC3H2C7H5CH2SC10H4CNH2CH3SHNHC2HFeCHC2HCH2NC9H15CHC2HC2HCHFeCH2S2H3CFeC2NH6C2H2CHCHSHCHC2HCSC2FeHCSFeS2H2CFeSFeS3FeS2FeS2FeHFeS3C6H4C4HFeH2C3HNH2C8H4C3H5NSC5HCH6C2HSH4CHCSCHCH4C2H7CNH3CHC2H3SH3CHCH2CHC3H2CH2C2H3C2H3NCHC2HCHC2H3C2FeS2FeS2FeSFeNS2FeSHFeS2FeHFeCS2FeS2FeS2FeSFeS3FeS2FeS2FeSFeS3FeS2CH2CHCHC7H5C4NCH3C4H3CH5C2H5C6H4C2HCH3CHC6H4C6H6SH3FeCH5CH3NC9H14NCH2CHC5HC2H2CH7CH2C2H2CHC2H2CFeNC10HC2HC2H2SC2HC2H2SCNH2NH2CHCH2C2HCHCHCH2NC2H3CH4C2HCH3C2H6CH3CHSCSC2H4SCSC2HCNCH2C3H2CHC2H5C3H5CHCHFeSCFeS2FeCFeS3FeS2FeS2FeSFeS3FeS2FeS2FeSFeS3FeHSFeS2FeSHFeSFeS3C6H4C3HCH2C6H6C2H3C6H4C6H4C2H2CHC8H5CH2C2H2C2H4NHCHC3H3C2H2CSH4CHCHC2HC3HCNC9H11CH2CHC4H2C2HCNHCH4CHC2HNCH7C4HCHC2NH4C2NHCH3C4H3C2H3CHCH6CH8CH2C3H4SHCH2C2HC2H2CH5CNH4C2HCH2CHC2H3C2H5SCH5FeS2HSCHC2SCFeS2H2C3HCHC3H3CH3CHC2SCHC3HCHCHC6HNH2CH2SH3CH4NCHSH4C2HC2H6FeCHCHC3HC2H2CH2CFeHC2HCH2S2CHCHNHSHCSCHCH2CHC4HFeH3C2H2CHNC3HCS2FeHSFeS2N2HSCH2FeHSC3H3SCH4FeC3H2CH5CH2C3SC2HC5SHC3HSC3H2CH2CSNC5H9CH2CH5C7HCHCSFeCHC2H3CH2CHSH3CH3FeCHCHFeH2CH2C3SH2CH3C2FeS2H3CHCH2C6HSHC3HCHCH2CHCNH4CSH2CH3SHC8HCS2H3NH4C2H4C2H4CSNHC2SHC2HCH3C2FeCHSHC2FeHC2HFeCH
_chemical_formula_sum              "C1080 N72 H1296 S288 Fe144"
_cell_length_a       65.3246
_cell_length_b       65.9168
_cell_length_c       51.5273
_cell_angle_alpha    90.1196
_cell_angle_beta     89.6906
_cell_angle_gamma    116.56

_space_group_name_H-M_alt    "P 1"
_space_group_IT_number       1

loop_
  _space_group_symop_operation_xyz
  'x, y, z'

loop_
  _atom_site_type_symbol
  _atom_site_label
  _atom_site_symmetry_multiplicity
  _atom_site_fract_x
  _atom_site_fract_y
  _atom_site_fract_z
  _atom_site_occupancy
  C   C1        1.0  0.46879  0.25627  0.50041  1.0000
  C   C2        1.0  0.46693  0.21831  0.50377  1.0000
  C   C3        1.0  0.49090  0.07313  0.36231  1.0000
  C   C4        1.0  0.40899  0.13479  0.45006  1.0000
  N   N1        1.0  0.39892  0.14928  0.49186  1.0000
  C   C5        1.0  0.53287  0.13972  0.38633  1.0000
  H   H1        1.0  0.42568  0.17795  0.47236  1.0000
  S   S1        1.0  0.47219  0.19648  0.48922  1.0000
  H   H2        1.0  0.43207  0.07265  0.49713  1.0000
  C   C6        1.0  0.48215  0.03841  0.38590  1.0000
  H   H3        1.0  0.36340  0.13857  0.48334  1.0000
  S   S2        1.0  0.45297  0.12976  0.48618  1.0000
  S   S3        1.0  0.49706  0.10727  0.46225  1.0000
  C   C7        1.0  0.50259  0.06701  0.34364  1.0000
  C   C8        1.0  0.41206  0.03630  0.49437  1.0000
  C   C9        1.0  0.40993  0.11719  0.43564  1.0000
  C   C10       1.0  0.50404  0.04658  0.34590  1.0000
  H   H4        1.0  0.38459  0.10449  0.50513  1.0000
  C   C11       1.0  0.51786  0.10808  0.41638  1.0000
  H   H5        1.0  0.52655  0.16811  0.39684  1.0000
  C   C12       1.0  0.49401  0.03167  0.36718  1.0000
  C   C13       1.0  0.39239  0.09121  0.47104  1.0000
  H   H6        1.0  0.41753  0.12051  0.41640  1.0000
  Fe  Fe1       1.0  0.48544  0.12637  0.49008  1.0000
  C   C14       1.0  0.47291  0.23860  0.48997  1.0000
  H   H7        1.0  0.40683  0.18490  0.49104  1.0000
  H   H8        1.0  0.51542  0.09127  0.42170  1.0000
  H   H9        1.0  0.48087  0.24074  0.47104  1.0000
  H   H10       1.0  0.51321  0.04264  0.33076  1.0000
  C   C15       1.0  0.39967  0.13102  0.47564  1.0000
  H   H11       1.0  0.40289  0.08200  0.43515  1.0000
  H   H12       1.0  0.47362  0.27180  0.48957  1.0000
  C   C16       1.0  0.40741  0.17148  0.47829  1.0000
  C   C17       1.0  0.50966  0.11983  0.43266  1.0000
  C   C18       1.0  0.51263  0.14146  0.42558  1.0000
  H   H13       1.0  0.41614  0.15126  0.44092  1.0000
  H   H14       1.0  0.51078  0.07822  0.32736  1.0000
  H   H15       1.0  0.50627  0.15061  0.43808  1.0000
  C   C19       1.0  0.52413  0.15134  0.40230  1.0000
  H   H16       1.0  0.39706  0.17033  0.46077  1.0000
  C   C20       1.0  0.40171  0.09548  0.44614  1.0000
  H   H17       1.0  0.47192  0.06394  0.39806  1.0000
  H   H18       1.0  0.49002  0.08913  0.36062  1.0000
  C   C21       1.0  0.48073  0.05889  0.38339  1.0000
  C   C22       1.0  0.39136  0.10864  0.48562  1.0000
  C   C23       1.0  0.52958  0.11806  0.39345  1.0000
  H   H19       1.0  0.38644  0.07442  0.47943  1.0000
  C   C24       1.0  0.37505  0.14276  0.50034  1.0000
  Fe  Fe2       1.0  0.47211  0.16404  0.50533  1.0000
  H   H20       1.0  0.53571  0.10876  0.38112  1.0000
  C   C25       1.0  0.41782  0.05783  0.50504  1.0000
  S   S4        1.0  0.50552  0.16167  0.50521  1.0000
  H   H21       1.0  0.54613  0.12782  0.47410  1.0000
  H   H22       1.0  0.42196  0.03475  0.47824  1.0000
  S   S5        1.0  0.41152  0.08725  0.53871  1.0000
  H   H23       1.0  0.51343  0.11435  0.56273  1.0000
  C   C26       1.0  0.40489  0.06020  0.52549  1.0000
  H   H24       1.0  0.42655  0.03605  0.55074  1.0000
  H   H25       1.0  0.51055  0.19138  0.54873  1.0000
  Fe  Fe3       1.0  0.49444  0.14589  0.54458  1.0000
  C   C27       1.0  0.51701  0.24499  0.55845  1.0000
  H   H26       1.0  0.45557  0.04617  0.56001  1.0000
  C   C28       1.0  0.41331  0.15273  0.51516  1.0000
  C   C29       1.0  0.50880  0.21373  0.58994  1.0000
  C   C30       1.0  0.45835  0.25378  0.52476  1.0000
  H   H27       1.0  0.49268  0.27880  0.57982  1.0000
  S   S6        1.0  0.45274  0.27550  0.53901  1.0000
  H   H28       1.0  0.51111  0.19825  0.59408  1.0000
  H   H29       1.0  0.43337  0.03997  0.58439  1.0000
  C   C31       1.0  0.52551  0.12038  0.57844  1.0000
  C   C32       1.0  0.50500  0.25358  0.57471  1.0000
  C   C33       1.0  0.54428  0.23001  0.56644  1.0000
  C   C34       1.0  0.52637  0.25697  0.53502  1.0000
  C   C35       1.0  0.50261  0.27292  0.56775  1.0000
  H   H30       1.0  0.37617  0.04244  0.55112  1.0000
  H   H31       1.0  0.53929  0.04603  0.59669  1.0000
  Fe  Fe4       1.0  0.44572  0.11565  0.52664  1.0000
  C   C36       1.0  0.38634  0.04075  0.53539  1.0000
  H   H32       1.0  0.51645  0.22548  0.60655  1.0000
  H   H33       1.0  0.41308  0.16619  0.52806  1.0000
  S   S7        1.0  0.51977  0.15944  0.57745  1.0000
  H   H34       1.0  0.44411  0.23127  0.55734  1.0000
  S   S8        1.0  0.46213  0.15015  0.54570  1.0000
  H   H35       1.0  0.45165  0.20031  0.53904  1.0000
  C   C37       1.0  0.53160  0.14183  0.58914  1.0000
  H   H36       1.0  0.48998  0.20806  0.58969  1.0000
  C   C38       1.0  0.45218  0.23338  0.53849  1.0000
  N   N2        1.0  0.51965  0.22439  0.56489  1.0000
  H   H37       1.0  0.53532  0.25123  0.52143  1.0000
  S   S9        1.0  0.47709  0.11032  0.52952  1.0000
  H   H38       1.0  0.53021  0.09003  0.57984  1.0000
  H   H39       1.0  0.49687  0.24548  0.59262  1.0000
  C   C39       1.0  0.52384  0.27626  0.52828  1.0000
  H   H40       1.0  0.40778  0.13707  0.52709  1.0000
  C   C40       1.0  0.50902  0.20713  0.54435  1.0000
  H   H41       1.0  0.51693  0.21295  0.52492  1.0000
  H   H42       1.0  0.49053  0.20247  0.54245  1.0000
  C   C41       1.0  0.45651  0.21579  0.52816  1.0000
  C   C42       1.0  0.53503  0.10661  0.58818  1.0000
  C   C43       1.0  0.43777  0.03421  0.56577  1.0000
  H   H43       1.0  0.46848  0.04260  0.59987  1.0000
  H   H44       1.0  0.54022  0.12416  0.52081  1.0000
  C   C44       1.0  0.54487  0.04414  0.71585  1.0000
  H   H45       1.0  0.54603  0.05080  0.63922  1.0000
  H   H46       1.0  0.51465  0.03226  0.77085  1.0000
  H   H47       1.0  0.49050  0.03529  0.63300  1.0000
  H   H48       1.0  0.36831  0.12775  0.51341  1.0000
  H   H49       1.0  0.54602  0.06103  0.71662  1.0000
  H   H50       1.0  0.43142  0.15805  0.50944  1.0000
  H   H51       1.0  0.37366  0.15665  0.51137  1.0000
  C   C45       1.0  0.42043  0.52892  0.42170  1.0000
  H   H52       1.0  0.33223  0.50521  0.44589  1.0000
  H   H53       1.0  0.05940  0.48135  0.35584  1.0000
  H   H54       1.0  0.14177  0.51953  0.36445  1.0000
  C   C46       1.0  0.04925  0.46961  0.37095  1.0000
  H   H55       1.0  0.41902  0.36562  0.46207  1.0000
  Fe  Fe5       1.0  0.35680  0.46416  0.49271  1.0000
  S   S10       1.0  0.36213  0.48148  0.45405  1.0000
  C   C47       1.0  0.53539  0.44492  0.28035  1.0000
  Fe  Fe6       1.0  0.47739  0.34782  0.48307  1.0000
  S   S11       1.0  0.49740  0.33343  0.50523  1.0000
  S   S12       1.0  0.48227  0.35586  0.44019  1.0000
  H   H56       1.0  0.40761  0.45253  0.45311  1.0000
  H   H57       1.0  0.36156  0.35047  0.50000  1.0000
  C   C48       1.0  0.47238  0.40928  0.45838  1.0000
  H   H58       1.0  0.07940  0.42173  0.43148  1.0000
  H   H59       1.0  0.05795  0.41243  0.40647  1.0000
  Fe  Fe7       1.0  0.14209  0.45511  0.46780  1.0000
  S   S13       1.0  0.13565  0.42027  0.48081  1.0000
  S   S14       1.0  0.13003  0.46088  0.42880  1.0000
  C   C49       1.0  0.24295  0.49850  0.49199  1.0000
  C   C50       1.0  0.41578  0.44135  0.45273  1.0000
  H   H60       1.0  0.53592  0.41311  0.38008  1.0000
  H   H61       1.0  0.45728  0.40245  0.40960  1.0000
  C   C51       1.0  0.53009  0.49850  0.34600  1.0000
  C   C52       1.0  0.43494  0.44648  0.43709  1.0000
  N   N3        1.0  0.05911  0.44010  0.42972  1.0000
  C   C53       1.0  0.44735  0.38849  0.42336  1.0000
  H   H62       1.0  0.32664  0.48103  0.48577  1.0000
  C   C54       1.0  0.14610  0.48743  0.41402  1.0000
  H   H63       1.0  0.51908  0.38781  0.47177  1.0000
  H   H64       1.0  0.49870  0.46373  0.30574  1.0000
  H   H65       1.0  0.39940  0.50318  0.49014  1.0000
  C   C55       1.0  0.29474  0.46720  0.45132  1.0000
  C   C56       1.0  0.16792  0.50230  0.42290  1.0000
  C   C57       1.0  0.53220  0.40763  0.40006  1.0000
  N   N4        1.0  0.30075  0.48776  0.46753  1.0000
  H   H66       1.0  0.17528  0.49755  0.43909  1.0000
  H   H67       1.0  0.39203  0.41766  0.47990  1.0000
  S   S15       1.0  0.08808  0.52019  0.31283  1.0000
  H   H68       1.0  0.28283  0.45157  0.46179  1.0000
  C   C58       1.0  0.05999  0.46263  0.38993  1.0000
  H   H69       1.0  0.23531  0.41808  0.47994  1.0000
  C   C59       1.0  0.18042  0.52329  0.41051  1.0000
  S   S16       1.0  0.49670  0.51252  0.34739  1.0000
  H   H70       1.0  0.43803  0.38119  0.48823  1.0000
  C   C60       1.0  0.43721  0.37638  0.46739  1.0000
  S   S17       1.0  0.44326  0.32482  0.50111  1.0000
  H   H71       1.0  0.48263  0.42334  0.44488  1.0000
  H   H72       1.0  0.04759  0.29838  0.46447  1.0000
  C   C61       1.0  0.25808  0.47704  0.46697  1.0000
  C   C62       1.0  0.39794  0.51197  0.42527  1.0000
  C   C63       1.0  0.39033  0.50261  0.44991  1.0000
  N   N5        1.0  0.44811  0.39667  0.45036  1.0000
  H   H73       1.0  0.53819  0.43004  0.28211  1.0000
  H   H74       1.0  0.38649  0.50600  0.40887  1.0000
  C   C64       1.0  0.51255  0.46358  0.29415  1.0000
  C   C65       1.0  0.31252  0.48531  0.49097  1.0000
  C   C66       1.0  0.51261  0.38743  0.40632  1.0000
  C   C67       1.0  0.50765  0.38028  0.43225  1.0000
  C   C68       1.0  0.52242  0.39333  0.45182  1.0000
  H   H75       1.0  0.22844  0.50091  0.49873  1.0000
  C   C69       1.0  0.26495  0.51299  0.50028  1.0000
  H   H76       1.0  0.46012  0.43664  0.42392  1.0000
  S   S18       1.0  0.19625  0.42452  0.49452  1.0000
  H   H77       1.0  0.51869  0.48447  0.35796  1.0000
  C   C70       1.0  0.13680  0.49372  0.39285  1.0000
  C   C71       1.0  0.40705  0.42175  0.46783  1.0000
  C   C72       1.0  0.04726  0.44714  0.40982  1.0000
  H   H78       1.0  0.22234  0.46923  0.46912  1.0000
  H   H79       1.0  0.47370  0.41649  0.47819  1.0000
  H   H80       1.0  0.07839  0.46926  0.38869  1.0000
  H   H81       1.0  0.28684  0.46831  0.43264  1.0000
  C   C73       1.0  0.52626  0.48246  0.27929  1.0000
  H   H82       1.0  0.50681  0.43047  0.30690  1.0000
  H   H83       1.0  0.05316  0.42103  0.46538  1.0000
  H   H84       1.0  0.40974  0.39245  0.47968  1.0000
  C   C74       1.0  0.40519  0.51035  0.47107  1.0000
  H   H85       1.0  0.44596  0.36526  0.46577  1.0000
  H   H86       1.0  0.07826  0.39237  0.48100  1.0000
  C   C75       1.0  0.41742  0.40723  0.46744  1.0000
  C   C76       1.0  0.14908  0.51488  0.38083  1.0000
  S   S19       1.0  0.17707  0.47234  0.48529  1.0000
  C   C77       1.0  0.17094  0.52969  0.38961  1.0000
  C   C78       1.0  0.52361  0.51513  0.33828  1.0000
  H   H87       1.0  0.52304  0.49725  0.27958  1.0000
  H   H88       1.0  0.30033  0.52122  0.49911  1.0000
  C   C79       1.0  0.06177  0.38724  0.49025  1.0000
  H   H89       1.0  0.06915  0.47080  0.45186  1.0000
  H   H90       1.0  0.31018  0.46485  0.44620  1.0000
  H   H91       1.0  0.45482  0.37627  0.42185  1.0000
  H   H92       1.0  0.37548  0.51541  0.19725  1.0000
  C   C80       1.0  0.23957  0.48070  0.47523  1.0000
  C   C81       1.0  0.51719  0.44492  0.29481  1.0000
  C   C82       1.0  0.28363  0.50960  0.49203  1.0000
  C   C83       1.0  0.28074  0.49133  0.47535  1.0000
  H   H93       1.0  0.50129  0.37735  0.39108  1.0000
  H   H94       1.0  0.41309  0.52687  0.17422  1.0000
  C   C84       1.0  0.43691  0.41186  0.45161  1.0000
  H   H95       1.0  0.42941  0.37968  0.41625  1.0000
  H   H96       1.0  0.09067  0.47145  0.42951  1.0000
  H   H97       1.0  0.44163  0.46173  0.42527  1.0000
  H   H98       1.0  0.48100  0.39805  0.45875  1.0000
  C   C85       1.0  0.44539  0.43200  0.43647  1.0000
  C   C86       1.0  0.07679  0.46038  0.44291  1.0000
  H   H99       1.0  0.30881  0.51032  0.43487  1.0000
  C   C87       1.0  0.06307  0.52353  0.30861  1.0000
  H   H100      1.0  0.08567  0.45557  0.45841  1.0000
  H   H101      1.0  0.12012  0.48217  0.38562  1.0000
  C   C88       1.0  0.07051  0.42759  0.41707  1.0000
  H   H102      1.0  0.30049  0.47163  0.50383  1.0000
  H   H103      1.0  0.04661  0.52158  0.38958  1.0000
  S   S20       1.0  0.12460  0.46131  0.50208  1.0000
  C   C89       1.0  0.31710  0.50757  0.45243  1.0000
  S   S21       1.0  0.32517  0.43138  0.49836  1.0000
  Fe  Fe8       1.0  0.16980  0.43801  0.50131  1.0000
  C   C90       1.0  0.42756  0.52756  0.46758  1.0000
  C   C91       1.0  0.54154  0.41372  0.44568  1.0000
  C   C92       1.0  0.23907  0.42649  0.49859  1.0000
  H   H104      1.0  0.32398  0.52348  0.46398  1.0000
  H   H105      1.0  0.25399  0.46256  0.45453  1.0000
  H   H106      1.0  0.08392  0.43832  0.40294  1.0000
  H   H107      1.0  0.27201  0.42630  0.50192  1.0000
  H   H108      1.0  0.32038  0.50104  0.50274  1.0000
  C   C93       1.0  0.54466  0.48278  0.26502  1.0000
  Fe  Fe9       1.0  0.37378  0.46431  0.54735  1.0000
  S   S22       1.0  0.40518  0.48041  0.57238  1.0000
  S   S23       1.0  0.34314  0.43185  0.55786  1.0000
  Fe  Fe10      1.0  0.50183  0.36026  0.53472  1.0000
  S   S24       1.0  0.47008  0.33842  0.55704  1.0000
  H   H109      1.0  0.47159  0.48356  0.61852  1.0000
  Fe  Fe11      1.0  0.12034  0.42769  0.51651  1.0000
  S   S25       1.0  0.15379  0.44246  0.53858  1.0000
  S   S26       1.0  0.17056  0.50993  0.53959  1.0000
  H   H110      1.0  0.52352  0.42938  0.59158  1.0000
  H   H111      1.0  0.09974  0.48888  0.62156  1.0000
  S   S27       1.0  0.08573  0.40636  0.53540  1.0000
  H   H112      1.0  0.38606  0.41202  0.54435  1.0000
  C   C94       1.0  0.07269  0.45107  0.55339  1.0000
  C   C95       1.0  0.52189  0.38492  0.59986  1.0000
  C   C96       1.0  0.24991  0.37576  0.56362  1.0000
  S   S28       1.0  0.35311  0.48020  0.52974  1.0000
  H   H113      1.0  0.50625  0.37025  0.59468  1.0000
  C   C97       1.0  0.06811  0.48469  0.63770  1.0000
  C   C98       1.0  0.53713  0.51947  0.69235  1.0000
  H   H114      1.0  0.44249  0.52574  0.64799  1.0000
  H   H115      1.0  0.21549  0.44741  0.54382  1.0000
  C   C99       1.0  0.23975  0.38063  0.54166  1.0000
  C   C100      1.0  0.37153  0.38171  0.52115  1.0000
  C   C101      1.0  0.49183  0.44480  0.60377  1.0000
  H   H116      1.0  0.20181  0.52436  0.72759  1.0000
  S   S29       1.0  0.28976  0.44586  0.55290  1.0000
  H   H117      1.0  0.51537  0.43920  0.62954  1.0000
  C   C102      1.0  0.09763  0.45152  0.58753  1.0000
  H   H118      1.0  0.08420  0.44961  0.53827  1.0000
  C   C103      1.0  0.21844  0.38079  0.54347  1.0000
  C   C104      1.0  0.26456  0.44124  0.53557  1.0000
  C   C105      1.0  0.42518  0.50504  0.61529  1.0000
  C   C106      1.0  0.40640  0.49793  0.59862  1.0000
  C   C107      1.0  0.39033  0.50638  0.60198  1.0000
  C   C108      1.0  0.47821  0.40457  0.59671  1.0000
  C   C109      1.0  0.24845  0.44718  0.54718  1.0000
  H   H119      1.0  0.37577  0.50092  0.58915  1.0000
  H   H120      1.0  0.11509  0.49664  0.58220  1.0000
  H   H121      1.0  0.45859  0.42210  0.56562  1.0000
  H   H122      1.0  0.07632  0.49541  0.65426  1.0000
  C   C110      1.0  0.15233  0.49551  0.61544  1.0000
  C   C111      1.0  0.15779  0.49342  0.58941  1.0000
  C   C112      1.0  0.16366  0.51167  0.57229  1.0000
  Fe  Fe12      1.0  0.32254  0.44643  0.53652  1.0000
  H   H123      1.0  0.51074  0.38688  0.63893  1.0000
  C   C113      1.0  0.49606  0.47810  0.64137  1.0000
  H   H124      1.0  0.15778  0.47786  0.58269  1.0000
  H   H125      1.0  0.20628  0.36653  0.60681  1.0000
  H   H126      1.0  0.24322  0.36567  0.60435  1.0000
  H   H127      1.0  0.28117  0.38448  0.60317  1.0000
  H   H128      1.0  0.46045  0.40073  0.60278  1.0000
  C   C114      1.0  0.51200  0.28422  0.54463  1.0000
  C   C115      1.0  0.15227  0.51565  0.62422  1.0000
  H   H129      1.0  0.47684  0.39086  0.58306  1.0000
  H   H130      1.0  0.48437  0.44394  0.55118  1.0000
  C   C116      1.0  0.21568  0.37043  0.58862  1.0000
  C   C117      1.0  0.39370  0.52265  0.62140  1.0000
  H   H131      1.0  0.25833  0.34075  0.55170  1.0000
  H   H132      1.0  0.26245  0.34567  0.58598  1.0000
  H   H133      1.0  0.28659  0.35182  0.56523  1.0000
  C   C118      1.0  0.41298  0.53027  0.63751  1.0000
  H   H134      1.0  0.52273  0.44821  0.56709  1.0000
  C   C119      1.0  0.23695  0.37017  0.58703  1.0000
  S   S30       1.0  0.53680  0.38428  0.54969  1.0000
  C   C120      1.0  0.50825  0.46550  0.64422  1.0000
  N   N6        1.0  0.48995  0.42730  0.58452  1.0000
  C   C121      1.0  0.52448  0.39432  0.62488  1.0000
  C   C122      1.0  0.28489  0.38427  0.53755  1.0000
  C   C123      1.0  0.39360  0.35985  0.51998  1.0000
  H   H135      1.0  0.54309  0.38558  0.73209  1.0000
  C   C124      1.0  0.53962  0.39455  0.58164  1.0000
  Fe  Fe13      1.0  0.46403  0.31222  0.52560  1.0000
  S   S31       1.0  0.34726  0.38526  0.51167  1.0000
  C   C125      1.0  0.50603  0.44893  0.62592  1.0000
  H   H136      1.0  0.47657  0.41440  0.54651  1.0000
  H   H137      1.0  0.43745  0.49830  0.61301  1.0000
  N   N7        1.0  0.27266  0.37588  0.56262  1.0000
  H   H138      1.0  0.25186  0.45497  0.56619  1.0000
  H   H139      1.0  0.46737  0.45521  0.58616  1.0000
  S   S32       1.0  0.14467  0.51797  0.65654  1.0000
  C   C126      1.0  0.47926  0.45766  0.60173  1.0000
  C   C127      1.0  0.51305  0.43103  0.57565  1.0000
  H   H140      1.0  0.14806  0.48150  0.62874  1.0000
  Fe  Fe14      1.0  0.15889  0.47559  0.52103  1.0000
  H   H141      1.0  0.48730  0.40313  0.61421  1.0000
  Fe  Fe15      1.0  0.45197  0.35256  0.53089  1.0000
  C   C128      1.0  0.47687  0.42713  0.56097  1.0000
  C   C129      1.0  0.48146  0.47406  0.62029  1.0000
  S   S33       1.0  0.43398  0.37236  0.54792  1.0000
  H   H142      1.0  0.51212  0.41828  0.56082  1.0000
  H   H143      1.0  0.28724  0.40175  0.53338  1.0000
  H   H144      1.0  0.52343  0.50375  0.69928  1.0000
  H   H145      1.0  0.30517  0.39200  0.58236  1.0000
  C   C130      1.0  0.28760  0.39073  0.58337  1.0000
  H   H146      1.0  0.08513  0.43445  0.59458  1.0000
  H   H147      1.0  0.41910  0.40624  0.55859  1.0000
  H   H148      1.0  0.04948  0.49394  0.69577  1.0000
  C   C131      1.0  0.22782  0.44295  0.53452  1.0000
  C   C132      1.0  0.20654  0.37592  0.56691  1.0000
  H   H149      1.0  0.28920  0.40824  0.58174  1.0000
  C   C133      1.0  0.40994  0.37552  0.53663  1.0000
  H   H150      1.0  0.30230  0.38500  0.53763  1.0000
  H   H151      1.0  0.09497  0.49666  0.55883  1.0000
  H   H152      1.0  0.06306  0.45937  0.54411  1.0000
  C   C134      1.0  0.42830  0.52094  0.63482  1.0000
  N   N8        1.0  0.08576  0.46405  0.57631  1.0000
  C   C135      1.0  0.40693  0.39423  0.54536  1.0000
  C   C136      1.0  0.38806  0.39750  0.53740  1.0000
  C   C137      1.0  0.07125  0.46730  0.59652  1.0000
  C   C138      1.0  0.10317  0.48641  0.56675  1.0000
  C   C139      1.0  0.26986  0.35251  0.56661  1.0000
  H   H153      1.0  0.24802  0.38476  0.52292  1.0000
  C   C140      1.0  0.04658  0.50884  0.69462  1.0000
  H   H154      1.0  0.11422  0.48460  0.55125  1.0000
  H   H155      1.0  0.10866  0.46064  0.60417  1.0000
  H   H156      1.0  0.49767  0.49082  0.65574  1.0000
  H   H157      1.0  0.06061  0.43327  0.55860  1.0000
  H   H158      1.0  0.38164  0.52966  0.62354  1.0000
  H   H159      1.0  0.51933  0.46840  0.66088  1.0000
  H   H160      1.0  0.10885  0.44881  0.57293  1.0000
  C   C141      1.0  0.08140  0.48096  0.61867  1.0000
  Fe  Fe16      1.0  0.34856  0.41979  0.51881  1.0000
  H   H161      1.0  0.21120  0.38507  0.52664  1.0000
  H   H162      1.0  0.19021  0.37645  0.56819  1.0000
  S   S34       1.0  0.48440  0.37616  0.51088  1.0000
  C   C142      1.0  0.54457  0.41362  0.63151  1.0000
  H   H163      1.0  0.54466  0.38707  0.69786  1.0000
  C   C143      1.0  0.06531  0.53046  0.69364  1.0000
  C   C144      1.0  0.04692  0.45698  0.59516  1.0000
  H   H164      1.0  0.53055  0.28478  0.50997  1.0000
  H   H165      1.0  0.50940  0.29875  0.53900  1.0000
  H   H166      1.0  0.27568  0.37300  0.52108  1.0000
  C   C145      1.0  0.06066  0.39204  0.51654  1.0000
  H   H167      1.0  0.39551  0.34519  0.51340  1.0000
  C   C146      1.0  0.37433  0.36283  0.51251  1.0000
  C   C147      1.0  0.25990  0.43116  0.51100  1.0000
  H   H168      1.0  0.26746  0.52676  0.51343  1.0000
  C   C148      1.0  0.22286  0.43227  0.51029  1.0000
  H   H169      1.0  0.20419  0.53022  0.69364  1.0000
  S   S35       1.0  0.38030  0.45133  0.50943  1.0000
  Fe  Fe17      1.0  0.17776  0.70145  0.48529  1.0000
  S   S36       1.0  0.17396  0.72978  0.46538  1.0000
  S   S37       1.0  0.18927  0.67766  0.46565  1.0000
  H   H170      1.0  0.53717  0.63619  0.30807  1.0000
  C   C149      1.0  0.18105  0.62081  0.16472  1.0000
  Fe  Fe18      1.0  0.47988  0.58065  0.34197  1.0000
  S   S38       1.0  0.46207  0.54632  0.36099  1.0000
  S   S39       1.0  0.46103  0.59335  0.31471  1.0000
  Fe  Fe19      1.0  0.52335  0.59446  0.37335  1.0000
  S   S40       1.0  0.50947  0.56120  0.39393  1.0000
  N   N9        1.0  0.50732  0.67244  0.23175  1.0000
  Fe  Fe20      1.0  0.49585  0.54562  0.35544  1.0000
  C   C150      1.0  0.27938  0.70333  0.01357  1.0000
  Fe  Fe21      1.0  0.47709  0.56462  0.39814  1.0000
  S   S41       1.0  0.46324  0.55839  0.43912  1.0000
  S   S42       1.0  0.51286  0.57868  0.33377  1.0000
  S   S43       1.0  0.49176  0.59909  0.37993  1.0000
  Fe  Fe22      1.0  0.45961  0.62955  0.11016  1.0000
  S   S44       1.0  0.43648  0.59924  0.13393  1.0000
  S   S45       1.0  0.47257  0.62919  0.06949  1.0000
  Fe  Fe23      1.0  0.46664  0.66201  0.15452  1.0000
  S   S46       1.0  0.44401  0.63508  0.18207  1.0000
  S   S47       1.0  0.48459  0.69828  0.16692  1.0000
  Fe  Fe24      1.0  0.46141  0.61508  0.16649  1.0000
  S   S48       1.0  0.47406  0.59540  0.19241  1.0000
  Fe  Fe25      1.0  0.42078  0.62157  0.14782  1.0000
  S   S49       1.0  0.38276  0.60687  0.15514  1.0000
  S   S50       1.0  0.48613  0.64331  0.14145  1.0000
  S   S51       1.0  0.44195  0.65061  0.12138  1.0000
  Fe  Fe26      1.0  0.25566  0.64879  0.09303  1.0000
  S   S52       1.0  0.23998  0.65157  0.13094  1.0000
  S   S53       1.0  0.23662  0.64716  0.05601  1.0000
  Fe  Fe27      1.0  0.30010  0.65549  0.11853  1.0000
  S   S54       1.0  0.28797  0.65831  0.15860  1.0000
  S   S55       1.0  0.33709  0.66553  0.10903  1.0000
  Fe  Fe28      1.0  0.25470  0.62932  0.14677  1.0000
  S   S56       1.0  0.23340  0.59961  0.17297  1.0000
  Fe  Fe29      1.0  0.27427  0.68019  0.13965  1.0000
  S   S57       1.0  0.27727  0.71291  0.15602  1.0000
  S   S58       1.0  0.26813  0.62427  0.10792  1.0000
  S   S59       1.0  0.28857  0.67945  0.10054  1.0000
  C   C151      1.0  0.41053  0.71708  0.08712  1.0000
  H   H171      1.0  0.14899  0.56737  0.11098  1.0000
  H   H172      1.0  0.20012  0.63701  0.46582  1.0000
  Fe  Fe30      1.0  0.12025  0.55231  0.32061  1.0000
  S   S60       1.0  0.15542  0.55716  0.30889  1.0000
  H   H173      1.0  0.52605  0.63222  0.40744  1.0000
  Fe  Fe31      1.0  0.13814  0.59499  0.35341  1.0000
  S   S61       1.0  0.17477  0.60368  0.34471  1.0000
  S   S62       1.0  0.12340  0.61207  0.38061  1.0000
  Fe  Fe32      1.0  0.16345  0.59380  0.30343  1.0000
  S   S63       1.0  0.18679  0.61843  0.27301  1.0000
  Fe  Fe33      1.0  0.16424  0.56667  0.35063  1.0000
  C   C152      1.0  0.48435  0.67126  0.23652  1.0000
  S   S64       1.0  0.12731  0.58822  0.31172  1.0000
  S   S65       1.0  0.12863  0.55876  0.36279  1.0000
  C   C153      1.0  0.51481  0.59533  0.46426  1.0000
  C   C154      1.0  0.21990  0.60478  0.20033  1.0000
  C   C155      1.0  0.20469  0.58650  0.21554  1.0000
  C   C156      1.0  0.19421  0.59030  0.23781  1.0000
  C   C157      1.0  0.19896  0.61244  0.24501  1.0000
  C   C158      1.0  0.21420  0.63066  0.22978  1.0000
  C   C159      1.0  0.22461  0.62689  0.20755  1.0000
  H   H174      1.0  0.20107  0.56936  0.21017  1.0000
  H   H175      1.0  0.18247  0.57613  0.24934  1.0000
  H   H176      1.0  0.21791  0.64783  0.23519  1.0000
  H   H177      1.0  0.23627  0.64110  0.19600  1.0000
  C   C160      1.0  0.30275  0.73696  0.14817  1.0000
  C   C161      1.0  0.30255  0.75804  0.14668  1.0000
  H   H178      1.0  0.43404  0.54075  0.29052  1.0000
  H   H179      1.0  0.40773  0.63355  0.02627  1.0000
  C   C162      1.0  0.34352  0.75519  0.13830  1.0000
  C   C163      1.0  0.32323  0.73548  0.14382  1.0000
  H   H180      1.0  0.28677  0.75926  0.15010  1.0000
  H   H181      1.0  0.27476  0.69739  0.22890  1.0000
  H   H182      1.0  0.35937  0.75407  0.13543  1.0000
  H   H183      1.0  0.32340  0.71919  0.14509  1.0000
  C   C164      1.0  0.46400  0.70839  0.16797  1.0000
  C   C165      1.0  0.44077  0.69303  0.16885  1.0000
  C   C166      1.0  0.42415  0.70092  0.16832  1.0000
  C   C167      1.0  0.43072  0.72417  0.16647  1.0000
  C   C168      1.0  0.45393  0.73960  0.16616  1.0000
  C   C169      1.0  0.47061  0.73170  0.16700  1.0000
  H   H184      1.0  0.43555  0.67501  0.16982  1.0000
  H   H185      1.0  0.40621  0.68893  0.16862  1.0000
  H   H186      1.0  0.49538  0.71863  0.04239  1.0000
  H   H187      1.0  0.48858  0.74361  0.16646  1.0000
  C   C170      1.0  0.36993  0.62366  0.14397  1.0000
  C   C171      1.0  0.38338  0.64575  0.13517  1.0000
  C   C172      1.0  0.37303  0.65856  0.12498  1.0000
  C   C173      1.0  0.34919  0.64945  0.12366  1.0000
  C   C174      1.0  0.33560  0.62775  0.13353  1.0000
  C   C175      1.0  0.34600  0.61484  0.14362  1.0000
  H   H188      1.0  0.40175  0.65299  0.13625  1.0000
  H   H189      1.0  0.38349  0.67560  0.11822  1.0000
  H   H190      1.0  0.31714  0.62066  0.13266  1.0000
  H   H191      1.0  0.33550  0.59779  0.15057  1.0000
  C   C176      1.0  0.25715  0.62515  0.02873  1.0000
  C   C177      1.0  0.24508  0.63807  0.02750  1.0000
  C   C178      1.0  0.41002  0.54826  0.26924  1.0000
  H   H192      1.0  0.26173  0.62089  0.04736  1.0000
  C   C179      1.0  0.43155  0.69338  0.03867  1.0000
  H   H193      1.0  0.25641  0.58869  0.32975  1.0000
  C   C180      1.0  0.45641  0.62991  0.04259  1.0000
  C   C181      1.0  0.43592  0.63155  0.04570  1.0000
  C   C182      1.0  0.18233  0.60536  0.14696  1.0000
  H   H194      1.0  0.42934  0.63169  0.06497  1.0000
  C   C183      1.0  0.46605  0.59497  0.28094  1.0000
  C   C184      1.0  0.45427  0.60349  0.26512  1.0000
  C   C185      1.0  0.45703  0.60422  0.23805  1.0000
  C   C186      1.0  0.47145  0.59622  0.22652  1.0000
  C   C187      1.0  0.48360  0.58811  0.24237  1.0000
  C   C188      1.0  0.48100  0.58757  0.26954  1.0000
  H   H195      1.0  0.44268  0.60922  0.27387  1.0000
  H   H196      1.0  0.44758  0.61051  0.22622  1.0000
  H   H197      1.0  0.49484  0.58195  0.23361  1.0000
  H   H198      1.0  0.49017  0.58100  0.28157  1.0000
  H   H199      1.0  0.48425  0.68114  0.25401  1.0000
  H   H200      1.0  0.38413  0.69993  0.20306  1.0000
  C   C189      1.0  0.43280  0.71307  0.05149  1.0000
  C   C190      1.0  0.16645  0.56858  0.10861  1.0000
  H   H201      1.0  0.19179  0.61197  0.06603  1.0000
  H   H202      1.0  0.52694  0.65423  0.44655  1.0000
  H   H203      1.0  0.08069  0.55912  0.29968  1.0000
  C   C191      1.0  0.54196  0.65229  0.44097  1.0000
  H   H204      1.0  0.40295  0.55202  0.28665  1.0000
  C   C192      1.0  0.17086  0.65953  0.44209  1.0000
  C   C193      1.0  0.17991  0.65142  0.42216  1.0000
  C   C194      1.0  0.16546  0.63655  0.40336  1.0000
  C   C195      1.0  0.14187  0.62941  0.40475  1.0000
  C   C196      1.0  0.13275  0.63661  0.42545  1.0000
  C   C197      1.0  0.14722  0.65201  0.44385  1.0000
  H   H205      1.0  0.19819  0.65708  0.42088  1.0000
  H   H206      1.0  0.17265  0.63103  0.38755  1.0000
  H   H207      1.0  0.11445  0.63011  0.42725  1.0000
  H   H208      1.0  0.14014  0.65767  0.45971  1.0000
  H   H209      1.0  0.51476  0.69782  0.03301  1.0000
  C   C198      1.0  0.24848  0.56415  0.27142  1.0000
  H   H210      1.0  0.35542  0.77345  0.08011  1.0000
  H   H211      1.0  0.54099  0.69892  0.22228  1.0000
  H   H212      1.0  0.18048  0.66013  0.12282  1.0000
  H   H213      1.0  0.06987  0.53431  0.36662  1.0000
  H   H214      1.0  0.52407  0.54989  0.47766  1.0000
  H   H215      1.0  0.05480  0.57032  0.34706  1.0000
  H   H216      1.0  0.51141  0.55545  0.44955  1.0000
  S   S66       1.0  0.18659  0.55616  0.37457  1.0000
  C   C199      1.0  0.20393  0.63394  0.48601  1.0000
  H   H217      1.0  0.21128  0.59052  0.12186  1.0000
  H   H218      1.0  0.07656  0.69215  0.43438  1.0000
  C   C200      1.0  0.16458  0.62260  0.49793  1.0000
  S   S67       1.0  0.40951  0.73330  0.16360  1.0000
  C   C201      1.0  0.32255  0.77752  0.14028  1.0000
  H   H219      1.0  0.49767  0.58859  0.47356  1.0000
  H   H220      1.0  0.17837  0.58238  0.06071  1.0000
  H   H221      1.0  0.51201  0.59240  0.44298  1.0000
  H   H222      1.0  0.49761  0.55263  0.47983  1.0000
  H   H223      1.0  0.30939  0.61244  0.01979  1.0000
  C   C202      1.0  0.33957  0.76268  0.06917  1.0000
  N   N10       1.0  0.22658  0.57381  0.30557  1.0000
  C   C203      1.0  0.43489  0.73140  0.03543  1.0000
  H   H224      1.0  0.39948  0.57507  0.17371  1.0000
  H   H225      1.0  0.45148  0.53349  0.25117  1.0000
  H   H226      1.0  0.48022  0.62766  0.01501  1.0000
  H   H227      1.0  0.17966  0.65252  0.16991  1.0000
  H   H228      1.0  0.52292  0.66194  0.20048  1.0000
  C   C204      1.0  0.42982  0.54025  0.22464  1.0000
  H   H229      1.0  0.40867  0.71795  0.10858  1.0000
  H   H230      1.0  0.05015  0.57098  0.43374  1.0000
  H   H231      1.0  0.16951  0.63985  0.50606  1.0000
  C   C205      1.0  0.50130  0.68777  0.01871  1.0000
  H   H232      1.0  0.49951  0.66694  0.19101  1.0000
  H   H233      1.0  0.18116  0.61779  0.18541  1.0000
  C   C206      1.0  0.31990  0.72969  0.04182  1.0000
  H   H234      1.0  0.49244  0.75384  0.04863  1.0000
  H   H235      1.0  0.26606  0.55623  0.24039  1.0000
  C   C207      1.0  0.16734  0.55345  0.48819  1.0000
  N   N11       1.0  0.05881  0.55757  0.38436  1.0000
  N   N12       1.0  0.43140  0.71468  0.08010  1.0000
  C   C208      1.0  0.43046  0.69457  0.09404  1.0000
  C   C209      1.0  0.45167  0.73483  0.08994  1.0000
  H   H236      1.0  0.42978  0.69645  0.11545  1.0000
  C   C210      1.0  0.50258  0.65403  0.27634  1.0000
  H   H237      1.0  0.45295  0.75108  0.08216  1.0000
  H   H238      1.0  0.16144  0.59581  0.07235  1.0000
  H   H239      1.0  0.46780  0.73386  0.08505  1.0000
  H   H240      1.0  0.42972  0.67843  0.04905  1.0000
  H   H241      1.0  0.16541  0.53864  0.49917  1.0000
  H   H242      1.0  0.07218  0.59168  0.36969  1.0000
  H   H243      1.0  0.30754  0.73001  0.20935  1.0000
  N   N13       1.0  0.34074  0.74265  0.05738  1.0000
  N   N14       1.0  0.34845  0.68842  0.19414  1.0000
  C   C211      1.0  0.53128  0.64370  0.29293  1.0000
  C   C212      1.0  0.36891  0.70182  0.21007  1.0000
  C   C213      1.0  0.34517  0.66460  0.19334  1.0000
  C   C214      1.0  0.32861  0.69078  0.20510  1.0000
  H   H244      1.0  0.19734  0.53469  0.41736  1.0000
  H   H245      1.0  0.36607  0.69341  0.15720  1.0000
  H   H246      1.0  0.23093  0.56890  0.34620  1.0000
  C   C215      1.0  0.34590  0.63219  0.01957  1.0000
  C   C216      1.0  0.52373  0.69667  0.22825  1.0000
  C   C217      1.0  0.30842  0.71410  0.21208  1.0000
  H   H247      1.0  0.34151  0.72664  0.19513  1.0000
  C   C218      1.0  0.30988  0.67260  0.21757  1.0000
  C   C219      1.0  0.07737  0.56390  0.40381  1.0000
  C   C220      1.0  0.51065  0.64487  0.29596  1.0000
  H   H248      1.0  0.36595  0.69648  0.23077  1.0000
  C   C221      1.0  0.46457  0.62931  0.01750  1.0000
  C   C222      1.0  0.36231  0.75102  0.04208  1.0000
  H   H249      1.0  0.35993  0.66330  0.18382  1.0000
  H   H250      1.0  0.42434  0.58501  0.19399  1.0000
  H   H251      1.0  0.35824  0.73666  0.08979  1.0000
  H   H252      1.0  0.08318  0.57440  0.35369  1.0000
  S   S68       1.0  0.40471  0.76952  0.10987  1.0000
  H   H253      1.0  0.32521  0.75788  0.08331  1.0000
  N   N15       1.0  0.08700  0.66754  0.41925  1.0000
  C   C223      1.0  0.10382  0.66788  0.39947  1.0000
  C   C224      1.0  0.08718  0.69012  0.41868  1.0000
  C   C225      1.0  0.09513  0.66435  0.44506  1.0000
  C   C226      1.0  0.06341  0.64956  0.41491  1.0000
  H   H254      1.0  0.47876  0.67847  0.21999  1.0000
  C   C227      1.0  0.37845  0.53321  0.19392  1.0000
  H   H255      1.0  0.50387  0.67250  0.01423  1.0000
  C   C228      1.0  0.20654  0.59353  0.10202  1.0000
  H   H256      1.0  0.16551  0.55590  0.09375  1.0000
  H   H257      1.0  0.09952  0.67167  0.37977  1.0000
  H   H258      1.0  0.12148  0.68112  0.40384  1.0000
  H   H259      1.0  0.10480  0.65150  0.39865  1.0000
  H   H260      1.0  0.08062  0.69309  0.39991  1.0000
  H   H261      1.0  0.10473  0.70411  0.42171  1.0000
  H   H262      1.0  0.38214  0.65133  0.01340  1.0000
  H   H263      1.0  0.11308  0.67722  0.44882  1.0000
  H   H264      1.0  0.08480  0.66622  0.46122  1.0000
  H   H265      1.0  0.09428  0.64722  0.44693  1.0000
  C   C229      1.0  0.06431  0.54477  0.30295  1.0000
  Fe  Fe34      1.0  0.14432  0.72126  0.49336  1.0000
  H   H266      1.0  0.30919  0.65607  0.22006  1.0000
  C   C230      1.0  0.26039  0.56829  0.24784  1.0000
  H   H267      1.0  0.50055  0.63811  0.31345  1.0000
  H   H268      1.0  0.15931  0.62312  0.47759  1.0000
  H   H269      1.0  0.36790  0.53706  0.20824  1.0000
  C   C231      1.0  0.35292  0.69713  0.16707  1.0000
  H   H270      1.0  0.33713  0.68937  0.15521  1.0000
  C   C232      1.0  0.34220  0.72802  0.07844  1.0000
  C   C233      1.0  0.40215  0.55053  0.24474  1.0000
  H   H271      1.0  0.51796  0.70481  0.21283  1.0000
  H   H272      1.0  0.41089  0.73287  0.07908  1.0000
  H   H273      1.0  0.19553  0.55164  0.28605  1.0000
  C   C234      1.0  0.27814  0.70700  0.04001  1.0000
  C   C235      1.0  0.17373  0.57420  0.50083  1.0000
  H   H274      1.0  0.47108  0.65339  0.23887  1.0000
  H   H275      1.0  0.26026  0.61795  0.23143  1.0000
  C   C236      1.0  0.17671  0.59396  0.48686  1.0000
  C   C237      1.0  0.42372  0.63262  0.02377  1.0000
  H   H276      1.0  0.38865  0.55571  0.24405  1.0000
  C   C238      1.0  0.17235  0.59139  0.45974  1.0000
  H   H277      1.0  0.41492  0.67879  0.08892  1.0000
  C   C239      1.0  0.26459  0.58765  0.23350  1.0000
  H   H278      1.0  0.45584  0.59316  0.47924  1.0000
  H   H279      1.0  0.19501  0.54734  0.32062  1.0000
  H   H280      1.0  0.20831  0.58105  0.08877  1.0000
  H   H281      1.0  0.14925  0.61034  0.50875  1.0000
  C   C240      1.0  0.43734  0.53777  0.24927  1.0000
  H   H282      1.0  0.49165  0.62868  0.48488  1.0000
  H   H283      1.0  0.15872  0.53554  0.45186  1.0000
  C   C241      1.0  0.20609  0.55159  0.30295  1.0000
  H   H284      1.0  0.36465  0.73678  0.03322  1.0000
  C   C242      1.0  0.21845  0.59087  0.31263  1.0000
  H   H285      1.0  0.48619  0.65381  0.27989  1.0000
  H   H286      1.0  0.08313  0.58156  0.41095  1.0000
  H   H287      1.0  0.07199  0.55201  0.42057  1.0000
  H   H288      1.0  0.33726  0.77355  0.05410  1.0000
  C   C243      1.0  0.28991  0.69571  0.22306  1.0000
  C   C244      1.0  0.24014  0.57923  0.28121  1.0000
  H   H289      1.0  0.52569  0.70636  0.24655  1.0000
  C   C245      1.0  0.53639  0.66143  0.25072  1.0000
  H   H290      1.0  0.32974  0.65362  0.18187  1.0000
  C   C246      1.0  0.24059  0.57246  0.32745  1.0000
  H   H291      1.0  0.23289  0.60797  0.31579  1.0000
  C   C247      1.0  0.43261  0.69243  0.01158  1.0000
  H   H292      1.0  0.06986  0.63446  0.37955  1.0000
  H   H293      1.0  0.45110  0.73629  0.11145  1.0000
  H   H294      1.0  0.27622  0.66090  0.23471  1.0000
  H   H295      1.0  0.18416  0.59107  0.15484  1.0000
  C   C248      1.0  0.18151  0.62906  0.11151  1.0000
  H   H296      1.0  0.21018  0.65076  0.49576  1.0000
  H   H297      1.0  0.27316  0.59052  0.21481  1.0000
  H   H298      1.0  0.34377  0.65737  0.21311  1.0000
  C   C249      1.0  0.08372  0.69753  0.49562  1.0000
  C   C250      1.0  0.32764  0.71184  0.20356  1.0000
  H   H299      1.0  0.37377  0.72030  0.20932  1.0000
  C   C251      1.0  0.50605  0.66028  0.20711  1.0000
  H   H300      1.0  0.29608  0.72275  0.07436  1.0000
  C   C252      1.0  0.16359  0.55165  0.46152  1.0000
  H   H301      1.0  0.43883  0.53767  0.20834  1.0000
  H   H302      1.0  0.17102  0.56285  0.12701  1.0000
  H   H303      1.0  0.32805  0.72335  0.09274  1.0000
  H   H304      1.0  0.21947  0.61068  0.09586  1.0000
  S   S69       1.0  0.10931  0.71670  0.47968  1.0000
  H   H305      1.0  0.35957  0.71583  0.16594  1.0000
  N   N16       1.0  0.52824  0.58423  0.47500  1.0000
  C   C253      1.0  0.17839  0.59573  0.07400  1.0000
  H   H306      1.0  0.20838  0.58631  0.33102  1.0000
  C   C254      1.0  0.46430  0.59712  0.49799  1.0000
  H   H307      1.0  0.26167  0.69930  0.04986  1.0000
  C   C255      1.0  0.18018  0.64038  0.15602  1.0000
  C   C256      1.0  0.18200  0.60869  0.11975  1.0000
  H   H308      1.0  0.16333  0.56911  0.42646  1.0000
  C   C257      1.0  0.51486  0.55944  0.47055  1.0000
  H   H309      1.0  0.39659  0.57738  0.20773  1.0000
  H   H310      1.0  0.23932  0.61145  0.27189  1.0000
  H   H311      1.0  0.24574  0.55865  0.32485  1.0000
  C   C258      1.0  0.16610  0.57058  0.44730  1.0000
  C   C259      1.0  0.06240  0.69457  0.48612  1.0000
  C   C260      1.0  0.53318  0.59049  0.50272  1.0000
  H   H312      1.0  0.45908  0.75760  0.16537  1.0000
  C   C261      1.0  0.25730  0.60314  0.24293  1.0000
  H   H313      1.0  0.18237  0.63370  0.09131  1.0000
  C   C262      1.0  0.41183  0.54664  0.22163  1.0000
  H   H314      1.0  0.34706  0.63365  0.04056  1.0000
  H   H315      1.0  0.43567  0.74680  0.04370  1.0000
  H   H316      1.0  0.06181  0.70495  0.47020  1.0000
  H   H317      1.0  0.17373  0.60549  0.44788  1.0000
  N   N17       1.0  0.18324  0.59199  0.10128  1.0000
  H   H318      1.0  0.20701  0.59216  0.29747  1.0000
  H   H319      1.0  0.49448  0.64187  0.20912  1.0000
  C   C263      1.0  0.29076  0.67512  0.22618  1.0000
  Fe  Fe35      1.0  0.42132  0.76813  0.14724  1.0000
  H   H320      1.0  0.21827  0.62920  0.48528  1.0000
  H   H321      1.0  0.39481  0.70246  0.07986  1.0000
  H   H322      1.0  0.44592  0.69204  0.09001  1.0000
  C   C264      1.0  0.18055  0.64456  0.12949  1.0000
  H   H323      1.0  0.48417  0.68131  0.02819  1.0000
  C   C265      1.0  0.24516  0.59908  0.26634  1.0000
  N   N18       1.0  0.40314  0.54915  0.19592  1.0000
  C   C266      1.0  0.51522  0.66253  0.25296  1.0000
  C   C267      1.0  0.06754  0.57416  0.36278  1.0000
  C   C268      1.0  0.54136  0.63961  0.41887  1.0000
  H   H324      1.0  0.09293  0.56360  0.39527  1.0000
  H   H325      1.0  0.36282  0.76296  0.02654  1.0000
  C   C269      1.0  0.48453  0.61704  0.50105  1.0000
  H   H326      1.0  0.34136  0.71189  0.07063  1.0000
  H   H327      1.0  0.37759  0.76060  0.05444  1.0000
  H   H328      1.0  0.52323  0.61390  0.46727  1.0000
  N   N19       1.0  0.18365  0.61629  0.49950  1.0000
  C   C270      1.0  0.29801  0.72025  0.05390  1.0000
  C   C271      1.0  0.34309  0.77621  0.13617  1.0000
  H   H329      1.0  0.43370  0.55651  0.17353  1.0000
  C   C272      1.0  0.42752  0.54183  0.27149  1.0000
  C   C273      1.0  0.05746  0.63406  0.39374  1.0000
  H   H330      1.0  0.53324  0.54594  0.31652  1.0000
  C   C274      1.0  0.32055  0.72584  0.01469  1.0000
  C   C275      1.0  0.40598  0.57262  0.19281  1.0000
  Fe  Fe36      1.0  0.19663  0.75269  0.49692  1.0000
  C   C276      1.0  0.05408  0.53479  0.37426  1.0000
  H   H331      1.0  0.21049  0.53729  0.30028  1.0000
  C   C277      1.0  0.49425  0.74851  0.02921  1.0000
  H   H332      1.0  0.24545  0.54879  0.28172  1.0000
  C   C278      1.0  0.49611  0.72836  0.02528  1.0000
  C   C279      1.0  0.53833  0.53321  0.32276  1.0000
  H   H333      1.0  0.49393  0.77788  0.01148  1.0000
  C   C280      1.0  0.43523  0.53678  0.44287  1.0000
  H   H334      1.0  0.40830  0.54676  0.15470  1.0000
  H   H335      1.0  0.04864  0.65821  0.44882  1.0000
  H   H336      1.0  0.37153  0.53404  0.17443  1.0000
  H   H337      1.0  0.43899  0.53356  0.48398  1.0000
  C   C281      1.0  0.41509  0.54453  0.17372  1.0000
  C   C282      1.0  0.54416  0.65202  0.27037  1.0000
  H   H338      1.0  0.42619  0.53610  0.40265  1.0000
  H   H339      1.0  0.34320  0.67538  0.00929  1.0000
  Fe  Fe37      1.0  0.17105  0.71715  0.53873  1.0000
  S   S70       1.0  0.16659  0.74676  0.52314  1.0000
  S   S71       1.0  0.17396  0.71143  0.58134  1.0000
  H   H340      1.0  0.16740  0.64690  0.63444  1.0000
  C   C283      1.0  0.42755  0.59174  0.72126  1.0000
  H   H341      1.0  0.17194  0.68611  0.62799  1.0000
  Fe  Fe38      1.0  0.11784  0.57706  0.67918  1.0000
  S   S72       1.0  0.13747  0.56287  0.70241  1.0000
  S   S73       1.0  0.08481  0.57698  0.69175  1.0000
  Fe  Fe39      1.0  0.15379  0.59574  0.63670  1.0000
  S   S74       1.0  0.17684  0.58360  0.65627  1.0000
  S   S75       1.0  0.16204  0.61142  0.59687  1.0000
  Fe  Fe40      1.0  0.14473  0.55171  0.66351  1.0000
  C   C284      1.0  0.40531  0.58353  0.76239  1.0000
  Fe  Fe41      1.0  0.16793  0.59592  0.69328  1.0000
  S   S76       1.0  0.19674  0.61788  0.72000  1.0000
  S   S77       1.0  0.12211  0.56276  0.64121  1.0000
  S   S78       1.0  0.14773  0.61109  0.67291  1.0000
  Fe  Fe42      1.0  0.45577  0.56935  0.67169  1.0000
  S   S79       1.0  0.47410  0.60718  0.67049  1.0000
  H   H342      1.0  0.17481  0.60529  0.53938  1.0000
  Fe  Fe43      1.0  0.49811  0.56563  0.68898  1.0000
  S   S80       1.0  0.52046  0.60343  0.68924  1.0000
  H   H343      1.0  0.31129  0.59325  0.93383  1.0000
  Fe  Fe44      1.0  0.48989  0.60497  0.70831  1.0000
  S   S81       1.0  0.49291  0.63240  0.73703  1.0000
  Fe  Fe45      1.0  0.50285  0.60290  0.65170  1.0000
  S   S82       1.0  0.51523  0.62073  0.61350  1.0000
  S   S83       1.0  0.46898  0.56721  0.71114  1.0000
  S   S84       1.0  0.48328  0.56521  0.64978  1.0000
  Fe  Fe46      1.0  0.42746  0.66995  0.88650  1.0000
  S   S85       1.0  0.44387  0.68166  0.92495  1.0000
  S   S86       1.0  0.40652  0.68703  0.87336  1.0000
  Fe  Fe47      1.0  0.44947  0.63868  0.87801  1.0000
  S   S87       1.0  0.46809  0.64802  0.91642  1.0000
  S   S88       1.0  0.44985  0.61162  0.85090  1.0000
  Fe  Fe48      1.0  0.43499  0.64544  0.93289  1.0000
  S   S89       1.0  0.41697  0.63485  0.97168  1.0000
  Fe  Fe49      1.0  0.47517  0.68356  0.90536  1.0000
  S   S90       1.0  0.50858  0.71467  0.91044  1.0000
  S   S91       1.0  0.41567  0.63322  0.89562  1.0000
  S   S92       1.0  0.45944  0.67459  0.86590  1.0000
  C   C285      1.0  0.53123  0.70487  0.61383  1.0000
  S   S93       1.0  0.39393  0.75327  0.83719  1.0000
  Fe  Fe50      1.0  0.23750  0.62236  0.86142  1.0000
  S   S94       1.0  0.25255  0.60087  0.87905  1.0000
  S   S95       1.0  0.20327  0.60404  0.84116  1.0000
  Fe  Fe51      1.0  0.27752  0.66610  0.87796  1.0000
  S   S96       1.0  0.29605  0.64833  0.89605  1.0000
  S   S97       1.0  0.29329  0.70410  0.88190  1.0000
  Fe  Fe52      1.0  0.28517  0.62601  0.86101  1.0000
  S   S98       1.0  0.30868  0.61358  0.84279  1.0000
  Fe  Fe53      1.0  0.26208  0.62474  0.91300  1.0000
  S   S99       1.0  0.26483  0.61249  0.95333  1.0000
  S   S100      1.0  0.26985  0.64604  0.84089  1.0000
  S   S101      1.0  0.24388  0.64406  0.89738  1.0000
  C   C286      1.0  0.25689  0.62253  0.98147  1.0000
  H   H344      1.0  0.43838  0.74486  0.99669  1.0000
  C   C287      1.0  0.24521  0.63582  0.98019  1.0000
  H   H345      1.0  0.15292  0.61597  0.83686  1.0000
  H   H346      1.0  0.24054  0.63996  0.96152  1.0000
  C   C288      1.0  0.36517  0.74052  0.84748  1.0000
  C   C289      1.0  0.35034  0.71866  0.83896  1.0000
  C   C290      1.0  0.32795  0.70750  0.84895  1.0000
  C   C291      1.0  0.32016  0.71845  0.86686  1.0000
  C   C292      1.0  0.33447  0.74087  0.87394  1.0000
  C   C293      1.0  0.35704  0.75173  0.86467  1.0000
  H   H347      1.0  0.35637  0.71000  0.82532  1.0000
  H   H348      1.0  0.31670  0.69044  0.84279  1.0000
  H   H349      1.0  0.32827  0.74963  0.88724  1.0000
  H   H350      1.0  0.44395  0.57308  0.60488  1.0000
  C   C294      1.0  0.50612  0.73987  0.90529  1.0000
  C   C295      1.0  0.48545  0.74088  0.90996  1.0000
  C   C296      1.0  0.48373  0.76107  0.90576  1.0000
  H   H351      1.0  0.29305  0.66544  0.95117  1.0000
  C   C297      1.0  0.38461  0.57707  0.80393  1.0000
  C   C298      1.0  0.52518  0.75932  0.89679  1.0000
  H   H352      1.0  0.47084  0.72631  0.91721  1.0000
  H   H353      1.0  0.46782  0.76175  0.90977  1.0000
  H   H354      1.0  0.16834  0.54600  0.56806  1.0000
  C   C299      1.0  0.36412  0.64005  0.97730  1.0000
  C   C300      1.0  0.38041  0.66734  0.86075  1.0000
  C   C301      1.0  0.37678  0.64529  0.85462  1.0000
  C   C302      1.0  0.35485  0.62887  0.84775  1.0000
  C   C303      1.0  0.33666  0.63459  0.84708  1.0000
  C   C304      1.0  0.34061  0.65689  0.85192  1.0000
  C   C305      1.0  0.36250  0.67329  0.85867  1.0000
  H   H355      1.0  0.39077  0.64083  0.85536  1.0000
  H   H356      1.0  0.35184  0.61164  0.84374  1.0000
  H   H357      1.0  0.32664  0.66135  0.85089  1.0000
  H   H358      1.0  0.36539  0.69036  0.86321  1.0000
  C   C306      1.0  0.43212  0.63240  0.99868  1.0000
  C   C307      1.0  0.45251  0.63062  0.99559  1.0000
  C   C308      1.0  0.48675  0.60682  0.54564  1.0000
  H   H359      1.0  0.45877  0.62984  0.97632  1.0000
  H   H360      1.0  0.05937  0.55590  0.63568  1.0000
  H   H361      1.0  0.37515  0.62516  0.93220  1.0000
  C   C309      1.0  0.48152  0.62631  0.76894  1.0000
  C   C310      1.0  0.48246  0.64415  0.78464  1.0000
  C   C311      1.0  0.47313  0.63995  0.80990  1.0000
  C   C312      1.0  0.46265  0.61781  0.81965  1.0000
  C   C313      1.0  0.46175  0.59996  0.80393  1.0000
  C   C314      1.0  0.47121  0.60418  0.77871  1.0000
  H   H362      1.0  0.49047  0.66133  0.77729  1.0000
  H   H363      1.0  0.47403  0.65383  0.82180  1.0000
  H   H364      1.0  0.45372  0.58280  0.81135  1.0000
  H   H365      1.0  0.47067  0.59035  0.76698  1.0000
  H   H366      1.0  0.42764  0.54049  0.57820  1.0000
  H   H367      1.0  0.39018  0.55947  0.70237  1.0000
  C   C315      1.0  0.45447  0.77981  0.77519  1.0000
  C   C316      1.0  0.52482  0.57434  0.52323  1.0000
  H   H368      1.0  0.30601  0.60830  0.97303  1.0000
  H   H369      1.0  0.52945  0.68640  0.71660  1.0000
  C   C317      1.0  0.49926  0.72153  0.99995  1.0000
  H   H370      1.0  0.51719  0.69523  0.69074  1.0000
  C   C318      1.0  0.19821  0.61306  0.75350  1.0000
  C   C319      1.0  0.18087  0.59483  0.76661  1.0000
  C   C320      1.0  0.18268  0.59211  0.79346  1.0000
  C   C321      1.0  0.20190  0.60737  0.80729  1.0000
  C   C322      1.0  0.21925  0.62542  0.79408  1.0000
  C   C323      1.0  0.21738  0.62826  0.76734  1.0000
  H   H371      1.0  0.16603  0.58290  0.75626  1.0000
  H   H372      1.0  0.16915  0.57816  0.80361  1.0000
  H   H373      1.0  0.23391  0.63751  0.80454  1.0000
  H   H374      1.0  0.23083  0.64242  0.75738  1.0000
  H   H375      1.0  0.10764  0.61883  0.77189  1.0000
  C   C324      1.0  0.43518  0.71094  0.99649  1.0000
  H   H376      1.0  0.39563  0.60556  0.82997  1.0000
  C   C325      1.0  0.17083  0.68376  0.58625  1.0000
  C   C326      1.0  0.16878  0.66987  0.56492  1.0000
  C   C327      1.0  0.16554  0.64761  0.56863  1.0000
  C   C328      1.0  0.16506  0.63920  0.59361  1.0000
  C   C329      1.0  0.16747  0.65314  0.61508  1.0000
  C   C330      1.0  0.17025  0.67540  0.61140  1.0000
  H   H377      1.0  0.16972  0.67625  0.54550  1.0000
  H   H378      1.0  0.16311  0.63678  0.55210  1.0000
  H   H379      1.0  0.15586  0.66334  0.73401  1.0000
  N   N20       1.0  0.40899  0.57452  0.73734  1.0000
  H   H380      1.0  0.07778  0.59493  0.61848  1.0000
  C   C331      1.0  0.34930  0.70577  0.95312  1.0000
  H   H381      1.0  0.46759  0.68017  0.98453  1.0000
  C   C332      1.0  0.21235  0.77796  0.56417  1.0000
  H   H382      1.0  0.44578  0.73283  0.86876  1.0000
  H   H383      1.0  0.43141  0.67720  0.00219  1.0000
  S   S102      1.0  0.50631  0.53662  0.69769  1.0000
  H   H384      1.0  0.51016  0.68644  0.64548  1.0000
  H   H385      1.0  0.17667  0.54682  0.69865  1.0000
  H   H386      1.0  0.42395  0.71941  0.81757  1.0000
  H   H387      1.0  0.49162  0.75382  0.84801  1.0000
  H   H388      1.0  0.38826  0.74355  0.96955  1.0000
  C   C333      1.0  0.04890  0.56352  0.62821  1.0000
  H   H389      1.0  0.15784  0.54931  0.61345  1.0000
  H   H390      1.0  0.38203  0.57905  0.71849  1.0000
  C   C334      1.0  0.23903  0.58562  0.79262  1.0000
  C   C335      1.0  0.06354  0.66858  0.52816  1.0000
  H   H391      1.0  0.44673  0.71716  0.79929  1.0000
  C   C336      1.0  0.21999  0.56459  0.79073  1.0000
  S   S103      1.0  0.20197  0.72443  0.51475  1.0000
  H   H392      1.0  0.30388  0.65446  0.99270  1.0000
  C   C337      1.0  0.53335  0.53868  0.68956  1.0000
  H   H393      1.0  0.48884  0.57747  0.58285  1.0000
  H   H394      1.0  0.46774  0.59854  0.59474  1.0000
  C   C338      1.0  0.32303  0.61782  0.98080  1.0000
  H   H395      1.0  0.42971  0.58446  0.70253  1.0000
  H   H396      1.0  0.52146  0.64932  0.69380  1.0000
  H   H397      1.0  0.53584  0.65191  0.57233  1.0000
  C   C339      1.0  0.46590  0.58664  0.54346  1.0000
  C   C340      1.0  0.47279  0.56341  0.57545  1.0000
  H   H398      1.0  0.44437  0.59841  0.73125  1.0000
  H   H399      1.0  0.33628  0.73257  0.00366  1.0000
  H   H400      1.0  0.21359  0.75513  0.60681  1.0000
  H   H401      1.0  0.10035  0.68659  0.52445  1.0000
  H   H402      1.0  0.36914  0.75739  0.92349  1.0000
  C   C341      1.0  0.49588  0.62173  0.52472  1.0000
  C   C342      1.0  0.44884  0.74633  0.85414  1.0000
  H   H403      1.0  0.39717  0.72514  0.95117  1.0000
  H   H404      1.0  0.37191  0.70702  0.98526  1.0000
  C   C343      1.0  0.44138  0.72031  0.81879  1.0000
  H   H405      1.0  0.10739  0.62862  0.73986  1.0000
  H   H406      1.0  0.12226  0.64873  0.76515  1.0000
  H   H407      1.0  0.12422  0.59352  0.75724  1.0000
  H   H408      1.0  0.19589  0.63389  0.53595  1.0000
  C   C344      1.0  0.23901  0.59002  0.74594  1.0000
  C   C345      1.0  0.05924  0.58557  0.61855  1.0000
  H   H409      1.0  0.44332  0.77869  0.75917  1.0000
  H   H410      1.0  0.54130  0.75879  0.89342  1.0000
  C   C346      1.0  0.52565  0.70805  0.98311  1.0000
  H   H411      1.0  0.43656  0.54011  0.54566  1.0000
  C   C347      1.0  0.18978  0.61665  0.52732  1.0000
  C   C348      1.0  0.11839  0.63163  0.75734  1.0000
  C   C349      1.0  0.45181  0.58415  0.58764  1.0000
  H   H412      1.0  0.37990  0.64798  0.96632  1.0000
  C   C350      1.0  0.33867  0.68048  0.99107  1.0000
  C   C351      1.0  0.52330  0.77935  0.89195  1.0000
  C   C352      1.0  0.06163  0.54978  0.69274  1.0000
  H   H413      1.0  0.13939  0.64122  0.71179  1.0000
  C   C353      1.0  0.23897  0.64323  0.00320  1.0000
  C   C354      1.0  0.18481  0.55361  0.71778  1.0000
  C   C355      1.0  0.38814  0.56912  0.77994  1.0000
  H   H414      1.0  0.38074  0.77958  0.76960  1.0000
  H   H415      1.0  0.48837  0.73887  0.81783  1.0000
  H   H416      1.0  0.24688  0.60106  0.72963  1.0000
  C   C356      1.0  0.35682  0.61460  0.92743  1.0000
  C   C357      1.0  0.49773  0.75575  0.98318  1.0000
  C   C358      1.0  0.15095  0.64536  0.72889  1.0000
  N   N21       1.0  0.45627  0.57153  0.56622  1.0000
  H   H417      1.0  0.43230  0.61864  0.75861  1.0000
  H   H418      1.0  0.51187  0.63706  0.52687  1.0000
  N   N22       1.0  0.13976  0.62991  0.75109  1.0000
  H   H419      1.0  0.18564  0.66272  0.75828  1.0000
  C   C359      1.0  0.17730  0.65253  0.77504  1.0000
  C   C360      1.0  0.15439  0.63506  0.77444  1.0000
  C   C361      1.0  0.31646  0.66860  0.98176  1.0000
  H   H420      1.0  0.52745  0.65044  0.65974  1.0000
  C   C362      1.0  0.21967  0.56849  0.74328  1.0000
  H   H421      1.0  0.42388  0.60619  0.71627  1.0000
  C   C363      1.0  0.52756  0.69467  0.63831  1.0000
  C   C364      1.0  0.13362  0.60650  0.74226  1.0000
  H   H422      1.0  0.12239  0.60193  0.72489  1.0000
  H   H423      1.0  0.16649  0.64389  0.72211  1.0000
  H   H424      1.0  0.49612  0.61130  0.56363  1.0000
  H   H425      1.0  0.20380  0.61164  0.52992  1.0000
  H   H426      1.0  0.17461  0.54063  0.73240  1.0000
  C   C365      1.0  0.54589  0.69467  0.65302  1.0000
  H   H427      1.0  0.27136  0.60650  0.00687  1.0000
  H   H428      1.0  0.36883  0.65874  0.92786  1.0000
  H   H429      1.0  0.17626  0.57425  0.52154  1.0000
  C   C366      1.0  0.54312  0.60372  0.55548  1.0000
  C   C367      1.0  0.22035  0.57444  0.69561  1.0000
  H   H430      1.0  0.41854  0.54890  0.72373  1.0000
  H   H431      1.0  0.14921  0.60468  0.73691  1.0000
  C   C368      1.0  0.35499  0.69874  0.97701  1.0000
  H   H432      1.0  0.43368  0.74590  0.78691  1.0000
  C   C369      1.0  0.21051  0.55601  0.76648  1.0000
  N   N23       1.0  0.45837  0.74229  0.82970  1.0000
  H   H433      1.0  0.08257  0.53219  0.69391  1.0000
  H   H434      1.0  0.12886  0.60825  0.79838  1.0000
  C   C370      1.0  0.14588  0.62215  0.79751  1.0000
  H   H435      1.0  0.19579  0.53958  0.76610  1.0000
  H   H436      1.0  0.40065  0.75165  0.93850  1.0000
  N   N24       1.0  0.36591  0.72533  0.93796  1.0000
  H   H437      1.0  0.31856  0.60923  0.90428  1.0000
  H   H438      1.0  0.48603  0.69386  0.95755  1.0000
  C   C371      1.0  0.44928  0.76092  0.79112  1.0000
  H   H439      1.0  0.37337  0.55104  0.73126  1.0000
  C   C372      1.0  0.49987  0.73583  0.97908  1.0000
  S   S104      1.0  0.43229  0.77572  0.90032  1.0000
  C   C373      1.0  0.19055  0.65688  0.79749  1.0000
  C   C374      1.0  0.15940  0.62652  0.81973  1.0000
  C   C375      1.0  0.54330  0.64221  0.60968  1.0000
  H   H440      1.0  0.43997  0.59114  0.58137  1.0000
  C   C376      1.0  0.46371  0.76181  0.81212  1.0000
  H   H441      1.0  0.19232  0.64671  0.83675  1.0000
  N   N25       1.0  0.23308  0.77912  0.57707  1.0000
  N   N26       1.0  0.54140  0.68302  0.67849  1.0000
  H   H442      1.0  0.26391  0.69302  0.00290  1.0000
  H   H443      1.0  0.20817  0.66986  0.79738  1.0000
  H   H444      1.0  0.21200  0.56687  0.67683  1.0000
  C   C377      1.0  0.36874  0.71769  0.91162  1.0000
  C   C378      1.0  0.18164  0.64390  0.81975  1.0000
  H   H445      1.0  0.37173  0.56568  0.81727  1.0000
  H   H446      1.0  0.47540  0.72420  0.84746  1.0000
  C   C379      1.0  0.08415  0.68441  0.51673  1.0000
  C   C380      1.0  0.36558  0.64220  0.00431  1.0000
  C   C381      1.0  0.31042  0.67484  0.95834  1.0000
  H   H447      1.0  0.52726  0.71608  0.96372  1.0000
  H   H448      1.0  0.30677  0.61821  0.93050  1.0000
  C   C382      1.0  0.41514  0.55575  0.74221  1.0000
  H   H449      1.0  0.30118  0.71025  0.98020  1.0000
  H   H450      1.0  0.40132  0.54115  0.75232  1.0000
  H   H451      1.0  0.24611  0.59238  0.81151  1.0000
  H   H452      1.0  0.49859  0.76648  0.96681  1.0000
  H   H453      1.0  0.34862  0.64647  0.90256  1.0000
  H   H454      1.0  0.21236  0.55512  0.80830  1.0000
  C   C383      1.0  0.35734  0.74262  0.93541  1.0000
  C   C384      1.0  0.31865  0.61078  0.92588  1.0000
  C   C385      1.0  0.35040  0.64779  0.92399  1.0000
  C   C386      1.0  0.34286  0.62748  0.96469  1.0000
  H   H455      1.0  0.35614  0.61210  0.90598  1.0000
  H   H456      1.0  0.34035  0.73580  0.92590  1.0000
  H   H457      1.0  0.35155  0.59777  0.93679  1.0000
  C   C387      1.0  0.38893  0.73668  0.94998  1.0000
  H   H458      1.0  0.26305  0.61486  0.77203  1.0000
  H   H459      1.0  0.32088  0.69733  0.92608  1.0000
  H   H460      1.0  0.35569  0.74943  0.95467  1.0000
  C   C388      1.0  0.50247  0.78016  0.89603  1.0000
  N   N27       1.0  0.34199  0.62507  0.93606  1.0000
  C   C389      1.0  0.38770  0.56565  0.72177  1.0000
  H   H461      1.0  0.21895  0.59062  0.69780  1.0000
  H   H462      1.0  0.34042  0.65668  0.93102  1.0000
  C   C390      1.0  0.32652  0.69314  0.94417  1.0000
  H   H463      1.0  0.22366  0.74440  0.56608  1.0000
  H   H464      1.0  0.06415  0.65879  0.54470  1.0000
  C   C391      1.0  0.53326  0.69494  0.69725  1.0000
  H   H465      1.0  0.43218  0.74662  0.85081  1.0000
  C   C392      1.0  0.52340  0.65931  0.67582  1.0000
  H   H466      1.0  0.38155  0.73187  0.89978  1.0000
  C   C393      1.0  0.47935  0.73976  0.83583  1.0000
  H   H467      1.0  0.37459  0.70422  0.91252  1.0000
  C   C394      1.0  0.24854  0.59826  0.77029  1.0000
  H   H468      1.0  0.36804  0.76873  0.87090  1.0000
  C   C395      1.0  0.52989  0.58098  0.54918  1.0000
  C   C396      1.0  0.39793  0.59956  0.81108  1.0000
  S   S105      1.0  0.41865  0.55236  0.65990  1.0000
  H   H469      1.0  0.51689  0.70409  0.60264  1.0000
  C   C397      1.0  0.41848  0.60646  0.77023  1.0000
  H   H470      1.0  0.50253  0.73193  0.95938  1.0000
  H   H471      1.0  0.54629  0.71284  0.70000  1.0000
  C   C398      1.0  0.49509  0.76217  0.00824  1.0000
  C   C399      1.0  0.16386  0.53184  0.58121  1.0000
  Fe  Fe54      1.0  0.41756  0.78131  0.86337  1.0000
  H   H472      1.0  0.35261  0.71082  0.90027  1.0000
  C   C400      1.0  0.26265  0.61707  0.00580  1.0000
  H   H473      1.0  0.50621  0.65818  0.67204  1.0000
  H   H474      1.0  0.46047  0.76292  0.86285  1.0000
  H   H475      1.0  0.48743  0.67034  0.97241  1.0000
  H   H476      1.0  0.42533  0.63157  0.80018  1.0000
  C   C401      1.0  0.41466  0.61423  0.79419  1.0000
  H   H477      1.0  0.19802  0.76049  0.56511  1.0000
  H   H478      1.0  0.43077  0.56159  0.75444  1.0000
  N   N28       1.0  0.20938  0.55890  0.71780  1.0000
  C   C402      1.0  0.15795  0.53375  0.60699  1.0000
  H   H479      1.0  0.22938  0.65299  0.00215  1.0000
  H   H480      1.0  0.47736  0.55465  0.55963  1.0000
  C   C403      1.0  0.45507  0.58204  0.51877  1.0000
  C   C404      1.0  0.32468  0.62017  0.00783  1.0000
  S   S106      1.0  0.14689  0.69137  0.51087  1.0000
  C   C405      1.0  0.22752  0.77281  0.60474  1.0000
  H   H481      1.0  0.43643  0.71021  0.97553  1.0000
  C   C406      1.0  0.48516  0.68579  0.97665  1.0000
  H   H482      1.0  0.43910  0.70574  0.83142  1.0000
  H   H483      1.0  0.37752  0.55149  0.77542  1.0000
  H   H484      1.0  0.23872  0.57841  0.69351  1.0000
  H   H485      1.0  0.18269  0.56911  0.72190  1.0000
  H   H486      1.0  0.42081  0.55593  0.55442  1.0000
  H   H487      1.0  0.52929  0.69326  0.97988  1.0000
  C   C407      1.0  0.23843  0.76164  0.56473  1.0000
  C   C408      1.0  0.21135  0.53766  0.71294  1.0000
  H   H488      1.0  0.22956  0.54077  0.71343  1.0000
  H   H489      1.0  0.46558  0.55118  0.59186  1.0000
  C   C409      1.0  0.43441  0.55122  0.56065  1.0000
  H   H490      1.0  0.43943  0.56693  0.51488  1.0000
  H   H491      1.0  0.51433  0.55650  0.51974  1.0000
  H   H492      1.0  0.05506  0.61284  0.60217  1.0000
  H   H493      1.0  0.52354  0.56847  0.56459  1.0000
  N   N29       1.0  0.50272  0.70112  0.99496  1.0000
  H   H494      1.0  0.24275  0.77382  0.61533  1.0000
  H   H495      1.0  0.25300  0.76038  0.57436  1.0000
  C   C410      1.0  0.43623  0.73036  0.00840  1.0000
  H   H496      1.0  0.53940  0.72045  0.99564  1.0000
  C   C411      1.0  0.30047  0.71294  0.00088  1.0000
  H   H497      1.0  0.24235  0.76522  0.54364  1.0000
  H   H498      1.0  0.47097  0.88175  0.46343  1.0000
  S   S107      1.0  0.45662  0.79279  0.13469  1.0000
  H   H499      1.0  0.52914  0.89645  0.48637  1.0000
  H   H500      1.0  0.46662  0.99137  0.39352  1.0000
  S   S108      1.0  0.41365  0.79393  0.16769  1.0000
  Fe  Fe55      1.0  0.44771  0.81924  0.15222  1.0000
  S   S109      1.0  0.47299  0.84968  0.17506  1.0000
  H   H501      1.0  0.49256  0.00378  0.32779  1.0000
  S   S110      1.0  0.43359  0.82504  0.11459  1.0000
  C   C412      1.0  0.48544  0.99694  0.39297  1.0000
  S   S111      1.0  0.35133  0.92351  0.48371  1.0000
  S   S112      1.0  0.39340  0.89474  0.47939  1.0000
  Fe  Fe56      1.0  0.46840  0.92940  0.35888  1.0000
  S   S113      1.0  0.48044  0.93560  0.31731  1.0000
  S   S114      1.0  0.44463  0.94247  0.37564  1.0000
  Fe  Fe57      1.0  0.49790  0.90604  0.37230  1.0000
  S   S115      1.0  0.51244  0.91005  0.33214  1.0000
  S   S116      1.0  0.50561  0.88828  0.40539  1.0000
  Fe  Fe58      1.0  0.51521  0.94527  0.33452  1.0000
  H   H502      1.0  0.32537  0.83806  0.47378  1.0000
  Fe  Fe59      1.0  0.47659  0.89982  0.31832  1.0000
  S   S117      1.0  0.45582  0.87002  0.29190  1.0000
  S   S118      1.0  0.50335  0.94188  0.37587  1.0000
  S   S119      1.0  0.46175  0.89309  0.35873  1.0000
  C   C413      1.0  0.40838  0.90890  0.45133  1.0000
  C   C414      1.0  0.42236  0.90099  0.43844  1.0000
  C   C415      1.0  0.43389  0.91149  0.41549  1.0000
  C   C416      1.0  0.43115  0.92970  0.40504  1.0000
  C   C417      1.0  0.41730  0.93771  0.41806  1.0000
  C   C418      1.0  0.40604  0.92743  0.44125  1.0000
  H   H503      1.0  0.42420  0.88664  0.44616  1.0000
  H   H504      1.0  0.44467  0.90531  0.40574  1.0000
  H   H505      1.0  0.41518  0.95185  0.41015  1.0000
  H   H506      1.0  0.39539  0.93374  0.45114  1.0000
  H   H507      1.0  0.24491  0.84771  0.44800  1.0000
  C   C419      1.0  0.51825  0.89940  0.50117  1.0000
  C   C420      1.0  0.26209  0.84963  0.44474  1.0000
  C   C421      1.0  0.46882  0.85458  0.20808  1.0000
  C   C422      1.0  0.44961  0.83954  0.22201  1.0000
  C   C423      1.0  0.44608  0.84456  0.24769  1.0000
  C   C424      1.0  0.46181  0.86449  0.25986  1.0000
  C   C425      1.0  0.48145  0.87922  0.24631  1.0000
  C   C426      1.0  0.48487  0.87430  0.22045  1.0000
  H   H508      1.0  0.43735  0.82411  0.21299  1.0000
  H   H509      1.0  0.43092  0.83300  0.25812  1.0000
  H   H510      1.0  0.49373  0.89459  0.25552  1.0000
  H   H511      1.0  0.49984  0.88599  0.20985  1.0000
  C   C427      1.0  0.33774  0.85417  0.46451  1.0000
  H   H512      1.0  0.30366  0.85173  0.50402  1.0000
  H   H513      1.0  0.46874  0.83479  0.35376  1.0000
  H   H514      1.0  0.32543  0.83782  0.40184  1.0000
  H   H515      1.0  0.35494  0.85452  0.46490  1.0000
  C   C428      1.0  0.33259  0.83842  0.42155  1.0000
  H   H516      1.0  0.35058  0.89290  0.44038  1.0000
  S   S120      1.0  0.45386  0.79287  0.05956  1.0000
  S   S121      1.0  0.38705  0.99030  0.48958  1.0000
  H   H517      1.0  0.48805  0.80902  0.34796  1.0000
  H   H518      1.0  0.32375  0.82134  0.43064  1.0000
  Fe  Fe60      1.0  0.40021  0.79764  0.12910  1.0000
  N   N30       1.0  0.33078  0.85625  0.43775  1.0000
  H   H519      1.0  0.47750  0.92446  0.22132  1.0000
  H   H520      1.0  0.45334  0.91296  0.26079  1.0000
  H   H521      1.0  0.36464  0.87951  0.42384  1.0000
  H   H522      1.0  0.32209  0.79368  0.13865  1.0000
  H   H523      1.0  0.52904  0.87570  0.44414  1.0000
  N   N31       1.0  0.41892  0.87092  0.16972  1.0000
  C   C429      1.0  0.43542  0.87850  0.14767  1.0000
  C   C430      1.0  0.41104  0.84620  0.17286  1.0000
  C   C431      1.0  0.39904  0.87483  0.16243  1.0000
  C   C432      1.0  0.42872  0.88275  0.19443  1.0000
  C   C433      1.0  0.41529  0.87683  0.21750  1.0000
  C   C434      1.0  0.45145  0.90041  0.19644  1.0000
  C   C435      1.0  0.42413  0.88770  0.24107  1.0000
  C   C436      1.0  0.45998  0.91138  0.22006  1.0000
  C   C437      1.0  0.44639  0.90498  0.24232  1.0000
  H   H524      1.0  0.44143  0.89680  0.14330  1.0000
  H   H525      1.0  0.45057  0.87541  0.15169  1.0000
  H   H526      1.0  0.42764  0.86905  0.12950  1.0000
  H   H527      1.0  0.42544  0.84267  0.17883  1.0000
  H   H528      1.0  0.40408  0.83687  0.15444  1.0000
  H   H529      1.0  0.39719  0.83842  0.18752  1.0000
  H   H530      1.0  0.39151  0.86651  0.14361  1.0000
  H   H531      1.0  0.38498  0.86777  0.17700  1.0000
  H   H532      1.0  0.40409  0.89329  0.16054  1.0000
  H   H533      1.0  0.39793  0.86352  0.21758  1.0000
  H   H534      1.0  0.46321  0.90578  0.18022  1.0000
  H   H535      1.0  0.47622  0.86607  0.48888  1.0000
  H   H536      1.0  0.51663  0.98435  0.29677  1.0000
  C   C438      1.0  0.51945  0.86758  0.29125  1.0000
  H   H537      1.0  0.31684  0.88863  0.45240  1.0000
  H   H538      1.0  0.35071  0.84149  0.41905  1.0000
  H   H539      1.0  0.41389  0.88242  0.25866  1.0000
  C   C439      1.0  0.30309  0.87255  0.44693  1.0000
  H   H540      1.0  0.28047  0.81105  0.49266  1.0000
  H   H541      1.0  0.52286  0.99945  0.37063  1.0000
  H   H542      1.0  0.33872  0.86835  0.47707  1.0000
  C   C440      1.0  0.44052  0.79473  0.03055  1.0000
  C   C441      1.0  0.34734  0.87858  0.42698  1.0000
  C   C442      1.0  0.42009  0.79674  0.03089  1.0000
  H   H543      1.0  0.25071  0.81475  0.43428  1.0000
  C   C443      1.0  0.28088  0.87032  0.44969  1.0000
  C   C444      1.0  0.53485  0.89596  0.40960  1.0000
  H   H544      1.0  0.52020  0.91804  0.45601  1.0000
  C   C445      1.0  0.50856  0.92064  0.47010  1.0000
  C   C446      1.0  0.30721  0.85413  0.43867  1.0000
  C   C447      1.0  0.28759  0.83317  0.43401  1.0000
  C   C448      1.0  0.48047  0.82707  0.30684  1.0000
  C   C449      1.0  0.26543  0.83110  0.43692  1.0000
  C   C450      1.0  0.48440  0.84885  0.34546  1.0000
  S   S122      1.0  0.36760  0.80091  0.12719  1.0000
  H   H545      1.0  0.49526  0.85848  0.36203  1.0000
  H   H546      1.0  0.53516  0.86896  0.35473  1.0000
  H   H547      1.0  0.48608  0.97932  0.34727  1.0000
  C   C451      1.0  0.48462  0.88051  0.47515  1.0000
  H   H548      1.0  0.34134  0.88214  0.40815  1.0000
  C   C452      1.0  0.39366  0.01681  0.50433  1.0000
  H   H549      1.0  0.51745  0.02045  0.28146  1.0000
  C   C453      1.0  0.50329  0.82478  0.34192  1.0000
  H   H550      1.0  0.46626  0.99125  0.34593  1.0000
  H   H551      1.0  0.28883  0.81788  0.42893  1.0000
  Fe  Fe61      1.0  0.43935  0.79626  0.09846  1.0000
  H   H552      1.0  0.49331  0.00675  0.41085  1.0000
  C   C454      1.0  0.53078  0.00039  0.30188  1.0000
  H   H553      1.0  0.47893  0.86046  0.33526  1.0000
  H   H554      1.0  0.27824  0.88443  0.45703  1.0000
  S   S123      1.0  0.23235  0.78225  0.49019  1.0000
  C   C455      1.0  0.51739  0.86004  0.31743  1.0000
  H   H555      1.0  0.47305  0.83716  0.29677  1.0000
  N   N32       1.0  0.49671  0.84046  0.32752  1.0000
  N   N33       1.0  0.49608  0.01023  0.36914  1.0000
  C   C456      1.0  0.53131  0.02081  0.29316  1.0000
  H   H556      1.0  0.49502  0.87606  0.46118  1.0000
  H   H557      1.0  0.54625  0.91748  0.37583  1.0000
  H   H558      1.0  0.48749  0.98105  0.39385  1.0000
  Fe  Fe62      1.0  0.37540  0.91171  0.50144  1.0000
  C   C457      1.0  0.48481  0.99560  0.34652  1.0000
  H   H559      1.0  0.46553  0.81201  0.31483  1.0000
  H   H560      1.0  0.49520  0.92210  0.45808  1.0000
  H   H561      1.0  0.50606  0.85947  0.27716  1.0000
  N   N34       1.0  0.49880  0.90185  0.48923  1.0000
  H   H562      1.0  0.41260  0.79798  0.04924  1.0000
  H   H563      1.0  0.51852  0.93720  0.47996  1.0000
  H   H564      1.0  0.52960  0.02377  0.35116  1.0000
  H   H565      1.0  0.46129  0.90927  0.47945  1.0000
  C   C458      1.0  0.52060  0.01521  0.36921  1.0000
  H   H566      1.0  0.51445  0.81979  0.32977  1.0000
  C   C459      1.0  0.27203  0.82102  0.49918  1.0000
  H   H567      1.0  0.48893  0.82092  0.29212  1.0000
  H   H568      1.0  0.52984  0.02653  0.38564  1.0000
  H   H569      1.0  0.54001  0.89216  0.26262  1.0000
  C   C460      1.0  0.24798  0.81082  0.50084  1.0000
  C   C461      1.0  0.53898  0.88651  0.28256  1.0000
  C   C462      1.0  0.54167  0.88725  0.43082  1.0000
  C   C463      1.0  0.28525  0.84410  0.50540  1.0000
  H   H570      1.0  0.51261  0.83238  0.36016  1.0000
  C   C464      1.0  0.53589  0.87285  0.33427  1.0000
  C   C465      1.0  0.46533  0.90969  0.49984  1.0000
  H   H571      1.0  0.47383  0.02822  0.40269  1.0000
  Fe  Fe63      1.0  0.37005  0.95513  0.50782  1.0000
  C   C466      1.0  0.48428  0.90637  0.50834  1.0000
  N   N35       1.0  0.39831  0.81280  0.78651  1.0000
  Fe  Fe64      1.0  0.52229  0.93022  0.65417  1.0000
  S   S124      1.0  0.52561  0.93974  0.69619  1.0000
  H   H572      1.0  0.43437  0.97030  0.58247  1.0000
  Fe  Fe65      1.0  0.47076  0.90534  0.65715  1.0000
  S   S125      1.0  0.46898  0.91330  0.69930  1.0000
  S   S126      1.0  0.44151  0.88441  0.63106  1.0000
  Fe  Fe66      1.0  0.49644  0.94805  0.68883  1.0000
  S   S127      1.0  0.49575  0.98039  0.70203  1.0000
  Fe  Fe67      1.0  0.49818  0.90442  0.70377  1.0000
  S   S128      1.0  0.50157  0.88334  0.73668  1.0000
  S   S129      1.0  0.49495  0.94094  0.64622  1.0000
  S   S130      1.0  0.49805  0.89385  0.66216  1.0000
  C   C467      1.0  0.44660  0.98498  0.59286  1.0000
  H   H573      1.0  0.47502  0.95590  0.75419  1.0000
  Fe  Fe68      1.0  0.44315  0.83265  0.86665  1.0000
  S   S131      1.0  0.40825  0.80738  0.87999  1.0000
  S   S132      1.0  0.44519  0.86219  0.84239  1.0000
  Fe  Fe69      1.0  0.42529  0.80371  0.91631  1.0000
  H   H574      1.0  0.52982  0.91493  0.51201  1.0000
  H   H575      1.0  0.44794  0.79427  0.96480  1.0000
  S   S133      1.0  0.45949  0.83205  0.90492  1.0000
  H   H576      1.0  0.52863  0.95051  0.76138  1.0000
  Fe  Fe70      1.0  0.37057  0.92789  0.55507  1.0000
  S   S134      1.0  0.34604  0.94100  0.54170  1.0000
  S   S135      1.0  0.38426  0.93533  0.59572  1.0000
  H   H577      1.0  0.54076  0.98371  0.71347  1.0000
  C   C468      1.0  0.29156  0.82937  0.56402  1.0000
  H   H578      1.0  0.47572  0.90987  0.57392  1.0000
  H   H579      1.0  0.40777  0.84499  0.80506  1.0000
  C   C469      1.0  0.39256  0.82824  0.80263  1.0000
  C   C470      1.0  0.51023  0.98149  0.58251  1.0000
  C   C471      1.0  0.52624  0.98984  0.60255  1.0000
  S   S136      1.0  0.40580  0.79760  0.95441  1.0000
  H   H580      1.0  0.51227  0.88465  0.51466  1.0000
  C   C472      1.0  0.48786  0.80182  0.80088  1.0000
  H   H581      1.0  0.40712  0.79930  0.82043  1.0000
  C   C473      1.0  0.40215  0.83990  0.72025  1.0000
  H   H582      1.0  0.43682  0.98607  0.54104  1.0000
  H   H583      1.0  0.38676  0.82128  0.82249  1.0000
  H   H584      1.0  0.50202  0.96346  0.57827  1.0000
  H   H585      1.0  0.43622  0.91523  0.51049  1.0000
  C   C474      1.0  0.42585  0.89876  0.62115  1.0000
  C   C475      1.0  0.42677  0.91725  0.63534  1.0000
  C   C476      1.0  0.41367  0.92819  0.62756  1.0000
  C   C477      1.0  0.40022  0.92115  0.60517  1.0000
  C   C478      1.0  0.39971  0.90298  0.59066  1.0000
  C   C479      1.0  0.41224  0.89156  0.59889  1.0000
  H   H586      1.0  0.43717  0.92281  0.65260  1.0000
  H   H587      1.0  0.41404  0.94222  0.63885  1.0000
  H   H588      1.0  0.38936  0.89745  0.57338  1.0000
  H   H589      1.0  0.41151  0.87725  0.58790  1.0000
  C   C480      1.0  0.48550  0.87762  0.76575  1.0000
  C   C481      1.0  0.48986  0.86539  0.78541  1.0000
  C   C482      1.0  0.47756  0.86053  0.80891  1.0000
  C   C483      1.0  0.46093  0.86808  0.81305  1.0000
  C   C484      1.0  0.45645  0.88022  0.79335  1.0000
  C   C485      1.0  0.46852  0.88478  0.76966  1.0000
  H   H590      1.0  0.50300  0.85985  0.78256  1.0000
  H   H591      1.0  0.48137  0.85141  0.82404  1.0000
  H   H592      1.0  0.44340  0.88587  0.79631  1.0000
  H   H593      1.0  0.46453  0.89359  0.75435  1.0000
  C   C486      1.0  0.45468  0.91332  0.54405  1.0000
  C   C487      1.0  0.27458  0.85742  0.51301  1.0000
  C   C488      1.0  0.52138  0.02047  0.77604  1.0000
  C   C489      1.0  0.25201  0.80242  0.57526  1.0000
  H   H594      1.0  0.49716  0.95265  0.82071  1.0000
  H   H595      1.0  0.51906  0.90283  0.60791  1.0000
  H   H596      1.0  0.24211  0.85727  0.52109  1.0000
  C   C490      1.0  0.50478  0.99620  0.56799  1.0000
  C   C491      1.0  0.28780  0.84742  0.57281  1.0000
  C   C492      1.0  0.53704  0.01333  0.60889  1.0000
  H   H597      1.0  0.50162  0.90431  0.54409  1.0000
  C   C493      1.0  0.47715  0.94961  0.77360  1.0000
  H   H598      1.0  0.46689  0.93083  0.77300  1.0000
  C   C494      1.0  0.41458  0.80740  0.80150  1.0000
  H   H599      1.0  0.41925  0.79531  0.79095  1.0000
  H   H600      1.0  0.47767  0.81488  0.76780  1.0000
  H   H601      1.0  0.49122  0.92673  0.80376  1.0000
  H   H602      1.0  0.45826  0.01480  0.53648  1.0000
  C   C495      1.0  0.37731  0.79118  0.78271  1.0000
  H   H603      1.0  0.52036  0.87918  0.57091  1.0000
  H   H604      1.0  0.30121  0.86469  0.57109  1.0000
  C   C496      1.0  0.51543  0.01937  0.57332  1.0000
  C   C497      1.0  0.44002  0.00409  0.54175  1.0000
  C   C498      1.0  0.42455  0.84552  0.71269  1.0000
  H   H605      1.0  0.40538  0.99854  0.59340  1.0000
  H   H606      1.0  0.54135  0.81711  0.55325  1.0000
  C   C499      1.0  0.53446  0.90827  0.59631  1.0000
  C   C500      1.0  0.53518  0.89494  0.57530  1.0000
  H   H607      1.0  0.26364  0.85754  0.58940  1.0000
  H   H608      1.0  0.44242  0.82683  0.76460  1.0000
  H   H609      1.0  0.43113  0.85408  0.69431  1.0000
  N   N36       1.0  0.50164  0.95636  0.77929  1.0000
  H   H610      1.0  0.50246  0.81790  0.80517  1.0000
  H   H611      1.0  0.49228  0.98961  0.55258  1.0000
  C   C501      1.0  0.40754  0.82367  0.76111  1.0000
  H   H612      1.0  0.43039  0.82294  0.80630  1.0000
  H   H613      1.0  0.44318  0.91564  0.55767  1.0000
  C   C502      1.0  0.44887  0.00705  0.58764  1.0000
  S   S137      1.0  0.39558  0.94401  0.52281  1.0000
  S   S138      1.0  0.35248  0.89410  0.53534  1.0000
  H   H614      1.0  0.37873  0.83144  0.79403  1.0000
  C   C503      1.0  0.47528  0.99931  0.62657  1.0000
  S   S139      1.0  0.45141  0.80661  0.84789  1.0000
  C   C504      1.0  0.40993  0.99585  0.57326  1.0000
  C   C505      1.0  0.26654  0.84335  0.58304  1.0000
  C   C506      1.0  0.50721  0.99710  0.77523  1.0000
  C   C507      1.0  0.48289  0.78304  0.81683  1.0000
  C   C508      1.0  0.50259  0.94536  0.80407  1.0000
  C   C509      1.0  0.51064  0.94733  0.75816  1.0000
  N   N37       1.0  0.43451  0.01045  0.56756  1.0000
  S   S140      1.0  0.50015  0.80480  0.88745  1.0000
  C   C510      1.0  0.48781  0.90680  0.53565  1.0000
  H   H615      1.0  0.50053  0.92868  0.75583  1.0000
  H   H616      1.0  0.48978  0.99194  0.76924  1.0000
  C   C511      1.0  0.43857  0.84038  0.72889  1.0000
  Fe  Fe71      1.0  0.46535  0.80402  0.88668  1.0000
  H   H617      1.0  0.45739  0.96421  0.61587  1.0000
  H   H618      1.0  0.52988  0.97750  0.61272  1.0000
  C   C512      1.0  0.40962  0.79765  0.00740  1.0000
  C   C513      1.0  0.39371  0.82915  0.74408  1.0000
  H   H619      1.0  0.40516  0.97753  0.57114  1.0000
  C   C514      1.0  0.43035  0.82969  0.75280  1.0000
  H   H620      1.0  0.27790  0.79416  0.55708  1.0000
  C   C515      1.0  0.47310  0.91015  0.55312  1.0000
  S   S141      1.0  0.29049  0.88702  0.51912  1.0000
  H   H621      1.0  0.53795  0.79418  0.88470  1.0000
  H   H622      1.0  0.39137  0.84410  0.70760  1.0000
  H   H623      1.0  0.30804  0.83276  0.55565  1.0000
  C   C516      1.0  0.44003  0.79479  0.98314  1.0000
  C   C517      1.0  0.41963  0.79683  0.98347  1.0000
  C   C518      1.0  0.27396  0.80718  0.56497  1.0000
  C   C519      1.0  0.45964  0.98126  0.61203  1.0000
  H   H624      1.0  0.45615  0.84519  0.72309  1.0000
  C   C520      1.0  0.24896  0.82120  0.58456  1.0000
  C   C521      1.0  0.52224  0.00351  0.70923  1.0000
  C   C522      1.0  0.54169  0.00039  0.71403  1.0000
  C   C523      1.0  0.51583  0.98124  0.78097  1.0000
  H   H625      1.0  0.51999  0.94718  0.80827  1.0000
  H   H626      1.0  0.39853  0.99909  0.55969  1.0000
  H   H627      1.0  0.54013  0.99296  0.65456  1.0000
  H   H628      1.0  0.48502  0.99622  0.64172  1.0000
  H   H629      1.0  0.51009  0.95536  0.73941  1.0000
  H   H630      1.0  0.37633  0.82542  0.74922  1.0000
  H   H631      1.0  0.46926  0.95604  0.78868  1.0000
  C   C524      1.0  0.45082  0.91312  0.51747  1.0000
  H   H632      1.0  0.36639  0.00427  0.53257  1.0000
  C   C525      1.0  0.38084  0.01910  0.52499  1.0000
  H   H633      1.0  0.39403  0.79959  0.00773  1.0000
  H   H634      1.0  0.52909  0.02491  0.65631  1.0000
  H   H635      1.0  0.21583  0.78286  0.54335  1.0000
  H   H636      1.0  0.23288  0.81896  0.59286  1.0000
  H   H637      1.0  0.49384  0.78564  0.83344  1.0000
  H   H638      1.0  0.36303  0.79377  0.77431  1.0000
  C   C526      1.0  0.46536  0.02520  0.60247  1.0000
  H   H639      1.0  0.50884  0.02798  0.70678  1.0000
  C   C527      1.0  0.52384  0.02543  0.71035  1.0000
  C   C528      1.0  0.53941  0.99032  0.78734  1.0000
  C   C529      1.0  0.47377  0.80019  0.78000  1.0000
  C   C530      1.0  0.25054  0.84713  0.51519  1.0000
  Fe  Fe72      1.0  0.32947  0.90800  0.51919  1.0000
  C   C531      1.0  0.47825  0.02125  0.62168  1.0000
  C   C532      1.0  0.53138  0.02788  0.59339  1.0000
  H   H640      1.0  0.42928  0.00614  0.52617  1.0000
  H   H641      1.0  0.46629  0.79242  0.00620  1.0000
  C   C533      1.0  0.45037  0.79368  0.00661  1.0000
  H   H642      1.0  0.22146  0.78404  0.61485  1.0000
  H   H643      1.0  0.20571  0.78910  0.57329  1.0000
  C   C534      1.0  0.54444  0.02876  0.78223  1.0000
  H   H644      1.0  0.21883  0.81645  0.51043  1.0000
  C   C535      1.0  0.23729  0.82393  0.50929  1.0000
  H   H645      1.0  0.37077  0.78197  0.80143  1.0000
  H   H646      1.0  0.51127  0.03084  0.56195  1.0000
  Fe  Fe73      1.0  0.72861  0.13184  0.45406  1.0000
  S   S142      1.0  0.76086  0.13196  0.46951  1.0000
  S   S143      1.0  0.72008  0.12913  0.41146  1.0000
  H   H647      1.0  0.67509  0.20643  0.09056  1.0000
  C   C536      1.0  0.57189  0.21826  0.23370  1.0000
  H   H648      1.0  0.95159  0.25639  0.50610  1.0000
  H   H649      1.0  0.70339  0.08001  0.42797  1.0000
  C   C537      1.0  0.63611  0.17711  0.06557  1.0000
  H   H650      1.0  0.57622  0.20702  0.18459  1.0000
  Fe  Fe74      1.0  0.60588  0.12175  0.35390  1.0000
  S   S144      1.0  0.60722  0.15556  0.34521  1.0000
  S   S145      1.0  0.62002  0.11831  0.39261  1.0000
  Fe  Fe75      1.0  0.57327  0.09930  0.30933  1.0000
  S   S146      1.0  0.57200  0.13159  0.29736  1.0000
  H   H651      1.0  0.61325  0.23332  0.25509  1.0000
  Fe  Fe76      1.0  0.60997  0.14752  0.30326  1.0000
  S   S147      1.0  0.63651  0.17615  0.27912  1.0000
  Fe  Fe77      1.0  0.56937  0.13677  0.34013  1.0000
  N   N38       1.0  0.59372  0.22429  0.21960  1.0000
  S   S148      1.0  0.61176  0.11484  0.31239  1.0000
  S   S149      1.0  0.56764  0.10331  0.35150  1.0000
  Fe  Fe78      1.0  0.63981  0.21995  0.13842  1.0000
  S   S150      1.0  0.67709  0.24085  0.12932  1.0000
  S   S151      1.0  0.62365  0.18561  0.15819  1.0000
  Fe  Fe79      1.0  0.62602  0.25192  0.10911  1.0000
  H   H652      1.0  0.58612  0.27762  0.16590  1.0000
  S   S152      1.0  0.59559  0.25593  0.09570  1.0000
  Fe  Fe80      1.0  0.66556  0.24419  0.08912  1.0000
  S   S153      1.0  0.68424  0.24150  0.05328  1.0000
  S   S154      1.0  0.88951  0.26769  0.47870  1.0000
  H   H653      1.0  0.57935  0.15879  0.41490  1.0000
  S   S155      1.0  0.62885  0.22065  0.09728  1.0000
  S   S156      1.0  0.63383  0.24950  0.15085  1.0000
  H   H654      1.0  0.61933  0.14105  0.44324  1.0000
  H   H655      1.0  0.68627  0.17362  0.06363  1.0000
  H   H656      1.0  0.97964  0.24953  0.44649  1.0000
  H   H657      1.0  0.62634  0.22528  0.22854  1.0000
  C   C538      1.0  0.81670  0.21369  0.50193  1.0000
  C   C539      1.0  0.67245  0.24377  0.02336  1.0000
  C   C540      1.0  0.57637  0.15591  0.43622  1.0000
  H   H658      1.0  0.64451  0.24822  0.04028  1.0000
  C   C541      1.0  0.66572  0.18880  0.09807  1.0000
  C   C542      1.0  0.57516  0.11881  0.43425  1.0000
  C   C543      1.0  0.62798  0.14299  0.10831  1.0000
  H   H659      1.0  0.60629  0.11726  0.13515  1.0000
  H   H660      1.0  0.56138  0.27113  0.09094  1.0000
  C   C544      1.0  0.62458  0.26506  0.21393  1.0000
  C   C545      1.0  0.62760  0.18312  0.19174  1.0000
  C   C546      1.0  0.64585  0.19997  0.20516  1.0000
  C   C547      1.0  0.64852  0.19746  0.23189  1.0000
  C   C548      1.0  0.63275  0.17833  0.24546  1.0000
  C   C549      1.0  0.61441  0.16157  0.23206  1.0000
  C   C550      1.0  0.61200  0.16387  0.20524  1.0000
  H   H661      1.0  0.65803  0.21484  0.19493  1.0000
  H   H662      1.0  0.66278  0.21049  0.24211  1.0000
  H   H663      1.0  0.60221  0.14672  0.24229  1.0000
  H   H664      1.0  0.59787  0.15073  0.19497  1.0000
  H   H665      1.0  0.64322  0.19457  0.05726  1.0000
  C   C551      1.0  0.63948  0.10991  0.08874  1.0000
  H   H666      1.0  0.82129  0.19366  0.47156  1.0000
  H   H667      1.0  0.94352  0.23659  0.46410  1.0000
  S   S157      1.0  0.70492  0.10444  0.48041  1.0000
  C   C552      1.0  0.59670  0.27412  0.17962  1.0000
  C   C553      1.0  0.67172  0.17638  0.05628  1.0000
  C   C554      1.0  0.62400  0.10472  0.10931  1.0000
  C   C555      1.0  0.82879  0.20975  0.48162  1.0000
  C   C556      1.0  0.69208  0.12545  0.40588  1.0000
  C   C557      1.0  0.67851  0.12599  0.42665  1.0000
  C   C558      1.0  0.65639  0.12354  0.42221  1.0000
  C   C559      1.0  0.64773  0.12081  0.39694  1.0000
  C   C560      1.0  0.66116  0.12009  0.37608  1.0000
  C   C561      1.0  0.68335  0.12239  0.38055  1.0000
  H   H668      1.0  0.68508  0.12838  0.44622  1.0000
  H   H669      1.0  0.64600  0.12380  0.43849  1.0000
  H   H670      1.0  0.65427  0.11736  0.35666  1.0000
  H   H671      1.0  0.69381  0.12190  0.36444  1.0000
  C   C562      1.0  0.61826  0.12123  0.11906  1.0000
  N   N39       1.0  0.65432  0.17233  0.07691  1.0000
  H   H672      1.0  0.66130  0.13457  0.06210  1.0000
  H   H673      1.0  0.86014  0.22308  0.45917  1.0000
  C   C563      1.0  0.86111  0.24757  0.48758  1.0000
  H   H674      1.0  0.67921  0.19423  0.04902  1.0000
  H   H675      1.0  0.57657  0.12005  0.41267  1.0000
  H   H676      1.0  0.63646  0.26274  0.22660  1.0000
  S   S158      1.0  0.66183  0.27566  0.09757  1.0000
  H   H677      1.0  0.55754  0.14811  0.43864  1.0000
  N   N40       1.0  0.58652  0.14145  0.44665  1.0000
  H   H678      1.0  0.58172  0.05817  0.31980  1.0000
  C   C564      1.0  0.60238  0.24741  0.20850  1.0000
  C   C565      1.0  0.56756  0.04212  0.31471  1.0000
  H   H679      1.0  0.66426  0.06396  0.41031  1.0000
  Fe  Fe81      1.0  0.76147  0.15875  0.49748  1.0000
  C   C566      1.0  0.64942  0.13170  0.07791  1.0000
  H   H680      1.0  0.02064  0.26186  0.44495  1.0000
  C   C567      1.0  0.67043  0.05273  0.41899  1.0000
  C   C568      1.0  0.61098  0.15209  0.43865  1.0000
  H   H681      1.0  0.61295  0.15473  0.41723  1.0000
  C   C569      1.0  0.70050  0.04770  0.44052  1.0000
  H   H682      1.0  0.55798  0.21721  0.22063  1.0000
  H   H683      1.0  0.60542  0.21217  0.18678  1.0000
  N   N41       1.0  0.68804  0.17801  0.32799  1.0000
  C   C570      1.0  0.68030  0.15793  0.31070  1.0000
  C   C571      1.0  0.66771  0.17641  0.34261  1.0000
  C   C572      1.0  0.69648  0.19878  0.31175  1.0000
  C   C573      1.0  0.70670  0.17896  0.34492  1.0000
  C   C574      1.0  0.72721  0.18027  0.33384  1.0000
  C   C575      1.0  0.70520  0.17856  0.37250  1.0000
  C   C576      1.0  0.74496  0.18084  0.34937  1.0000
  C   C577      1.0  0.72315  0.17935  0.38780  1.0000
  C   C578      1.0  0.74288  0.18029  0.37629  1.0000
  H   H684      1.0  0.67506  0.14207  0.32214  1.0000
  H   H685      1.0  0.66533  0.15594  0.29873  1.0000
  H   H686      1.0  0.69377  0.15899  0.29679  1.0000
  H   H687      1.0  0.65968  0.16054  0.35433  1.0000
  H   H688      1.0  0.65426  0.17612  0.32928  1.0000
  H   H689      1.0  0.67206  0.19126  0.35557  1.0000
  H   H690      1.0  0.71045  0.20028  0.29834  1.0000
  H   H691      1.0  0.68265  0.19895  0.29928  1.0000
  H   H692      1.0  0.70306  0.21430  0.32404  1.0000
  H   H693      1.0  0.72955  0.18055  0.31305  1.0000
  H   H694      1.0  0.69011  0.17691  0.38283  1.0000
  H   H695      1.0  0.76027  0.18132  0.34055  1.0000
  H   H696      1.0  0.72138  0.17814  0.40877  1.0000
  H   H697      1.0  0.75629  0.17997  0.38835  1.0000
  H   H698      1.0  0.62289  0.15516  0.11657  1.0000
  C   C579      1.0  0.69250  0.06186  0.42899  1.0000
  H   H699      1.0  0.61645  0.08787  0.11775  1.0000
  C   C580      1.0  0.85089  0.22651  0.47467  1.0000
  C   C581      1.0  0.94205  0.25128  0.45531  1.0000
  H   H700      1.0  0.68919  0.06046  0.50072  1.0000
  C   C582      1.0  0.01407  0.27244  0.45448  1.0000
  C   C583      1.0  0.60981  0.22179  0.23812  1.0000
  H   H701      1.0  0.65339  0.18921  0.11277  1.0000
  C   C584      1.0  0.65270  0.24698  0.02245  1.0000
  H   H702      1.0  0.57408  0.23103  0.24899  1.0000
  Fe  Fe82      1.0  0.67023  0.27060  0.13839  1.0000
  C   C585      1.0  0.69089  0.04519  0.50431  1.0000
  H   H703      1.0  0.62302  0.17584  0.08022  1.0000
  H   H704      1.0  0.61839  0.14686  0.48616  1.0000
  S   S159      1.0  0.54921  0.06693  0.28942  1.0000
  S   S160      1.0  0.73054  0.16010  0.47979  1.0000
  H   H705      1.0  0.58306  0.10776  0.44052  1.0000
  H   H706      1.0  0.71753  0.05502  0.44888  1.0000
  H   H707      1.0  0.64386  0.09697  0.08121  1.0000
  C   C586      1.0  0.99045  0.26554  0.45552  1.0000
  Fe  Fe83      1.0  0.73676  0.10593  0.49784  1.0000
  C   C587      1.0  0.64402  0.14899  0.08755  1.0000
  C   C588      1.0  0.56094  0.13174  0.48614  1.0000
  N   N42       1.0  0.95665  0.27281  0.46892  1.0000
  H   H708      1.0  0.56552  0.20138  0.24335  1.0000
  H   H709      1.0  0.62070  0.16892  0.44798  1.0000
  H   H710      1.0  0.67829  0.18470  0.10847  1.0000
  H   H711      1.0  0.58357  0.17272  0.44599  1.0000
  H   H712      1.0  0.57189  0.24001  0.18535  1.0000
  H   H713      1.0  0.58395  0.19017  0.20583  1.0000
  C   C589      1.0  0.58308  0.13880  0.47514  1.0000
  C   C590      1.0  0.60112  0.14223  0.49266  1.0000
  H   H714      1.0  0.62700  0.16496  0.04973  1.0000
  H   H715      1.0  0.92354  0.24731  0.45660  1.0000
  C   C591      1.0  0.94901  0.27012  0.49640  1.0000
  H   H716      1.0  0.66414  0.16542  0.03904  1.0000
  C   C592      1.0  0.58956  0.20771  0.19834  1.0000
  H   H717      1.0  0.93050  0.26589  0.49810  1.0000
  S   S161      1.0  0.54831  0.15267  0.35800  1.0000
  H   H718      1.0  0.60299  0.20419  0.24595  1.0000
  C   C593      1.0  0.98145  0.27920  0.46778  1.0000
  H   H719      1.0  0.94637  0.25232  0.43427  1.0000
  C   C594      1.0  0.58871  0.25264  0.19094  1.0000
  C   C595      1.0  0.54960  0.04170  0.29971  1.0000
  H   H720      1.0  0.55666  0.10986  0.43917  1.0000
  C   C596      1.0  0.59551  0.28143  0.10516  1.0000
  S   S162      1.0  0.73764  0.07265  0.50773  1.0000
  C   C597      1.0  0.71260  0.04631  0.50763  1.0000
  C   C598      1.0  0.84886  0.25164  0.50761  1.0000
  Fe  Fe84      1.0  0.70976  0.13248  0.50792  1.0000
  H   H721      1.0  0.70064  0.09174  0.59041  1.0000
  C   C599      1.0  0.58688  0.20261  0.83478  1.0000
  S   S163      1.0  0.67802  0.13071  0.52762  1.0000
  Fe  Fe85      1.0  0.65156  0.21401  0.85926  1.0000
  S   S164      1.0  0.66629  0.21352  0.89853  1.0000
  S   S165      1.0  0.62861  0.18081  0.83970  1.0000
  H   H722      1.0  0.77955  0.25108  0.89274  1.0000
  H   H723      1.0  0.76541  0.22904  0.58254  1.0000
  C   C600      1.0  0.59339  0.27795  0.86991  1.0000
  Fe  Fe86      1.0  0.69872  0.24099  0.88202  1.0000
  S   S166      1.0  0.73211  0.23946  0.88720  1.0000
  Fe  Fe87      1.0  0.65781  0.24201  0.90903  1.0000
  S   S167      1.0  0.64081  0.24693  0.94523  1.0000
  S   S168      1.0  0.68468  0.23948  0.84203  1.0000
  S   S169      1.0  0.64006  0.23997  0.87123  1.0000
  Fe  Fe88      1.0  0.63723  0.12322  0.66555  1.0000
  S   S170      1.0  0.61925  0.14392  0.65440  1.0000
  S   S171      1.0  0.67174  0.12901  0.65013  1.0000
  Fe  Fe89      1.0  0.59943  0.09383  0.70299  1.0000
  S   S172      1.0  0.57810  0.11201  0.69533  1.0000
  S   S173      1.0  0.59036  0.06378  0.72916  1.0000
  Fe  Fe90      1.0  0.58746  0.11062  0.65345  1.0000
  H   H724      1.0  0.70475  0.16160  0.75259  1.0000
  Fe  Fe91      1.0  0.61176  0.14364  0.69726  1.0000
  S   S174      1.0  0.61937  0.17689  0.71719  1.0000
  S   S175      1.0  0.60628  0.08995  0.66119  1.0000
  S   S176      1.0  0.63229  0.12541  0.70835  1.0000
  C   C601      1.0  0.62463  0.18022  0.80585  1.0000
  C   C602      1.0  0.61310  0.15920  0.79334  1.0000
  C   C603      1.0  0.61117  0.15799  0.76615  1.0000
  C   C604      1.0  0.62011  0.17788  0.75138  1.0000
  C   C605      1.0  0.63069  0.19898  0.76398  1.0000
  C   C606      1.0  0.63317  0.20016  0.79115  1.0000
  H   H725      1.0  0.60609  0.14375  0.80467  1.0000
  H   H726      1.0  0.60275  0.14168  0.75662  1.0000
  H   H727      1.0  0.63749  0.21442  0.75263  1.0000
  H   H728      1.0  0.64179  0.21645  0.80067  1.0000
  C   C607      1.0  0.65341  0.24603  0.97512  1.0000
  C   C608      1.0  0.64325  0.24817  0.99837  1.0000
  C   C609      1.0  0.67338  0.24320  0.97604  1.0000
  C   C610      1.0  0.59275  0.22390  0.82414  1.0000
  H   H729      1.0  0.68135  0.24159  0.95820  1.0000
  Fe  Fe92      1.0  0.67445  0.26546  0.85749  1.0000
  H   H730      1.0  0.74269  0.16693  0.57927  1.0000
  H   H731      1.0  0.57631  0.05351  0.60992  1.0000
  C   C611      1.0  0.55075  0.11422  0.60864  1.0000
  C   C612      1.0  0.75722  0.22167  0.56371  1.0000
  C   C613      1.0  0.58057  0.19852  0.86081  1.0000
  H   H732      1.0  0.68953  0.07189  0.61650  1.0000
  N   N43       1.0  0.67646  0.15796  0.77695  1.0000
  H   H733      1.0  0.72850  0.19329  0.86210  1.0000
  H   H734      1.0  0.59804  0.22701  0.80395  1.0000
  C   C614      1.0  0.65449  0.13944  0.78607  1.0000
  C   C615      1.0  0.55727  0.12929  0.51295  1.0000
  C   C616      1.0  0.67611  0.12897  0.56165  1.0000
  C   C617      1.0  0.65553  0.12525  0.57391  1.0000
  C   C618      1.0  0.65396  0.12493  0.60111  1.0000
  C   C619      1.0  0.67312  0.12875  0.61612  1.0000
  C   C620      1.0  0.69365  0.13229  0.60385  1.0000
  C   C621      1.0  0.69500  0.13199  0.57666  1.0000
  H   H735      1.0  0.64082  0.12281  0.56237  1.0000
  H   H736      1.0  0.63803  0.12211  0.61045  1.0000
  H   H737      1.0  0.70846  0.13514  0.61543  1.0000
  H   H738      1.0  0.71069  0.13436  0.56732  1.0000
  C   C622      1.0  0.71280  0.16426  0.83684  1.0000
  C   C623      1.0  0.65294  0.03971  0.58905  1.0000
  C   C624      1.0  0.56419  0.04086  0.72101  1.0000
  H   H739      1.0  0.76416  0.19257  0.59306  1.0000
  H   H740      1.0  0.62780  0.25036  0.99778  1.0000
  H   H741      1.0  0.71491  0.21652  0.83711  1.0000
  H   H742      1.0  0.66154  0.18109  0.77423  1.0000
  H   H743      1.0  0.58989  0.04484  0.63440  1.0000
  N   N44       1.0  0.74128  0.19719  0.56589  1.0000
  S   S177      1.0  0.78928  0.19282  0.51280  1.0000
  C   C625      1.0  0.59236  0.24128  0.83947  1.0000
  C   C626      1.0  0.73291  0.18876  0.53938  1.0000
  C   C627      1.0  0.72265  0.19393  0.58446  1.0000
  C   C628      1.0  0.72757  0.19918  0.61114  1.0000
  C   C629      1.0  0.69934  0.18550  0.57690  1.0000
  H   H744      1.0  0.59746  0.25741  0.82996  1.0000
  C   C630      1.0  0.68215  0.18198  0.59515  1.0000
  H   H745      1.0  0.64187  0.13232  0.77001  1.0000
  H   H746      1.0  0.55316  0.24356  0.58104  1.0000
  H   H747      1.0  0.74815  0.23148  0.55688  1.0000
  H   H748      1.0  0.59565  0.24411  0.91835  1.0000
  H   H749      1.0  0.57523  0.21173  0.89645  1.0000
  H   H750      1.0  0.55220  0.16603  0.61792  1.0000
  C   C631      1.0  0.82692  0.23476  0.51482  1.0000
  C   C632      1.0  0.68749  0.18658  0.62129  1.0000
  H   H751      1.0  0.56110  0.26233  0.90504  1.0000
  S   S178      1.0  0.74029  0.13248  0.52748  1.0000
  H   H752      1.0  0.66202  0.05584  0.53976  1.0000
  H   H753      1.0  0.69374  0.18073  0.55716  1.0000
  H   H754      1.0  0.58174  0.27698  0.85376  1.0000
  H   H755      1.0  0.66440  0.17480  0.58913  1.0000
  C   C633      1.0  0.68287  0.24209  0.00012  1.0000
  H   H756      1.0  0.56908  0.14169  0.63508  1.0000
  C   C634      1.0  0.71079  0.19951  0.83049  1.0000
  S   S179      1.0  0.56236  0.09654  0.62042  1.0000
  C   C635      1.0  0.68469  0.07770  0.59830  1.0000
  H   H757      1.0  0.68442  0.08303  0.54762  1.0000
  C   C636      1.0  0.71018  0.19530  0.62926  1.0000
  H   H758      1.0  0.81786  0.23806  0.53061  1.0000
  H   H759      1.0  0.75501  0.25035  0.82573  1.0000
  H   H760      1.0  0.72109  0.17029  0.53949  1.0000
  H   H761      1.0  0.54996  0.24498  0.87661  1.0000
  C   C637      1.0  0.76255  0.26823  0.82082  1.0000
  C   C638      1.0  0.57648  0.03831  0.61915  1.0000
  H   H762      1.0  0.65069  0.05391  0.62709  1.0000
  H   H763      1.0  0.73031  0.26814  0.81704  1.0000
  H   H764      1.0  0.61119  0.14221  0.53251  1.0000
  H   H765      1.0  0.65601  0.07486  0.55973  1.0000
  H   H766      1.0  0.76708  0.18541  0.56059  1.0000
  H   H767      1.0  0.69155  0.20173  0.79883  1.0000
  H   H768      1.0  0.64658  0.14568  0.80137  1.0000
  C   C639      1.0  0.68752  0.14844  0.75860  1.0000
  N   N45       1.0  0.58579  0.25575  0.88323  1.0000
  H   H769      1.0  0.77137  0.22466  0.54963  1.0000
  H   H770      1.0  0.61885  0.26377  0.89933  1.0000
  H   H771      1.0  0.71854  0.15397  0.84820  1.0000
  C   C640      1.0  0.69138  0.16824  0.79968  1.0000
  H   H772      1.0  0.65669  0.12507  0.79461  1.0000
  C   C641      1.0  0.57539  0.13327  0.52961  1.0000
  C   C642      1.0  0.55698  0.13571  0.61927  1.0000
  H   H773      1.0  0.58760  0.18931  0.82296  1.0000
  H   H774      1.0  0.66008  0.16632  0.74503  1.0000
  H   H775      1.0  0.69492  0.13782  0.80986  1.0000
  S   S180      1.0  0.69159  0.26946  0.89595  1.0000
  H   H776      1.0  0.74489  0.20596  0.61827  1.0000
  H   H777      1.0  0.68958  0.13395  0.76693  1.0000
  H   H778      1.0  0.55603  0.23336  0.90538  1.0000
  C   C643      1.0  0.58609  0.23772  0.86621  1.0000
  H   H779      1.0  0.67395  0.18295  0.63546  1.0000
  C   C644      1.0  0.71846  0.18636  0.84470  1.0000
  H   H780      1.0  0.67295  0.08525  0.60325  1.0000
  H   H781      1.0  0.69609  0.04388  0.59016  1.0000
  C   C645      1.0  0.67118  0.17434  0.76214  1.0000
  H   H782      1.0  0.69817  0.23963  0.00070  1.0000
  C   C646      1.0  0.75428  0.18503  0.57518  1.0000
  C   C647      1.0  0.77811  0.26655  0.88916  1.0000
  C   C648      1.0  0.69939  0.15524  0.81474  1.0000
  H   H783      1.0  0.71418  0.19865  0.64967  1.0000
  H   H784      1.0  0.74721  0.19118  0.52595  1.0000
  C   C649      1.0  0.64326  0.03972  0.61390  1.0000
  H   H785      1.0  0.67717  0.14178  0.74065  1.0000
  H   H786      1.0  0.68698  0.18879  0.75472  1.0000
  C   C650      1.0  0.69738  0.19071  0.80837  1.0000
  C   C651      1.0  0.56219  0.24878  0.89299  1.0000
  H   H787      1.0  0.57246  0.13132  0.55041  1.0000
  H   H788      1.0  0.55325  0.23593  0.54754  1.0000
  H   H789      1.0  0.60194  0.27334  0.91854  1.0000
  C   C652      1.0  0.74850  0.27868  0.81572  1.0000
  C   C653      1.0  0.58000  0.21571  0.87631  1.0000
  H   H790      1.0  0.85644  0.26766  0.51783  1.0000
  H   H791      1.0  0.57660  0.18205  0.86907  1.0000
  H   H792      1.0  0.79702  0.27300  0.82639  1.0000
  N   N46       1.0  0.67411  0.05893  0.57930  1.0000
  C   C654      1.0  0.75651  0.26581  0.88617  1.0000
  H   H793      1.0  0.70753  0.06490  0.56480  1.0000
  C   C655      1.0  0.60110  0.25934  0.90578  1.0000
  C   C656      1.0  0.66889  0.06850  0.55562  1.0000
  H   H794      1.0  0.72407  0.19799  0.53040  1.0000
  C   C657      1.0  0.69151  0.05097  0.57280  1.0000
  H   H795      1.0  0.55555  0.04687  0.78178  1.0000
  C   C658      1.0  0.59722  0.13953  0.51947  1.0000
  C   C659      1.0  0.78623  0.28097  0.82133  1.0000
  H   H796      1.0  0.55846  0.04259  0.66498  1.0000
  H   H797      1.0  0.68553  0.03745  0.55786  1.0000
  H   H798      1.0  0.54676  0.21490  0.57206  1.0000
  C   C660      1.0  0.54741  0.14947  0.60953  1.0000
  C   C661      1.0  0.54647  0.03576  0.64836  1.0000
  Fe  Fe93      1.0  0.93108  0.49071  0.36247  1.0000
  S   S181      1.0  0.96528  0.49060  0.36045  1.0000
  S   S182      1.0  0.92043  0.50028  0.40039  1.0000
  Fe  Fe94      1.0  0.91752  0.47058  0.30791  1.0000
  S   S183      1.0  0.95087  0.46904  0.30157  1.0000
  S   S184      1.0  0.88661  0.45618  0.28146  1.0000
  Fe  Fe95      1.0  0.94632  0.45619  0.34267  1.0000
  S   S185      1.0  0.95457  0.42761  0.35411  1.0000
  Fe  Fe96      1.0  0.96658  0.50352  0.32003  1.0000
  N   N47       1.0  0.79792  0.33682  0.03199  1.0000
  S   S186      1.0  0.91182  0.45516  0.34771  1.0000
  S   S187      1.0  0.93359  0.50634  0.32324  1.0000
  Fe  Fe97      1.0  0.63783  0.48913  0.36166  1.0000
  S   S188      1.0  0.60865  0.49610  0.37370  1.0000
  H   H799      1.0  0.69554  0.29563  0.04608  1.0000
  Fe  Fe98      1.0  0.60820  0.45245  0.32334  1.0000
  S   S189      1.0  0.57633  0.45603  0.33342  1.0000
  S   S190      1.0  0.60620  0.42598  0.29410  1.0000
  Fe  Fe99      1.0  0.60004  0.49333  0.33163  1.0000
  H   H800      1.0  0.72823  0.39521  0.07666  1.0000
  Fe  Fe100     1.0  0.58796  0.45826  0.37483  1.0000
  C   C662      1.0  0.67754  0.52456  0.40568  1.0000
  S   S191      1.0  0.63113  0.48964  0.31902  1.0000
  S   S192      1.0  0.61778  0.45137  0.36503  1.0000
  Fe  Fe101     1.0  0.84546  0.41365  0.08253  1.0000
  S   S193      1.0  0.85218  0.38937  0.10727  1.0000
  S   S194      1.0  0.86020  0.41936  0.04189  1.0000
  Fe  Fe102     1.0  0.81845  0.42232  0.12561  1.0000
  S   S195      1.0  0.82220  0.39819  0.15369  1.0000
  S   S196      1.0  0.80107  0.44398  0.13555  1.0000
  Fe  Fe103     1.0  0.85874  0.41405  0.14001  1.0000
  S   S197      1.0  0.88993  0.42494  0.16572  1.0000
  Fe  Fe104     1.0  0.81532  0.37589  0.11855  1.0000
  S   S198      1.0  0.79351  0.33860  0.11389  1.0000
  S   S199      1.0  0.85552  0.43982  0.11412  1.0000
  S   S200      1.0  0.80803  0.39848  0.09169  1.0000
  Fe  Fe105     1.0  0.64871  0.42509  0.15474  1.0000
  S   S201      1.0  0.68355  0.43170  0.13962  1.0000
  S   S202      1.0  0.64509  0.45200  0.17918  1.0000
  Fe  Fe106     1.0  0.62656  0.37739  0.13394  1.0000
  S   S203      1.0  0.65927  0.37924  0.11846  1.0000
  S   S204      1.0  0.59284  0.34715  0.12754  1.0000
  Fe  Fe107     1.0  0.67486  0.39721  0.15532  1.0000
  S   S205      1.0  0.69975  0.38856  0.17684  1.0000
  Fe  Fe108     1.0  0.66565  0.41341  0.10343  1.0000
  S   S206      1.0  0.68301  0.41908  0.06411  1.0000
  S   S207      1.0  0.64128  0.39159  0.17277  1.0000
  S   S208      1.0  0.63153  0.41049  0.11657  1.0000
  Fe  Fe109     1.0  0.91811  0.35391  0.47667  1.0000
  S   S209      1.0  0.92908  0.32982  0.45757  1.0000
  S   S210      1.0  0.90459  0.37569  0.45662  1.0000
  C   C663      1.0  0.55130  0.49992  0.33827  1.0000
  H   H801      1.0  0.75197  0.29977  0.10168  1.0000
  H   H802      1.0  0.61823  0.36147  0.08078  1.0000
  C   C664      1.0  0.70297  0.47752  0.28193  1.0000
  H   H803      1.0  0.77048  0.30401  0.04188  1.0000
  C   C665      1.0  0.60431  0.44733  0.49524  1.0000
  H   H804      1.0  0.93917  0.52115  0.48578  1.0000
  C   C666      1.0  0.63941  0.42828  0.01486  1.0000
  C   C667      1.0  0.77325  0.42863  0.14790  1.0000
  C   C668      1.0  0.76580  0.40666  0.15766  1.0000
  C   C669      1.0  0.74338  0.39467  0.16727  1.0000
  C   C670      1.0  0.72822  0.40439  0.16653  1.0000
  C   C671      1.0  0.73582  0.42646  0.15712  1.0000
  C   C672      1.0  0.75832  0.43861  0.14798  1.0000
  H   H805      1.0  0.77726  0.39888  0.15787  1.0000
  H   H806      1.0  0.73763  0.37769  0.17480  1.0000
  H   H807      1.0  0.72456  0.43439  0.15717  1.0000
  H   H808      1.0  0.76406  0.45566  0.14063  1.0000
  H   H809      1.0  0.64173  0.34442  0.07556  1.0000
  C   C673      1.0  0.61440  0.29863  0.11744  1.0000
  C   C674      1.0  0.61388  0.31905  0.12435  1.0000
  C   C675      1.0  0.59428  0.32197  0.11945  1.0000
  C   C676      1.0  0.57533  0.30457  0.10767  1.0000
  N   N48       1.0  0.92761  0.48486  0.48694  1.0000
  C   C677      1.0  0.58778  0.34235  0.04368  1.0000
  H   H810      1.0  0.62840  0.33229  0.13391  1.0000
  H   H811      1.0  0.56010  0.30669  0.10407  1.0000
  H   H812      1.0  0.60232  0.43622  0.44321  1.0000
  C   C678      1.0  0.73922  0.33170  0.15791  1.0000
  C   C679      1.0  0.76138  0.34034  0.14731  1.0000
  C   C680      1.0  0.76603  0.32867  0.12722  1.0000
  C   C681      1.0  0.74845  0.30879  0.11727  1.0000
  H   H813      1.0  0.73568  0.34036  0.17387  1.0000
  H   H814      1.0  0.77492  0.35571  0.15507  1.0000
  H   H815      1.0  0.83325  0.34308  0.03269  1.0000
  C   C682      1.0  0.83988  0.45840  0.18930  1.0000
  H   H816      1.0  0.58075  0.46970  0.20929  1.0000
  H   H817      1.0  0.79132  0.36618  0.03347  1.0000
  H   H818      1.0  0.81454  0.41635  0.03607  1.0000
  H   H819      1.0  0.65442  0.41631  0.27637  1.0000
  H   H820      1.0  0.55024  0.45831  0.21348  1.0000
  C   C683      1.0  0.66911  0.42183  0.03606  1.0000
  C   C684      1.0  0.64999  0.42607  0.03767  1.0000
  H   H821      1.0  0.78422  0.34973  0.06247  1.0000
  H   H822      1.0  0.64363  0.42808  0.05644  1.0000
  H   H823      1.0  0.69932  0.37254  0.04730  1.0000
  H   H824      1.0  0.70477  0.35988  0.13451  1.0000
  H   H825      1.0  0.75023  0.37305  0.08405  1.0000
  C   C685      1.0  0.61759  0.43369  0.26248  1.0000
  C   C686      1.0  0.61281  0.41660  0.24391  1.0000
  C   C687      1.0  0.62103  0.42206  0.21835  1.0000
  C   C688      1.0  0.63427  0.44468  0.21113  1.0000
  C   C689      1.0  0.63904  0.46181  0.22970  1.0000
  C   C690      1.0  0.63082  0.45635  0.25532  1.0000
  H   H826      1.0  0.60241  0.39904  0.24922  1.0000
  H   H827      1.0  0.61662  0.40876  0.20410  1.0000
  H   H828      1.0  0.64936  0.47936  0.22430  1.0000
  H   H829      1.0  0.63486  0.46965  0.26950  1.0000
  C   C691      1.0  0.72626  0.30050  0.12743  1.0000
  C   C692      1.0  0.62135  0.44495  0.44299  1.0000
  H   H830      1.0  0.70956  0.31874  0.08505  1.0000
  C   C693      1.0  0.94288  0.46653  0.45431  1.0000
  H   H831      1.0  0.69854  0.33325  0.12019  1.0000
  H   H832      1.0  0.68141  0.34723  0.11216  1.0000
  H   H833      1.0  0.88520  0.47214  0.19548  1.0000
  C   C694      1.0  0.02152  0.50762  0.31095  1.0000
  H   H834      1.0  0.00504  0.49327  0.31425  1.0000
  C   C695      1.0  0.94055  0.41289  0.38245  1.0000
  C   C696      1.0  0.94731  0.39767  0.39420  1.0000
  C   C697      1.0  0.93641  0.38609  0.41703  1.0000
  C   C698      1.0  0.91848  0.38946  0.42790  1.0000
  C   C699      1.0  0.91168  0.40453  0.41604  1.0000
  C   C700      1.0  0.92278  0.41633  0.39354  1.0000
  H   H835      1.0  0.96104  0.39490  0.38574  1.0000
  H   H836      1.0  0.94180  0.37452  0.42613  1.0000
  H   H837      1.0  0.89795  0.40733  0.42450  1.0000
  H   H838      1.0  0.91755  0.42811  0.38496  1.0000
  C   C701      1.0  0.88801  0.44577  0.25027  1.0000
  C   C702      1.0  0.90893  0.45145  0.23780  1.0000
  C   C703      1.0  0.90931  0.44455  0.21201  1.0000
  C   C704      1.0  0.88882  0.43199  0.19856  1.0000
  C   C705      1.0  0.86794  0.42570  0.21135  1.0000
  C   C706      1.0  0.86756  0.43256  0.23713  1.0000
  H   H839      1.0  0.92479  0.46175  0.24769  1.0000
  H   H840      1.0  0.92553  0.44939  0.20223  1.0000
  H   H841      1.0  0.85208  0.41565  0.20135  1.0000
  H   H842      1.0  0.85133  0.42793  0.24680  1.0000
  H   H843      1.0  0.01712  0.46639  0.35617  1.0000
  H   H844      1.0  0.72256  0.39474  0.11064  1.0000
  S   S211      1.0  0.59229  0.51962  0.31239  1.0000
  H   H845      1.0  0.64241  0.37756  0.05985  1.0000
  H   H846      1.0  0.62938  0.29620  0.12155  1.0000
  H   H847      1.0  0.58471  0.44345  0.23633  1.0000
  Fe  Fe110     1.0  0.90954  0.30538  0.48971  1.0000
  C   C707      1.0  0.56582  0.51771  0.32231  1.0000
  H   H848      1.0  0.82363  0.35140  0.06182  1.0000
  H   H849      1.0  0.73829  0.34825  0.10427  1.0000
  H   H850      1.0  0.57400  0.43811  0.26867  1.0000
  H   H851      1.0  0.74503  0.37511  0.11797  1.0000
  H   H852      1.0  0.61489  0.37889  0.01457  1.0000
  C   C708      1.0  0.62015  0.33385  0.04074  1.0000
  H   H853      1.0  0.55250  0.42392  0.46108  1.0000
  H   H854      1.0  0.70982  0.41585  0.26115  1.0000
  H   H855      1.0  0.89857  0.49078  0.47739  1.0000
  N   N49       1.0  0.91317  0.39740  0.28610  1.0000
  C   C709      1.0  0.91047  0.37762  0.30203  1.0000
  C   C710      1.0  0.93803  0.41117  0.28093  1.0000
  C   C711      1.0  0.90536  0.41159  0.30163  1.0000
  C   C712      1.0  0.89928  0.38956  0.26221  1.0000
  C   C713      1.0  0.90899  0.39451  0.23683  1.0000
  C   C714      1.0  0.87512  0.37671  0.26390  1.0000
  C   C715      1.0  0.89525  0.38716  0.21474  1.0000
  C   C716      1.0  0.86155  0.36963  0.24165  1.0000
  C   C717      1.0  0.87160  0.37492  0.21712  1.0000
  H   H856      1.0  0.91549  0.36608  0.29083  1.0000
  H   H857      1.0  0.92127  0.38305  0.31984  1.0000
  H   H858      1.0  0.89257  0.36754  0.30888  1.0000
  H   H859      1.0  0.94542  0.40126  0.27029  1.0000
  H   H860      1.0  0.94796  0.41707  0.29926  1.0000
  H   H861      1.0  0.94136  0.42675  0.26964  1.0000
  H   H862      1.0  0.90669  0.42642  0.29019  1.0000
  H   H863      1.0  0.88730  0.40226  0.30822  1.0000
  H   H864      1.0  0.91573  0.41809  0.31953  1.0000
  H   H865      1.0  0.92709  0.40446  0.23339  1.0000
  H   H866      1.0  0.86651  0.37234  0.28249  1.0000
  H   H867      1.0  0.90289  0.39174  0.19554  1.0000
  H   H868      1.0  0.84310  0.36029  0.24340  1.0000
  H   H869      1.0  0.86107  0.36996  0.19984  1.0000
  N   N50       1.0  0.63095  0.46656  0.45787  1.0000
  C   C718      1.0  0.61969  0.48047  0.44919  1.0000
  H   H870      1.0  0.62603  0.44777  0.42203  1.0000
  H   H871      1.0  0.04056  0.48829  0.31592  1.0000
  C   C719      1.0  0.94565  0.43710  0.49146  1.0000
  H   H872      1.0  0.90890  0.48025  0.45108  1.0000
  C   C720      1.0  0.94470  0.50810  0.47960  1.0000
  C   C721      1.0  0.63481  0.33223  0.06008  1.0000
  C   C722      1.0  0.82203  0.35045  0.04024  1.0000
  C   C723      1.0  0.95061  0.45062  0.44734  1.0000
  C   C724      1.0  0.57049  0.44269  0.24896  1.0000
  H   H873      1.0  0.94751  0.51012  0.45825  1.0000
  C   C725      1.0  0.61948  0.36451  0.01519  1.0000
  C   C726      1.0  0.93826  0.45321  0.49879  1.0000
  H   H874      1.0  0.59011  0.43934  0.48206  1.0000
  H   H875      1.0  0.04250  0.37131  0.45583  1.0000
  C   C727      1.0  0.78429  0.34849  0.04089  1.0000
  H   H876      1.0  0.93379  0.28624  0.45569  1.0000
  H   H877      1.0  0.60102  0.47214  0.45351  1.0000
  H   H878      1.0  0.66532  0.46978  0.45802  1.0000
  H   H879      1.0  0.94149  0.47709  0.43901  1.0000
  H   H880      1.0  0.66366  0.49654  0.45895  1.0000
  H   H881      1.0  0.66126  0.48426  0.50005  1.0000
  H   H882      1.0  0.83745  0.44635  0.17310  1.0000
  C   C728      1.0  0.61852  0.29097  0.18532  1.0000
  H   H883      1.0  0.71277  0.28530  0.11941  1.0000
  H   H884      1.0  0.59279  0.47844  0.28052  1.0000
  C   C729      1.0  0.59076  0.48212  0.25990  1.0000
  C   C730      1.0  0.62663  0.46198  0.48602  1.0000
  H   H885      1.0  0.84315  0.45077  0.20698  1.0000
  H   H886      1.0  0.69922  0.38447  0.08863  1.0000
  C   C731      1.0  0.64037  0.31407  0.06050  1.0000
  H   H887      1.0  0.67537  0.44063  0.20939  1.0000
  C   C732      1.0  0.04148  0.37525  0.47604  1.0000
  C   C733      1.0  0.78903  0.31462  0.04561  1.0000
  H   H888      1.0  0.68363  0.48020  0.31466  1.0000
  H   H889      1.0  0.55451  0.42858  0.24147  1.0000
  C   C734      1.0  0.02102  0.30668  0.47776  1.0000
  Fe  Fe111     1.0  0.95911  0.34435  0.48489  1.0000
  N   N51       1.0  0.71476  0.36189  0.09412  1.0000
  C   C735      1.0  0.73804  0.36465  0.10025  1.0000
  C   C736      1.0  0.71621  0.38501  0.09227  1.0000
  C   C737      1.0  0.69921  0.35007  0.11608  1.0000
  C   C738      1.0  0.70634  0.34821  0.07017  1.0000
  C   C739      1.0  0.70484  0.32605  0.06874  1.0000
  C   C740      1.0  0.69914  0.35606  0.04795  1.0000
  C   C741      1.0  0.69682  0.31266  0.04649  1.0000
  C   C742      1.0  0.69114  0.34250  0.02576  1.0000
  C   C743      1.0  0.82123  0.41559  0.01706  1.0000
  C   C744      1.0  0.72168  0.31171  0.14804  1.0000
  H   H890      1.0  0.03092  0.40854  0.44214  1.0000
  C   C745      1.0  0.93643  0.46832  0.48027  1.0000
  C   C746      1.0  0.63156  0.29701  0.04191  1.0000
  H   H891      1.0  0.71618  0.49483  0.28375  1.0000
  C   C747      1.0  0.01248  0.44581  0.39008  1.0000
  C   C748      1.0  0.68469  0.46933  0.29938  1.0000
  H   H892      1.0  0.71879  0.47064  0.24916  1.0000
  H   H893      1.0  0.79074  0.31675  0.06705  1.0000
  S   S212      1.0  0.69392  0.30111  0.16092  1.0000
  C   C749      1.0  0.85815  0.51612  0.20466  1.0000
  C   C750      1.0  0.70425  0.46354  0.26215  1.0000
  H   H894      1.0  0.87109  0.47658  0.23333  1.0000
  C   C751      1.0  0.64393  0.47241  0.50506  1.0000
  C   C752      1.0  0.69043  0.43732  0.21254  1.0000
  H   H895      1.0  0.79874  0.30506  0.03994  1.0000
  H   H896      1.0  0.64970  0.29944  0.20605  1.0000
  S   S213      1.0  0.99489  0.35369  0.46902  1.0000
  C   C753      1.0  0.87166  0.50544  0.25204  1.0000
  N   N52       1.0  0.61297  0.35223  0.04033  1.0000
  H   H897      1.0  0.69226  0.41642  0.01025  1.0000
  H   H898      1.0  0.72577  0.43967  0.24035  1.0000
  N   N53       1.0  0.85859  0.48123  0.18360  1.0000
  H   H899      1.0  0.99197  0.31116  0.48881  1.0000
  H   H900      1.0  0.60592  0.48310  0.24896  1.0000
  C   C754      1.0  0.70993  0.42340  0.24181  1.0000
  H   H901      1.0  0.70598  0.45373  0.21043  1.0000
  C   C755      1.0  0.66764  0.44715  0.29709  1.0000
  H   H902      1.0  0.66756  0.39374  0.25520  1.0000
  H   H903      1.0  0.65836  0.48096  0.42963  1.0000
  C   C756      1.0  0.95239  0.29094  0.45674  1.0000
  C   C757      1.0  0.61749  0.29826  0.02242  1.0000
  H   H904      1.0  0.65288  0.40444  0.23349  1.0000
  C   C758      1.0  0.62343  0.36926  0.06123  1.0000
  H   H905      1.0  0.57839  0.33067  0.02764  1.0000
  C   C759      1.0  0.88006  0.47928  0.17869  1.0000
  H   H906      1.0  0.69103  0.42644  0.19630  1.0000
  C   C760      1.0  0.68704  0.44088  0.25910  1.0000
  H   H907      1.0  0.71154  0.41198  0.22678  1.0000
  H   H908      1.0  0.01177  0.42644  0.42299  1.0000
  N   N54       1.0  0.68894  0.42640  0.23809  1.0000
  C   C761      1.0  0.66922  0.40344  0.23703  1.0000
  C   C762      1.0  0.66859  0.43308  0.27723  1.0000
  H   H909      1.0  0.56871  0.48778  0.21961  1.0000
  H   H910      1.0  0.65329  0.44091  0.31056  1.0000
  H   H911      1.0  0.59158  0.49934  0.25950  1.0000
  C   C763      1.0  0.69000  0.32087  0.02503  1.0000
  H   H912      1.0  0.89315  0.46144  0.47675  1.0000
  H   H913      1.0  0.87839  0.46781  0.16206  1.0000
  H   H914      1.0  0.67114  0.39306  0.22094  1.0000
  H   H915      1.0  0.58178  0.35572  0.04444  1.0000
  C   C764      1.0  0.65566  0.47896  0.45104  1.0000
  C   C765      1.0  0.01991  0.36844  0.48777  1.0000
  H   H916      1.0  0.95505  0.44930  0.42730  1.0000
  C   C766      1.0  0.86834  0.49140  0.23054  1.0000
  H   H917      1.0  0.76620  0.33925  0.03446  1.0000
  H   H918      1.0  0.55537  0.49822  0.25475  1.0000
  H   H919      1.0  0.55623  0.48709  0.34446  1.0000
  C   C767      1.0  0.54958  0.46385  0.26471  1.0000
  C   C768      1.0  0.67739  0.41956  0.01159  1.0000
  H   H920      1.0  0.62760  0.43298  0.45068  1.0000
  H   H921      1.0  0.82325  0.45902  0.19221  1.0000
  H   H922      1.0  0.62481  0.43188  0.01619  1.0000
  H   H923      1.0  0.61800  0.38303  0.06029  1.0000
  H   H924      1.0  0.95846  0.28582  0.50789  1.0000
  H   H925      1.0  0.85281  0.52116  0.18703  1.0000
  C   C769      1.0  0.86828  0.52478  0.24995  1.0000
  H   H926      1.0  0.94626  0.42522  0.50564  1.0000
  H   H927      1.0  0.85073  0.47755  0.14267  1.0000
  H   H928      1.0  0.62715  0.49732  0.45892  1.0000
  C   C770      1.0  0.85264  0.48923  0.15915  1.0000
  H   H929      1.0  0.62148  0.48334  0.42782  1.0000
  S   S214      1.0  0.57028  0.44723  0.41370  1.0000
  C   C771      1.0  0.90615  0.47910  0.47246  1.0000
  S   S215      1.0  0.94947  0.37036  0.50131  1.0000
  C   C772      1.0  0.95174  0.43577  0.46581  1.0000
  C   C773      1.0  0.56704  0.47034  0.22176  1.0000
  H   H930      1.0  0.95684  0.42282  0.46013  1.0000
  H   H931      1.0  0.58233  0.33258  0.06219  1.0000
  H   H932      1.0  0.89458  0.49612  0.17441  1.0000
  H   H933      1.0  0.03283  0.32278  0.48619  1.0000
  S   S216      1.0  0.89634  0.32872  0.50682  1.0000
  C   C774      1.0  0.86168  0.49636  0.20609  1.0000
  S   S217      1.0  0.67328  0.50636  0.37895  1.0000
  C   C775      1.0  0.61185  0.31639  0.02175  1.0000
  C   C776      1.0  0.04356  0.42514  0.45017  1.0000
  H   H934      1.0  0.83583  0.48970  0.16074  1.0000
  C   C777      1.0  0.84320  0.41706  0.01460  1.0000
  N   N55       1.0  0.56904  0.46455  0.24916  1.0000
  C   C778      1.0  0.92967  0.52931  0.40611  1.0000
  H   H935      1.0  0.82939  0.36836  0.03351  1.0000
  H   H936      1.0  0.99397  0.43908  0.38977  1.0000
  C   C779      1.0  0.99749  0.29987  0.47908  1.0000
  C   C780      1.0  0.02931  0.29299  0.46549  1.0000
  C   C781      1.0  0.04162  0.50484  0.31203  1.0000
  H   H937      1.0  0.03413  0.43335  0.46031  1.0000
  H   H938      1.0  0.87692  0.50118  0.27039  1.0000
  C   C782      1.0  0.57604  0.28446  0.10027  1.0000
  H   H939      1.0  0.95944  0.29467  0.43666  1.0000
  C   C783      1.0  0.02303  0.43871  0.40917  1.0000
  C   C784      1.0  0.63245  0.28643  0.20232  1.0000
  H   H940      1.0  0.62480  0.30749  0.17621  1.0000
  H   H941      1.0  0.96030  0.30709  0.46773  1.0000
  H   H942      1.0  0.71271  0.53124  0.41095  1.0000
  H   H943      1.0  0.91778  0.52372  0.44569  1.0000
  H   H944      1.0  0.65105  0.31285  0.07583  1.0000
  C   C785      1.0  0.02286  0.52899  0.30568  1.0000
  C   C786      1.0  0.86148  0.53007  0.22635  1.0000
  C   C787      1.0  0.02552  0.46123  0.37106  1.0000
  H   H945      1.0  0.86610  0.50624  0.15335  1.0000
  H   H946      1.0  0.96150  0.51249  0.48887  1.0000
  H   H947      1.0  0.63828  0.37181  0.01181  1.0000
  H   H948      1.0  0.63533  0.28260  0.04292  1.0000
  H   H949      1.0  0.64341  0.52147  0.40577  1.0000
  C   C788      1.0  0.65970  0.52868  0.41526  1.0000
  H   H950      1.0  0.04195  0.52955  0.35780  1.0000
  C   C789      1.0  0.54656  0.42092  0.41984  1.0000
  H   H951      1.0  0.68545  0.34867  0.00916  1.0000
  Fe  Fe112     1.0  0.58042  0.45791  0.66625  1.0000
  S   S218      1.0  0.59121  0.48699  0.63863  1.0000
  C   C790      1.0  0.68251  0.52169  0.61747  1.0000
  Fe  Fe113     1.0  0.62433  0.47905  0.69693  1.0000
  S   S219      1.0  0.63942  0.51021  0.67152  1.0000
  S   S220      1.0  0.64554  0.47309  0.72809  1.0000
  Fe  Fe114     1.0  0.60464  0.50905  0.67360  1.0000
  C   C791      1.0  0.55285  0.38380  0.71527  1.0000
  Fe  Fe115     1.0  0.62515  0.48636  0.63809  1.0000
  S   S221      1.0  0.64081  0.49129  0.59815  1.0000
  S   S222      1.0  0.59051  0.47994  0.70202  1.0000
  S   S223      1.0  0.61329  0.45520  0.66281  1.0000
  Fe  Fe116     1.0  0.63085  0.41691  0.86498  1.0000
  S   S224      1.0  0.65781  0.44372  0.88947  1.0000
  S   S225      1.0  0.60867  0.42511  0.83721  1.0000
  Fe  Fe117     1.0  0.63819  0.37907  0.89082  1.0000
  S   S226      1.0  0.66591  0.40283  0.91680  1.0000
  S   S227      1.0  0.62767  0.34222  0.89863  1.0000
  Fe  Fe118     1.0  0.64309  0.41956  0.92296  1.0000
  S   S228      1.0  0.63402  0.42899  0.96220  1.0000
  Fe  Fe119     1.0  0.67806  0.42446  0.88121  1.0000
  S   S229      1.0  0.71569  0.44277  0.87257  1.0000
  S   S230      1.0  0.61428  0.39423  0.89925  1.0000
  S   S231      1.0  0.65218  0.39925  0.85425  1.0000
  Fe  Fe120     1.0  0.81701  0.36448  0.87419  1.0000
  S   S232      1.0  0.78636  0.36750  0.88909  1.0000
  S   S233      1.0  0.82144  0.33283  0.87899  1.0000
  Fe  Fe121     1.0  0.83972  0.41249  0.85344  1.0000
  S   S234      1.0  0.81101  0.41986  0.86750  1.0000
  S   S235      1.0  0.87085  0.43969  0.83302  1.0000
  Fe  Fe122     1.0  0.81127  0.40144  0.90401  1.0000
  S   S236      1.0  0.79962  0.40940  0.94255  1.0000
  Fe  Fe123     1.0  0.78824  0.38552  0.85182  1.0000
  S   S237      1.0  0.75520  0.37726  0.83148  1.0000
  S   S238      1.0  0.84232  0.39732  0.89185  1.0000
  S   S239      1.0  0.81659  0.37916  0.83511  1.0000
  Fe  Fe124     1.0  0.92878  0.34334  0.53000  1.0000
  H   H952      1.0  0.81153  0.36824  0.94874  1.0000
  S   S240      1.0  0.93022  0.35211  0.57234  1.0000
  Fe  Fe125     1.0  0.91726  0.45710  0.68854  1.0000
  S   S241      1.0  0.94008  0.44414  0.66934  1.0000
  S   S242      1.0  0.88788  0.43131  0.71240  1.0000
  Fe  Fe126     1.0  0.94143  0.50277  0.66127  1.0000
  S   S243      1.0  0.96646  0.49369  0.64060  1.0000
  H   H953      1.0  0.73929  0.39272  0.95414  1.0000
  Fe  Fe127     1.0  0.93595  0.46048  0.63299  1.0000
  S   S244      1.0  0.92867  0.44610  0.59239  1.0000
  Fe  Fe128     1.0  0.96848  0.47836  0.67867  1.0000
  S   S245      1.0  0.00101  0.47924  0.69412  1.0000
  S   S246      1.0  0.91059  0.47056  0.65113  1.0000
  S   S247      1.0  0.94608  0.49037  0.70054  1.0000
  C   C792      1.0  0.93150  0.37903  0.57734  1.0000
  C   C793      1.0  0.92604  0.39005  0.55733  1.0000
  C   C794      1.0  0.92555  0.41080  0.56208  1.0000
  C   C795      1.0  0.93100  0.42087  0.58665  1.0000
  C   C796      1.0  0.93732  0.41027  0.60639  1.0000
  C   C797      1.0  0.93724  0.38923  0.60184  1.0000
  H   H954      1.0  0.92124  0.38214  0.53848  1.0000
  H   H955      1.0  0.92039  0.41874  0.54684  1.0000
  H   H956      1.0  0.94202  0.41809  0.62523  1.0000
  H   H957      1.0  0.94163  0.38082  0.61729  1.0000
  C   C798      1.0  0.61002  0.39282  0.73554  1.0000
  C   C799      1.0  0.83019  0.47086  0.91162  1.0000
  C   C800      1.0  0.81667  0.41252  0.97003  1.0000
  H   H958      1.0  0.88453  0.46405  0.89011  1.0000
  C   C801      1.0  0.83861  0.41401  0.96759  1.0000
  H   H959      1.0  0.92968  0.51109  0.56294  1.0000
  H   H960      1.0  0.84539  0.41328  0.94861  1.0000
  C   C802      1.0  0.87478  0.43789  0.79913  1.0000
  C   C803      1.0  0.86051  0.41870  0.78492  1.0000
  C   C804      1.0  0.86467  0.41710  0.75837  1.0000
  C   C805      1.0  0.88300  0.43475  0.74561  1.0000
  C   C806      1.0  0.89711  0.45418  0.75962  1.0000
  C   C807      1.0  0.89309  0.45567  0.78633  1.0000
  H   H961      1.0  0.84642  0.40491  0.79440  1.0000
  H   H962      1.0  0.85363  0.40204  0.74770  1.0000
  H   H963      1.0  0.91105  0.46803  0.74990  1.0000
  H   H964      1.0  0.90423  0.47060  0.79714  1.0000
  H   H965      1.0  0.57845  0.40287  0.67468  1.0000
  H   H966      1.0  0.57292  0.42458  0.73969  1.0000
  C   C808      1.0  0.79624  0.30729  0.88219  1.0000
  C   C809      1.0  0.77462  0.30661  0.87953  1.0000
  H   H967      1.0  0.55005  0.36587  0.71435  1.0000
  H   H968      1.0  0.81458  0.28768  0.88933  1.0000
  H   H969      1.0  0.77322  0.32193  0.87542  1.0000
  C   C810      1.0  0.72607  0.42490  0.85857  1.0000
  C   C811      1.0  0.71149  0.40204  0.85376  1.0000
  C   C812      1.0  0.72040  0.38765  0.84424  1.0000
  C   C813      1.0  0.74396  0.39601  0.84005  1.0000
  C   C814      1.0  0.75844  0.41901  0.84413  1.0000
  C   C815      1.0  0.74945  0.43347  0.85313  1.0000
  H   H970      1.0  0.69343  0.39528  0.85778  1.0000
  H   H971      1.0  0.70914  0.36988  0.84098  1.0000
  H   H972      1.0  0.77648  0.42573  0.83983  1.0000
  H   H973      1.0  0.76055  0.45132  0.85590  1.0000
  C   C816      1.0  0.64389  0.33139  0.88170  1.0000
  C   C817      1.0  0.65298  0.33958  0.85713  1.0000
  C   C818      1.0  0.66400  0.32903  0.84297  1.0000
  C   C819      1.0  0.66610  0.31050  0.85354  1.0000
  C   C820      1.0  0.65795  0.30309  0.87861  1.0000
  C   C821      1.0  0.64677  0.31345  0.89261  1.0000
  H   H974      1.0  0.65080  0.35345  0.84861  1.0000
  H   H975      1.0  0.67044  0.33491  0.82363  1.0000
  H   H976      1.0  0.72209  0.40200  0.93547  1.0000
  H   H977      1.0  0.64012  0.30739  0.91182  1.0000
  C   C822      1.0  0.64767  0.42598  0.99037  1.0000
  C   C823      1.0  0.66665  0.42151  0.98882  1.0000
  H   H978      1.0  0.99260  0.45828  0.78096  1.0000
  H   H979      1.0  0.67333  0.42001  0.97009  1.0000
  C   C824      1.0  0.91027  0.41521  0.80616  1.0000
  H   H980      1.0  0.00324  0.52404  0.69191  1.0000
  C   C825      1.0  0.95417  0.45098  0.81008  1.0000
  C   C826      1.0  0.66923  0.49828  0.92143  1.0000
  C   C827      1.0  0.63493  0.45979  0.75838  1.0000
  C   C828      1.0  0.61384  0.45694  0.76831  1.0000
  C   C829      1.0  0.60586  0.44597  0.79229  1.0000
  C   C830      1.0  0.61909  0.43818  0.80680  1.0000
  C   C831      1.0  0.64035  0.44137  0.79711  1.0000
  C   C832      1.0  0.64821  0.45214  0.77300  1.0000
  H   H981      1.0  0.60372  0.46327  0.75755  1.0000
  H   H982      1.0  0.58944  0.44366  0.79974  1.0000
  H   H983      1.0  0.65070  0.43546  0.80811  1.0000
  H   H984      1.0  0.66462  0.45441  0.76554  1.0000
  H   H985      1.0  0.78733  0.43722  0.90938  1.0000
  C   C833      1.0  0.93119  0.52434  0.57623  1.0000
  H   H986      1.0  0.97103  0.46485  0.81259  1.0000
  H   H987      1.0  0.58692  0.38221  0.68670  1.0000
  C   C834      1.0  0.67684  0.52328  0.57128  1.0000
  C   C835      1.0  0.02418  0.50646  0.69372  1.0000
  H   H988      1.0  0.59870  0.43543  0.72061  1.0000
  H   H989      1.0  0.79206  0.45623  0.88295  1.0000
  C   C836      1.0  0.80320  0.46892  0.94678  1.0000
  C   C837      1.0  0.59976  0.44272  0.52170  1.0000
  H   H990      1.0  0.77291  0.45494  0.90855  1.0000
  H   H991      1.0  0.81729  0.48160  0.95871  1.0000
  H   H992      1.0  0.78737  0.47060  0.95152  1.0000
  H   H993      1.0  0.79987  0.45163  0.95333  1.0000
  N   N56       1.0  0.64479  0.49701  0.85415  1.0000
  H   H994      1.0  0.73819  0.28540  0.87908  1.0000
  C   C838      1.0  0.65757  0.48712  0.83914  1.0000
  H   H995      1.0  0.61104  0.28413  0.86193  1.0000
  C   C839      1.0  0.64608  0.49255  0.88213  1.0000
  C   C840      1.0  0.62689  0.47698  0.89666  1.0000
  C   C841      1.0  0.66737  0.50287  0.89530  1.0000
  H   H996      1.0  0.77818  0.29582  0.95338  1.0000
  H   H997      1.0  0.62048  0.49105  0.82315  1.0000
  H   H998      1.0  0.76853  0.34851  0.80143  1.0000
  C   C842      1.0  0.92245  0.48526  0.51500  1.0000
  C   C843      1.0  0.01880  0.37343  0.51399  1.0000
  H   H999      1.0  0.03755  0.44584  0.57950  1.0000
  H   H1000     1.0  0.60377  0.52513  0.55686  1.0000
  C   C844      1.0  0.78653  0.31338  0.99027  1.0000
  S   S248      1.0  0.94068  0.31817  0.51557  1.0000
  H   H1001     1.0  0.96094  0.44778  0.72026  1.0000
  H   H1002     1.0  0.60579  0.41231  0.68906  1.0000
  H   H1003     1.0  0.82608  0.50867  0.92016  1.0000
  H   H1004     1.0  0.66620  0.51701  0.55427  1.0000
  C   C845      1.0  0.65516  0.52179  0.84910  1.0000
  H   H1005     1.0  0.63705  0.38823  0.75445  1.0000
  C   C846      1.0  0.61044  0.38465  0.78130  1.0000
  H   H1006     1.0  0.58263  0.43107  0.52816  1.0000
  C   C847      1.0  0.79472  0.33190  0.94829  1.0000
  C   C848      1.0  0.58031  0.42289  0.72080  1.0000
  H   H1007     1.0  0.93374  0.44244  0.73366  1.0000
  C   C849      1.0  0.73775  0.33128  0.96334  1.0000
  C   C850      1.0  0.94047  0.44271  0.83224  1.0000
  C   C851      1.0  0.69899  0.32724  0.93673  1.0000
  H   H1008     1.0  0.65255  0.47566  0.54582  1.0000
  C   C852      1.0  0.65008  0.48311  0.93512  1.0000
  N   N57       1.0  0.86682  0.39663  0.62836  1.0000
  C   C853      1.0  0.86449  0.41656  0.61813  1.0000
  C   C854      1.0  0.84649  0.38335  0.64479  1.0000
  C   C855      1.0  0.88742  0.40548  0.64502  1.0000
  C   C856      1.0  0.86887  0.38187  0.60780  1.0000
  C   C857      1.0  0.86727  0.38570  0.58087  1.0000
  C   C858      1.0  0.87245  0.36280  0.61451  1.0000
  C   C859      1.0  0.86916  0.37128  0.56204  1.0000
  C   C860      1.0  0.87464  0.34872  0.59550  1.0000
  C   C861      1.0  0.87292  0.35290  0.56935  1.0000
  H   H1009     1.0  0.84869  0.41135  0.60641  1.0000
  H   H1010     1.0  0.86349  0.42756  0.63407  1.0000
  H   H1011     1.0  0.87962  0.42755  0.60603  1.0000
  H   H1012     1.0  0.83061  0.37602  0.63295  1.0000
  H   H1013     1.0  0.84431  0.39406  0.66032  1.0000
  H   H1014     1.0  0.84786  0.36910  0.65484  1.0000
  H   H1015     1.0  0.90307  0.41496  0.63321  1.0000
  H   H1016     1.0  0.88678  0.41729  0.66009  1.0000
  H   H1017     1.0  0.88964  0.39196  0.65561  1.0000
  H   H1018     1.0  0.86514  0.40001  0.57374  1.0000
  H   H1019     1.0  0.87406  0.35886  0.63450  1.0000
  C   C862      1.0  0.58969  0.38551  0.78466  1.0000
  H   H1020     1.0  0.87848  0.33489  0.60093  1.0000
  H   H1021     1.0  0.72479  0.29169  0.77480  1.0000
  C   C863      1.0  0.75785  0.30231  0.81045  1.0000
  H   H1022     1.0  0.81166  0.49747  0.89001  1.0000
  C   C864      1.0  0.62059  0.38833  0.75681  1.0000
  C   C865      1.0  0.91851  0.42494  0.83024  1.0000
  C   C866      1.0  0.85838  0.47336  0.87839  1.0000
  C   C867      1.0  0.75477  0.28589  0.88157  1.0000
  H   H1023     1.0  0.71831  0.29564  0.97174  1.0000
  H   H1024     1.0  0.94674  0.45028  0.85104  1.0000
  C   C868      1.0  0.03909  0.38497  0.52834  1.0000
  C   C869      1.0  0.62901  0.47244  0.92275  1.0000
  H   H1025     1.0  0.61368  0.44946  0.56036  1.0000
  C   C870      1.0  0.81062  0.49476  0.91135  1.0000
  N   N58       1.0  0.74294  0.31362  0.80655  1.0000
  H   H1026     1.0  0.65982  0.28906  0.88708  1.0000
  C   C871      1.0  0.73709  0.31964  0.83228  1.0000
  H   H1027     1.0  0.86430  0.47637  0.85838  1.0000
  H   H1028     1.0  0.72591  0.32830  0.83050  1.0000
  H   H1029     1.0  0.75268  0.33137  0.84293  1.0000
  H   H1030     1.0  0.90880  0.46865  0.52173  1.0000
  C   C872      1.0  0.73790  0.35023  0.95098  1.0000
  H   H1031     1.0  0.60831  0.51133  0.58483  1.0000
  C   C873      1.0  0.83884  0.47552  0.88582  1.0000
  C   C874      1.0  0.78942  0.45445  0.90430  1.0000
  H   H1032     1.0  0.68291  0.51405  0.88530  1.0000
  N   N59       1.0  0.80879  0.47222  0.91862  1.0000
  C   C875      1.0  0.56238  0.42299  0.61342  1.0000
  H   H1033     1.0  0.81432  0.31430  0.81875  1.0000
  H   H1034     1.0  0.77925  0.29740  0.00050  1.0000
  H   H1035     1.0  0.69855  0.38024  0.90095  1.0000
  H   H1036     1.0  0.93532  0.50683  0.60945  1.0000
  H   H1037     1.0  0.03801  0.38837  0.54872  1.0000
  H   H1038     1.0  0.83012  0.48008  0.87087  1.0000
  H   H1039     1.0  0.87081  0.45624  0.93564  1.0000
  C   C876      1.0  0.96692  0.47591  0.75954  1.0000
  C   C877      1.0  0.72247  0.38673  0.94426  1.0000
  C   C878      1.0  0.58872  0.39368  0.73827  1.0000
  C   C879      1.0  0.79668  0.33468  0.00333  1.0000
  H   H1040     1.0  0.68242  0.35825  0.92316  1.0000
  C   C880      1.0  0.93441  0.52190  0.60269  1.0000
  H   H1041     1.0  0.65621  0.48896  0.81780  1.0000
  C   C881      1.0  0.86199  0.46190  0.92181  1.0000
  C   C882      1.0  0.69769  0.36461  0.91013  1.0000
  N   N60       1.0  0.71901  0.36916  0.92443  1.0000
  H   H1042     1.0  0.69456  0.35220  0.89410  1.0000
  H   H1043     1.0  0.75343  0.36602  0.95217  1.0000
  H   H1044     1.0  0.70881  0.38011  0.95938  1.0000
  H   H1045     1.0  0.57378  0.42073  0.57475  1.0000
  C   C883      1.0  0.71852  0.34879  0.93717  1.0000
  C   C884      1.0  0.94610  0.44182  0.78510  1.0000
  N   N61       1.0  0.96071  0.45139  0.76186  1.0000
  H   H1046     1.0  0.83716  0.45983  0.94945  1.0000
  C   C885      1.0  0.78569  0.31216  0.96312  1.0000
  H   H1047     1.0  0.71111  0.30790  0.78810  1.0000
  H   H1048     1.0  0.73648  0.36583  0.89030  1.0000
  H   H1049     1.0  0.61915  0.39607  0.71732  1.0000
  C   C886      1.0  0.73820  0.37856  0.90550  1.0000
  C   C887      1.0  0.78207  0.31484  0.81171  1.0000
  C   C888      1.0  0.86982  0.46638  0.89627  1.0000
  C   C889      1.0  0.69901  0.30843  0.94922  1.0000
  H   H1050     1.0  0.94493  0.42192  0.73715  1.0000
  H   H1051     1.0  0.01526  0.45276  0.61302  1.0000
  H   H1052     1.0  0.72776  0.30436  0.84458  1.0000
  C   C890      1.0  0.80545  0.35438  0.98752  1.0000
  C   C891      1.0  0.03380  0.46073  0.61441  1.0000
  H   H1053     1.0  0.93797  0.48979  0.52710  1.0000
  H   H1054     1.0  0.73887  0.39377  0.89544  1.0000
  H   H1055     1.0  0.61080  0.35352  0.99837  1.0000
  C   C892      1.0  0.71836  0.31040  0.96241  1.0000
  H   H1056     1.0  0.79113  0.41244  0.99678  1.0000
  C   C893      1.0  0.58770  0.39913  0.69070  1.0000
  H   H1057     1.0  0.61018  0.46754  0.88821  1.0000
  H   H1058     1.0  0.86885  0.41752  0.98781  1.0000
  H   H1059     1.0  0.61440  0.45997  0.93335  1.0000
  H   H1060     1.0  0.97809  0.43060  0.76663  1.0000
  H   H1061     1.0  0.57165  0.42800  0.70551  1.0000
  H   H1062     1.0  0.61256  0.46831  0.84532  1.0000
  C   C894      1.0  0.80806  0.41346  0.99478  1.0000
  H   H1063     1.0  0.75518  0.38418  0.91475  1.0000
  H   H1064     1.0  0.61898  0.38182  0.79790  1.0000
  H   H1065     1.0  0.68350  0.32435  0.92668  1.0000
  H   H1066     1.0  0.91576  0.41563  0.76576  1.0000
  H   H1067     1.0  0.76103  0.33151  0.77222  1.0000
  H   H1068     1.0  0.68397  0.29208  0.94838  1.0000
  H   H1069     1.0  0.99312  0.45528  0.74661  1.0000
  H   H1070     1.0  0.58233  0.38353  0.80399  1.0000
  C   C895      1.0  0.57906  0.39017  0.76361  1.0000
  H   H1071     1.0  0.56139  0.50570  0.68906  1.0000
  H   H1072     1.0  0.67608  0.49506  0.84401  1.0000
  C   C896      1.0  0.98202  0.44876  0.76421  1.0000
  C   C897      1.0  0.79595  0.30423  0.81689  1.0000
  C   C898      1.0  0.72132  0.29868  0.79303  1.0000
  H   H1073     1.0  0.65303  0.52552  0.82847  1.0000
  H   H1074     1.0  0.97711  0.48343  0.74159  1.0000
  H   H1075     1.0  0.87538  0.34235  0.55469  1.0000
  H   H1076     1.0  0.74241  0.34217  0.78636  1.0000
  S   S249      1.0  0.67789  0.29592  0.83513  1.0000
  H   H1077     1.0  0.75285  0.33278  0.97347  1.0000
  C   C899      1.0  0.55862  0.52057  0.68662  1.0000
  H   H1078     1.0  0.57798  0.43779  0.61835  1.0000
  H   H1079     1.0  0.67646  0.51389  0.63620  1.0000
  C   C900      1.0  0.75431  0.33471  0.79085  1.0000
  C   C901      1.0  0.66867  0.51338  0.59558  1.0000
  H   H1080     1.0  0.90761  0.41895  0.84728  1.0000
  C   C902      1.0  0.94947  0.44032  0.73726  1.0000
  C   C903      1.0  0.63915  0.46776  0.53151  1.0000
  H   H1081     1.0  0.97755  0.48603  0.77594  1.0000
  H   H1082     1.0  0.89296  0.40170  0.80469  1.0000
  C   C904      1.0  0.84251  0.46411  0.92952  1.0000
  H   H1083     1.0  0.79068  0.33303  0.80968  1.0000
  H   H1084     1.0  0.61035  0.49360  0.85494  1.0000
  H   H1085     1.0  0.95133  0.47870  0.75886  1.0000
  H   H1086     1.0  0.79538  0.49685  0.91789  1.0000
  H   H1087     1.0  0.91616  0.49811  0.51933  1.0000
  C   C905      1.0  0.92369  0.42349  0.78382  1.0000
  N   N62       1.0  0.57767  0.39965  0.71652  1.0000
  H   H1088     1.0  0.86858  0.37480  0.54158  1.0000
  H   H1089     1.0  0.65081  0.46867  0.84333  1.0000
  H   H1090     1.0  0.59864  0.53100  0.61575  1.0000
  H   H1091     1.0  0.00231  0.36816  0.52330  1.0000
  C   C906      1.0  0.02049  0.52576  0.69255  1.0000
  C   C907      1.0  0.80449  0.35295  0.96045  1.0000
  H   H1092     1.0  0.79428  0.33093  0.92730  1.0000
  C   C908      1.0  0.55996  0.41336  0.58865  1.0000
  H   H1093     1.0  0.68571  0.50602  0.93100  1.0000
  H   H1094     1.0  0.65165  0.47902  0.95518  1.0000
  C   C909      1.0  0.85187  0.41640  0.98980  1.0000
  H   H1095     1.0  0.81329  0.37107  0.99605  1.0000
  C   C910      1.0  0.79791  0.28724  0.88720  1.0000
  C   C911      1.0  0.61717  0.45293  0.53980  1.0000
  H   H1096     1.0  0.03404  0.47750  0.65033  1.0000
  H   H1097     1.0  0.93379  0.45321  0.51901  1.0000
  H   H1098     1.0  0.84974  0.53112  0.55569  1.0000
  C   C912      1.0  0.62099  0.48712  0.84410  1.0000
  C   C913      1.0  0.61648  0.52639  0.57184  1.0000
  H   H1099     1.0  0.63061  0.52422  0.56215  1.0000
  H   H1100     1.0  0.70952  0.28443  0.80543  1.0000
  H   H1101     1.0  0.59390  0.29146  0.88336  1.0000
  H   H1102     1.0  0.56363  0.39182  0.76763  1.0000
  H   H1103     1.0  0.60051  0.31637  0.00655  1.0000
  S   S250      1.0  0.54686  0.42652  0.66194  1.0000
  C   C914      1.0  0.04435  0.47465  0.63553  1.0000
  H   H1104     1.0  0.64710  0.53008  0.86158  1.0000
  H   H1105     1.0  0.81282  0.53089  0.56234  1.0000
  H   H1106     1.0  0.67388  0.53034  0.85267  1.0000
  H   H1107     1.0  0.68348  0.31028  0.00797  1.0000
  H   H1108     1.0  0.61053  0.28481  0.00813  1.0000
  Fe  Fe129     1.0  0.95310  0.60854  0.46815  1.0000
  S   S251      1.0  0.95615  0.60450  0.42514  1.0000
  S   S252      1.0  0.96420  0.64247  0.48732  1.0000
  H   H1109     1.0  0.71858  0.55570  0.44982  1.0000
  S   S253      1.0  0.62711  0.71485  0.48066  1.0000
  C   C915      1.0  0.03589  0.56463  0.42051  1.0000
  H   H1110     1.0  0.89191  0.65151  0.45597  1.0000
  C   C916      1.0  0.63780  0.60777  0.44611  1.0000
  C   C917      1.0  0.62163  0.61390  0.43594  1.0000
  S   S254      1.0  0.97222  0.59691  0.49527  1.0000
  C   C918      1.0  0.75820  0.73825  0.49523  1.0000
  Fe  Fe130     1.0  0.72166  0.58708  0.49629  1.0000
  S   S255      1.0  0.75000  0.62054  0.48364  1.0000
  S   S256      1.0  0.68703  0.56858  0.47756  1.0000
  H   H1111     1.0  0.62216  0.58914  0.35397  1.0000
  H   H1112     1.0  0.57055  0.53576  0.37363  1.0000
  C   C919      1.0  0.01542  0.56398  0.42981  1.0000
  C   C920      1.0  0.76398  0.76101  0.49976  1.0000
  C   C921      1.0  0.58067  0.64730  0.42618  1.0000
  H   H1113     1.0  0.98030  0.55555  0.42134  1.0000
  C   C922      1.0  0.04175  0.67835  0.49720  1.0000
  H   H1114     1.0  0.82590  0.60549  0.39988  1.0000
  C   C923      1.0  0.58116  0.65968  0.44865  1.0000
  C   C924      1.0  0.56165  0.66192  0.45624  1.0000
  C   C925      1.0  0.99614  0.55612  0.41404  1.0000
  H   H1115     1.0  0.90815  0.59244  0.43084  1.0000
  H   H1116     1.0  0.59649  0.66715  0.46030  1.0000
  H   H1117     1.0  0.55330  0.62687  0.49555  1.0000
  C   C926      1.0  0.83224  0.61401  0.49607  1.0000
  H   H1118     1.0  0.01770  0.54465  0.35932  1.0000
  H   H1119     1.0  0.62006  0.62838  0.44401  1.0000
  H   H1120     1.0  0.00946  0.62932  0.44168  1.0000
  C   C927      1.0  0.62653  0.57725  0.41483  1.0000
  H   H1121     1.0  0.56102  0.58478  0.46808  1.0000
  C   C928      1.0  0.01767  0.61591  0.40733  1.0000
  C   C929      1.0  0.85860  0.64458  0.44403  1.0000
  S   S257      1.0  0.91973  0.59134  0.48969  1.0000
  C   C930      1.0  0.58240  0.54584  0.38931  1.0000
  H   H1122     1.0  0.02549  0.67632  0.48977  1.0000
  C   C931      1.0  0.91043  0.62599  0.39831  1.0000
  C   C932      1.0  0.84072  0.61568  0.41158  1.0000
  C   C933      1.0  0.61093  0.57121  0.35949  1.0000
  H   H1123     1.0  0.62211  0.56294  0.36368  1.0000
  C   C934      1.0  0.94045  0.54560  0.38680  1.0000
  H   H1124     1.0  0.73245  0.70630  0.48140  1.0000
  C   C935      1.0  0.86739  0.60929  0.49683  1.0000
  H   H1125     1.0  0.92496  0.65254  0.44002  1.0000
  C   C936      1.0  0.93494  0.55927  0.43675  1.0000
  C   C937      1.0  0.60992  0.58306  0.40388  1.0000
  C   C938      1.0  0.74834  0.76955  0.49428  1.0000
  C   C939      1.0  0.94579  0.57561  0.41759  1.0000
  C   C940      1.0  0.94840  0.56878  0.39251  1.0000
  C   C941      1.0  0.89311  0.59614  0.42995  1.0000
  H   H1126     1.0  0.59573  0.64554  0.42045  1.0000
  N   N63       1.0  0.90005  0.62048  0.42460  1.0000
  H   H1127     1.0  0.98240  0.54329  0.37633  1.0000
  H   H1128     1.0  0.95674  0.58136  0.37758  1.0000
  C   C942      1.0  0.69090  0.66092  0.49127  1.0000
  H   H1129     1.0  0.93289  0.56431  0.45614  1.0000
  H   H1130     1.0  0.57052  0.54810  0.30209  1.0000
  S   S258      1.0  0.64782  0.77751  0.49232  1.0000
  H   H1131     1.0  0.60091  0.56241  0.34201  1.0000
  H   H1132     1.0  0.87656  0.59978  0.49136  1.0000
  H   H1133     1.0  0.85753  0.65656  0.45778  1.0000
  C   C943      1.0  0.86046  0.61248  0.40998  1.0000
  H   H1134     1.0  0.91554  0.64406  0.39333  1.0000
  H   H1135     1.0  0.71341  0.64486  0.49200  1.0000
  H   H1136     1.0  0.68319  0.65324  0.47302  1.0000
  H   H1137     1.0  0.82416  0.63351  0.43061  1.0000
  N   N64       1.0  0.59582  0.56995  0.38169  1.0000
  C   C944      1.0  0.69880  0.53435  0.41823  1.0000
  H   H1138     1.0  0.83649  0.58712  0.47669  1.0000
  S   S259      1.0  0.55923  0.61901  0.38533  1.0000
  H   H1139     1.0  0.92603  0.62317  0.39690  1.0000
  H   H1140     1.0  0.64886  0.54497  0.44477  1.0000
  H   H1141     1.0  0.85879  0.54511  0.22485  1.0000
  H   H1142     1.0  0.62921  0.56330  0.40722  1.0000
  C   C945      1.0  0.87835  0.64139  0.44279  1.0000
  C   C946      1.0  0.68696  0.74736  0.47073  1.0000
  H   H1143     1.0  0.59585  0.60766  0.40808  1.0000
  C   C947      1.0  0.57937  0.57823  0.37244  1.0000
  C   C948      1.0  0.56054  0.63673  0.41160  1.0000
  H   H1144     1.0  0.91166  0.63031  0.46388  1.0000
  H   H1145     1.0  0.01447  0.56970  0.44934  1.0000
  H   H1146     1.0  0.86034  0.59985  0.39650  1.0000
  H   H1147     1.0  0.00013  0.60330  0.40431  1.0000
  H   H1148     1.0  0.88181  0.58477  0.41471  1.0000
  H   H1149     1.0  0.58827  0.59613  0.36558  1.0000
  Fe  Fe131     1.0  0.77377  0.60794  0.50207  1.0000
  C   C949      1.0  0.91811  0.63400  0.44353  1.0000
  H   H1150     1.0  0.56907  0.56811  0.35575  1.0000
  C   C950      1.0  0.87976  0.62495  0.42587  1.0000
  H   H1151     1.0  0.77017  0.73151  0.49980  1.0000
  C   C951      1.0  0.64025  0.58949  0.43559  1.0000
  C   C952      1.0  0.84456  0.60200  0.48884  1.0000
  C   C953      1.0  0.72628  0.75542  0.48423  1.0000
  H   H1152     1.0  0.65309  0.58496  0.44340  1.0000
  C   C954      1.0  0.72118  0.73241  0.47925  1.0000
  C   C955      1.0  0.70213  0.54815  0.44025  1.0000
  H   H1153     1.0  0.64860  0.61736  0.46203  1.0000
  H   H1154     1.0  0.56020  0.65102  0.26807  1.0000
  C   C956      1.0  0.83975  0.63160  0.42870  1.0000
  H   H1155     1.0  0.59343  0.53736  0.39336  1.0000
  H   H1156     1.0  0.94266  0.54036  0.36752  1.0000
  C   C957      1.0  0.60782  0.60179  0.41515  1.0000
  Fe  Fe132     1.0  0.59532  0.69507  0.50364  1.0000
  H   H1157     1.0  0.88383  0.59088  0.44878  1.0000
  C   C958      1.0  0.68410  0.55200  0.44982  1.0000
  C   C959      1.0  0.02296  0.63063  0.42837  1.0000
  H   H1158     1.0  0.89854  0.61531  0.38303  1.0000
  C   C960      1.0  0.99734  0.54925  0.38874  1.0000
  H   H1159     1.0  0.93304  0.63020  0.44217  1.0000
  H   H1160     1.0  0.68801  0.73991  0.45167  1.0000
  S   S260      1.0  0.80435  0.60544  0.48330  1.0000
  S   S261      1.0  0.66349  0.68239  0.48828  1.0000
  C   C961      1.0  0.01769  0.54994  0.37922  1.0000
  H   H1161     1.0  0.70502  0.72034  0.47133  1.0000
  C   C962      1.0  0.70811  0.65622  0.50195  1.0000
  H   H1162     1.0  0.67918  0.73333  0.48506  1.0000
  N   N65       1.0  0.70972  0.76470  0.47953  1.0000
  H   H1163     1.0  0.56684  0.57700  0.38782  1.0000
  S   S262      1.0  0.56077  0.67510  0.48562  1.0000
  H   H1164     1.0  0.67462  0.75465  0.46822  1.0000
  C   C963      1.0  0.03754  0.55730  0.39491  1.0000
  S   S263      1.0  0.99834  0.53347  0.30620  1.0000
  C   C964      1.0  0.66289  0.54216  0.43734  1.0000
  H   H1165     1.0  0.57180  0.54421  0.40688  1.0000
  C   C965      1.0  0.55933  0.53435  0.31452  1.0000
  H   H1166     1.0  0.03060  0.60589  0.37386  1.0000
  H   H1167     1.0  0.55998  0.61080  0.46031  1.0000
  C   C966      1.0  0.73693  0.72405  0.48484  1.0000
  H   H1168     1.0  0.54703  0.66769  0.23364  1.0000
  C   C967      1.0  0.03488  0.61749  0.39017  1.0000
  C   C968      1.0  0.54995  0.59206  0.46009  1.0000
  C   C969      1.0  0.04422  0.54742  0.30114  1.0000
  C   C970      1.0  0.92659  0.53622  0.43090  1.0000
  H   H1169     1.0  0.87093  0.53564  0.26669  1.0000
  Fe  Fe133     1.0  0.64393  0.69974  0.50715  1.0000
  H   H1170     1.0  0.72213  0.77565  0.44084  1.0000
  H   H1171     1.0  0.78062  0.77204  0.50772  1.0000
  H   H1172     1.0  0.69235  0.78040  0.50164  1.0000
  C   C971      1.0  0.68399  0.67586  0.50369  1.0000
  C   C972      1.0  0.70608  0.77487  0.50381  1.0000
  H   H1173     1.0  0.04527  0.56390  0.29670  1.0000
  H   H1174     1.0  0.54680  0.58732  0.43918  1.0000
  C   C973      1.0  0.04545  0.64717  0.43221  1.0000
  H   H1175     1.0  0.88519  0.56714  0.55317  1.0000
  N   N66       1.0  0.80395  0.56890  0.56845  1.0000
  C   C974      1.0  0.65734  0.58814  0.53137  1.0000
  C   C975      1.0  0.04224  0.66533  0.51839  1.0000
  C   C976      1.0  0.57102  0.67224  0.58277  1.0000
  H   H1176     1.0  0.56169  0.63767  0.54074  1.0000
  C   C977      1.0  0.78378  0.54624  0.56959  1.0000
  S   S264      1.0  0.92750  0.54688  0.53348  1.0000
  S   S265      1.0  0.94987  0.61438  0.54230  1.0000
  Fe  Fe134     1.0  0.62061  0.70758  0.55428  1.0000
  H   H1177     1.0  0.00301  0.60500  0.63949  1.0000
  S   S266      1.0  0.61533  0.69913  0.59683  1.0000
  Fe  Fe135     1.0  0.74350  0.58938  0.54911  1.0000
  S   S267      1.0  0.77318  0.62305  0.54110  1.0000
  S   S268      1.0  0.73988  0.57276  0.58792  1.0000
  N   N67       1.0  0.00676  0.59424  0.60106  1.0000
  N   N68       1.0  0.62466  0.54802  0.58653  1.0000
  H   H1178     1.0  0.67012  0.62342  0.63408  1.0000
  S   S269      1.0  0.65488  0.72876  0.53548  1.0000
  C   C978      1.0  0.68533  0.57559  0.65565  1.0000
  H   H1179     1.0  0.98088  0.60261  0.61716  1.0000
  H   H1180     1.0  0.00196  0.57877  0.56333  1.0000
  Fe  Fe136     1.0  0.93998  0.58270  0.51889  1.0000
  H   H1181     1.0  0.66914  0.58913  0.51592  1.0000
  S   S270      1.0  0.74211  0.66290  0.53751  1.0000
  C   C979      1.0  0.65082  0.60545  0.53421  1.0000
  C   C980      1.0  0.86778  0.58790  0.55861  1.0000
  C   C981      1.0  0.02154  0.58392  0.60987  1.0000
  H   H1182     1.0  0.87425  0.65609  0.53073  1.0000
  H   H1183     1.0  0.99319  0.55139  0.62096  1.0000
  H   H1184     1.0  0.63086  0.61794  0.55623  1.0000
  S   S271      1.0  0.90774  0.64002  0.52026  1.0000
  C   C982      1.0  0.56015  0.64643  0.62842  1.0000
  H   H1185     1.0  0.65756  0.61986  0.52107  1.0000
  H   H1186     1.0  0.70474  0.54925  0.55012  1.0000
  H   H1187     1.0  0.84690  0.60475  0.56360  1.0000
  H   H1188     1.0  0.00801  0.62504  0.58488  1.0000
  Fe  Fe137     1.0  0.74680  0.63242  0.52385  1.0000
  C   C983      1.0  0.58782  0.67684  0.60162  1.0000
  C   C984      1.0  0.58239  0.66392  0.62448  1.0000
  C   C985      1.0  0.63580  0.60432  0.55408  1.0000
  H   H1189     1.0  0.68903  0.56178  0.66158  1.0000
  H   H1190     1.0  0.59544  0.66732  0.63897  1.0000
  C   C986      1.0  0.62711  0.58580  0.57112  1.0000
  H   H1191     1.0  0.70295  0.63327  0.56845  1.0000
  H   H1192     1.0  0.03025  0.61854  0.57381  1.0000
  H   H1193     1.0  0.55607  0.72314  0.58425  1.0000
  H   H1194     1.0  0.71535  0.54592  0.63194  1.0000
  H   H1195     1.0  0.64964  0.56559  0.61566  1.0000
  C   C987      1.0  0.55114  0.55903  0.68076  1.0000
  H   H1196     1.0  0.83375  0.64280  0.51728  1.0000
  H   H1197     1.0  0.57500  0.68217  0.56516  1.0000
  C   C988      1.0  0.93044  0.54396  0.56700  1.0000
  C   C989      1.0  0.93230  0.56093  0.58455  1.0000
  C   C990      1.0  0.93528  0.55838  0.61114  1.0000
  S   S272      1.0  0.94218  0.53662  0.65311  1.0000
  C   C991      1.0  0.03921  0.54741  0.69249  1.0000
  C   C992      1.0  0.55327  0.71571  0.60349  1.0000
  H   H1198     1.0  0.93126  0.57591  0.57772  1.0000
  C   C993      1.0  0.57279  0.56023  0.67537  1.0000
  C   C994      1.0  0.79987  0.58178  0.54723  1.0000
  C   C995      1.0  0.01159  0.56140  0.61975  1.0000
  C   C996      1.0  0.57657  0.54102  0.67847  1.0000
  C   C997      1.0  0.56822  0.70631  0.64211  1.0000
  S   S273      1.0  0.01686  0.64547  0.53395  1.0000
  H   H1199     1.0  0.78297  0.58190  0.54932  1.0000
  C   C998      1.0  0.82760  0.54723  0.56145  1.0000
  C   C999      1.0  0.93663  0.53897  0.62020  1.0000
  C   C1000     1.0  0.01969  0.61780  0.59118  1.0000
  H   H1200     1.0  0.81279  0.59985  0.54677  1.0000
  S   S274      1.0  0.74516  0.57339  0.51142  1.0000
  C   C1001     1.0  0.66682  0.57760  0.66672  1.0000
  C   C1002     1.0  0.71258  0.54979  0.59078  1.0000
  C   C1003     1.0  0.67511  0.61053  0.63990  1.0000
  H   H1201     1.0  0.03093  0.62946  0.60632  1.0000
  H   H1202     1.0  0.58330  0.70715  0.65155  1.0000
  C   C1004     1.0  0.02514  0.55142  0.62869  1.0000
  H   H1203     1.0  0.80869  0.57187  0.60981  1.0000
  H   H1204     1.0  0.65615  0.56542  0.68115  1.0000
  C   C1005     1.0  0.69864  0.54164  0.56893  1.0000
  S   S275      1.0  0.61120  0.67783  0.52775  1.0000
  N   N69       1.0  0.70787  0.62548  0.60791  1.0000
  C   C1006     1.0  0.72852  0.62306  0.59971  1.0000
  C   C1007     1.0  0.69329  0.62184  0.58475  1.0000
  C   C1008     1.0  0.71580  0.64920  0.61696  1.0000
  C   C1009     1.0  0.69433  0.60921  0.62845  1.0000
  C   C1010     1.0  0.69893  0.59106  0.63677  1.0000
  H   H1205     1.0  0.72388  0.60622  0.59083  1.0000
  H   H1206     1.0  0.73865  0.63580  0.58465  1.0000
  H   H1207     1.0  0.74019  0.62535  0.61630  1.0000
  H   H1208     1.0  0.67833  0.62516  0.58875  1.0000
  H   H1209     1.0  0.68671  0.60411  0.57762  1.0000
  H   H1210     1.0  0.72581  0.65227  0.63521  1.0000
  H   H1211     1.0  0.72698  0.66165  0.60217  1.0000
  H   H1212     1.0  0.70149  0.65359  0.62056  1.0000
  H   H1213     1.0  0.71285  0.58827  0.62892  1.0000
  C   C1011     1.0  0.66168  0.59499  0.65882  1.0000
  H   H1214     1.0  0.68940  0.69775  0.53665  1.0000
  H   H1215     1.0  0.58883  0.72478  0.60944  1.0000
  C   C1012     1.0  0.64896  0.56966  0.54842  1.0000
  H   H1216     1.0  0.65517  0.55708  0.54577  1.0000
  H   H1217     1.0  0.72057  0.69030  0.55498  1.0000
  H   H1218     1.0  0.93668  0.57149  0.62469  1.0000
  H   H1219     1.0  0.70101  0.76248  0.52009  1.0000
  H   H1220     1.0  0.81815  0.59852  0.59327  1.0000
  C   C1013     1.0  0.71209  0.68181  0.53737  1.0000
  C   C1014     1.0  0.69441  0.68604  0.52703  1.0000
  C   C1015     1.0  0.57171  0.71667  0.61773  1.0000
  C   C1016     1.0  0.99171  0.58043  0.57979  1.0000
  C   C1017     1.0  0.80486  0.58056  0.59340  1.0000
  C   C1018     1.0  0.86593  0.64081  0.51924  1.0000
  C   C1019     1.0  0.82595  0.56797  0.56397  1.0000
  H   H1221     1.0  0.98094  0.57780  0.63070  1.0000
  C   C1020     1.0  0.71910  0.66699  0.52478  1.0000
  H   H1222     1.0  0.98095  0.58817  0.57194  1.0000
  C   C1021     1.0  0.86881  0.56735  0.55619  1.0000
  S   S276      1.0  0.60180  0.72327  0.53192  1.0000
  Fe  Fe138     1.0  0.93179  0.62424  0.51111  1.0000
  C   C1022     1.0  0.63320  0.56767  0.56855  1.0000
  H   H1223     1.0  0.76756  0.54765  0.57294  1.0000
  C   C1023     1.0  0.87840  0.62907  0.51154  1.0000
  C   C1024     1.0  0.60542  0.54646  0.60333  1.0000
  H   H1224     1.0  0.88341  0.60368  0.55739  1.0000
  H   H1225     1.0  0.54833  0.57391  0.67862  1.0000
  H   H1226     1.0  0.58847  0.76720  0.55855  1.0000
  C   C1025     1.0  0.84673  0.58830  0.56227  1.0000
  H   H1227     1.0  0.61565  0.58610  0.58613  1.0000
  H   H1228     1.0  0.58664  0.57609  0.66909  1.0000
  C   C1026     1.0  0.99230  0.59496  0.62301  1.0000
  H   H1229     1.0  0.56878  0.67328  0.67656  1.0000
  S   S277      1.0  0.71738  0.59977  0.53521  1.0000
  H   H1230     1.0  0.64694  0.59611  0.66725  1.0000
  H   H1231     1.0  0.61084  0.56079  0.61736  1.0000
  H   H1232     1.0  0.57563  0.69932  0.69420  1.0000
  C   C1027     1.0  0.70455  0.53975  0.61502  1.0000
  H   H1233     1.0  0.03633  0.56233  0.69170  1.0000
  H   H1234     1.0  0.65854  0.55090  0.59249  1.0000
  H   H1235     1.0  0.80028  0.57435  0.52789  1.0000
  Fe  Fe139     1.0  0.98116  0.62953  0.51639  1.0000
  C   C1028     1.0  0.64358  0.55003  0.60366  1.0000
  H   H1236     1.0  0.97967  0.56305  0.58625  1.0000
  C   C1029     1.0  0.54880  0.65512  0.58690  1.0000
  H   H1237     1.0  0.78829  0.58095  0.59779  1.0000
  Fe  Fe140     1.0  0.63518  0.74231  0.51068  1.0000
  H   H1238     1.0  0.59323  0.77061  0.51097  1.0000
  H   H1239     1.0  0.78153  0.53685  0.55099  1.0000
  C   C1030     1.0  0.56185  0.68210  0.68982  1.0000
  H   H1240     1.0  0.59085  0.54577  0.59164  1.0000
  H   H1241     1.0  0.63816  0.53530  0.61716  1.0000
  C   C1031     1.0  0.84877  0.54707  0.55759  1.0000
  C   C1032     1.0  0.84292  0.63325  0.51175  1.0000
  C   C1033     1.0  0.55144  0.61993  0.53588  1.0000
  S   S278      1.0  0.60386  0.54287  0.67236  1.0000
  H   H1242     1.0  0.55612  0.63619  0.64582  1.0000
  H   H1243     1.0  0.78517  0.53583  0.58583  1.0000
  C   C1034     1.0  0.58680  0.78087  0.54863  1.0000
  H   H1244     1.0  0.01717  0.53432  0.63648  1.0000
  H   H1245     1.0  0.55771  0.67258  0.70854  1.0000
  H   H1246     1.0  0.54689  0.60882  0.57561  1.0000
  C   C1035     1.0  0.04587  0.59571  0.60936  1.0000
  C   C1036     1.0  0.54658  0.61350  0.50993  1.0000
  Fe  Fe141     1.0  0.61637  0.91064  0.46439  1.0000
  S   S279      1.0  0.61047  0.91497  0.42227  1.0000
  S   S280      1.0  0.65118  0.92461  0.48285  1.0000
  H   H1247     1.0  0.75358  0.78730  0.49815  1.0000
  H   H1248     1.0  0.64320  0.84909  0.47711  1.0000
  H   H1249     1.0  0.61668  0.96636  0.44913  1.0000
  C   C1037     1.0  0.64522  0.80204  0.50296  1.0000
  H   H1250     1.0  0.63932  0.02311  0.41231  1.0000
  C   C1038     1.0  0.55693  0.89847  0.29952  1.0000
  H   H1251     1.0  0.61823  0.99324  0.44045  1.0000
  H   H1252     1.0  0.56915  0.90130  0.33863  1.0000
  C   C1039     1.0  0.58139  0.90764  0.41730  1.0000
  C   C1040     1.0  0.56489  0.89335  0.43488  1.0000
  C   C1041     1.0  0.56737  0.02167  0.32274  1.0000
  C   C1042     1.0  0.54891  0.00080  0.31652  1.0000
  C   C1043     1.0  0.55540  0.89163  0.32531  1.0000
  C   C1044     1.0  0.57459  0.91615  0.39585  1.0000
  H   H1253     1.0  0.56997  0.88663  0.45140  1.0000
  S   S281      1.0  0.60087  0.87881  0.48836  1.0000
  H   H1254     1.0  0.58731  0.92734  0.38229  1.0000
  C   C1045     1.0  0.64407  0.81709  0.48431  1.0000
  C   C1046     1.0  0.64373  0.83758  0.49174  1.0000
  C   C1047     1.0  0.65634  0.02933  0.42021  1.0000
  H   H1255     1.0  0.69378  0.01445  0.45156  1.0000
  C   C1048     1.0  0.66000  0.97609  0.44296  1.0000
  H   H1256     1.0  0.70650  0.78957  0.45501  1.0000
  C   C1049     1.0  0.66406  0.01431  0.43144  1.0000
  H   H1257     1.0  0.63333  0.99096  0.46845  1.0000
  H   H1258     1.0  0.67554  0.97864  0.43170  1.0000
  C   C1050     1.0  0.68657  0.02427  0.44187  1.0000
  H   H1259     1.0  0.64830  0.95755  0.44254  1.0000
  C   C1051     1.0  0.64137  0.98106  0.40535  1.0000
  N   N70       1.0  0.64890  0.98955  0.43206  1.0000
  H   H1260     1.0  0.66472  0.98036  0.46369  1.0000
  H   H1261     1.0  0.63091  0.96227  0.40499  1.0000
  H   H1262     1.0  0.63045  0.98818  0.39667  1.0000
  H   H1263     1.0  0.73509  0.79710  0.46519  1.0000
  C   C1052     1.0  0.62840  0.98489  0.44817  1.0000
  S   S282      1.0  0.60343  0.92957  0.49011  1.0000
  H   H1264     1.0  0.57185  0.91336  0.29281  1.0000
  H   H1265     1.0  0.64371  0.81300  0.46392  1.0000
  C   C1053     1.0  0.55135  0.91054  0.39216  1.0000
  H   H1266     1.0  0.65635  0.98529  0.39226  1.0000
  H   H1267     1.0  0.58147  0.02205  0.33400  1.0000
  H   H1268     1.0  0.59106  0.80244  0.48807  1.0000
  S   S283      1.0  0.54907  0.97553  0.32709  1.0000
  H   H1269     1.0  0.65449  0.02383  0.50458  1.0000
  C   C1054     1.0  0.67119  0.02432  0.50648  1.0000
  C   C1055     1.0  0.71881  0.78254  0.45928  1.0000
  C   C1056     1.0  0.58816  0.80062  0.50887  1.0000
  C   C1057     1.0  0.55513  0.90189  0.56024  1.0000
  C   C1058     1.0  0.58271  0.79689  0.56273  1.0000
  C   C1059     1.0  0.59695  0.85514  0.56139  1.0000
  C   C1060     1.0  0.57267  0.82809  0.59250  1.0000
  C   C1061     1.0  0.56251  0.01896  0.72026  1.0000
  H   H1270     1.0  0.58852  0.95090  0.59178  1.0000
  C   C1062     1.0  0.62158  0.00151  0.58236  1.0000
  S   S284      1.0  0.55620  0.88489  0.53446  1.0000
  S   S285      1.0  0.62377  0.91303  0.53849  1.0000
  H   H1271     1.0  0.58793  0.82834  0.60232  1.0000
  H   H1272     1.0  0.57739  0.01636  0.72443  1.0000
  H   H1273     1.0  0.61278  0.85490  0.56899  1.0000
  N   N71       1.0  0.57687  0.83269  0.56426  1.0000
  H   H1274     1.0  0.58118  0.79462  0.58349  1.0000
  H   H1275     1.0  0.56359  0.99553  0.63375  1.0000
  H   H1276     1.0  0.55944  0.84060  0.53306  1.0000
  H   H1277     1.0  0.56879  0.01277  0.66207  1.0000
  C   C1063     1.0  0.57418  0.92230  0.56599  1.0000
  C   C1064     1.0  0.57352  0.93546  0.58708  1.0000
  H   H1278     1.0  0.56915  0.84129  0.60235  1.0000
  H   H1279     1.0  0.64745  0.01875  0.55437  1.0000
  H   H1280     1.0  0.57155  0.02029  0.79196  1.0000
  H   H1281     1.0  0.58953  0.92797  0.55431  1.0000
  C   C1065     1.0  0.55667  0.00519  0.64568  1.0000
  C   C1066     1.0  0.64627  0.82855  0.53663  1.0000
  H   H1282     1.0  0.59765  0.98726  0.61389  1.0000
  H   H1283     1.0  0.64718  0.79658  0.54383  1.0000
  H   H1284     1.0  0.61336  0.98661  0.57011  1.0000
  H   H1285     1.0  0.64764  0.83312  0.55693  1.0000
  C   C1067     1.0  0.64599  0.80776  0.52924  1.0000
  S   S286      1.0  0.55366  0.94544  0.62871  1.0000
  N   N72       1.0  0.55383  0.02277  0.63018  1.0000
  H   H1286     1.0  0.60047  0.86052  0.54081  1.0000
  C   C1068     1.0  0.61276  0.00188  0.60693  1.0000
  C   C1069     1.0  0.62353  0.02097  0.62262  1.0000
  S   S287      1.0  0.64775  0.87052  0.52826  1.0000
  H   H1287     1.0  0.72157  0.79020  0.50993  1.0000
  C   C1070     1.0  0.64129  0.02008  0.57350  1.0000
  C   C1071     1.0  0.55652  0.83402  0.55331  1.0000
  H   H1288     1.0  0.55757  0.81149  0.59612  1.0000
  C   C1072     1.0  0.58117  0.81535  0.55010  1.0000
  H   H1289     1.0  0.55195  0.84592  0.56449  1.0000
  H   H1290     1.0  0.59446  0.86876  0.57169  1.0000
  H   H1291     1.0  0.61672  0.02112  0.64182  1.0000
  C   C1073     1.0  0.55374  0.92849  0.60234  1.0000
  C   C1074     1.0  0.64523  0.84364  0.51796  1.0000
  Fe  Fe142     1.0  0.59119  0.89945  0.51597  1.0000
  C   C1075     1.0  0.55344  0.01372  0.78787  1.0000
  H   H1292     1.0  0.69615  0.98982  0.51845  1.0000
  S   S288      1.0  0.64748  0.97948  0.51907  1.0000
  H   H1293     1.0  0.58411  0.83076  0.51190  1.0000
  C   C1076     1.0  0.71435  0.02610  0.51209  1.0000
  C   C1077     1.0  0.58421  0.81679  0.52275  1.0000
  Fe  Fe143     1.0  0.63727  0.94225  0.51021  1.0000
  H   H1294     1.0  0.58203  0.02957  0.60418  1.0000
  C   C1078     1.0  0.69459  0.00511  0.51404  1.0000
  C   C1079     1.0  0.67289  0.00426  0.51183  1.0000
  H   H1295     1.0  0.73107  0.02676  0.51466  1.0000
  Fe  Fe144     1.0  0.63451  0.89381  0.50932  1.0000
  C   C1080     1.0  0.58943  0.78269  0.52177  1.0000
  H   H1296     1.0  0.54735  0.97936  0.79123  1.0000
