data_image0
_chemical_formula_structural       HFeSHFeSFeSFeS3H3C5H3CSNHC2HC3HC4H2SC2H3C2H2CH2C2H5C3HCSNH2C3H2CHCH3C2H2CHC2HCHCSH2NC3HC3NHCH2CHC2H2CFeHCH7CH2NC4HSH10SC4H2CH5CHCHC2H3FeCHC2H3CHC2H2CHC2H3CHFeCSCHSCSFeCHSC2H2CSHFeCSC2HC2SCFeCH2NC2HFeCHCH2SHSFeSH3FeCSCHNSH3SH2C5SNH10SHSH2SHFeSHFeSFeS2FeS2C8H4CSFeH3FeHC2H4CSCH2C2H4C2HCH3CH4NHFeC4H2CH4CHCH2C5HSHC3HCNHCHCHSHCH3CHCHC2FeS2FeS2Fe2S3CHCSH2CH5C4HCH2CHC5H2C3H3C3H3CH2NHCNH2CHC3H5CHCHNH3C3HCH2C6SH4CH3C2H4CFeS2FeS2FeSFeS3FeSHFeSHFe2SCSH2CHC2HCHC2H2CHCHC6H4C6H2C4H2SNC6HC2H14C3SCH4C2HNH4CHCHSCHCHCH3C3NSCH3CH3CH8CFeS2FeS2FeHFeS3FeS2FeSHFeSFeS2C2HC2H2CHC7H5CH2C7H5CHCNH2CH3CH6C3H4NC3HC2HC3H3C3H5CHC2HC4H3CH2C2H2SCSC2H3C2FeS2FeS2Fe2S4C2HC6HCH2C6H6C3HCH4SH2SHC2HNC4HCH2CH11NCNHCNC3HCH3C2HC2HC3FeH2CHC3SCSCH2FeCH4CH4CH3C3HC4H2NCH2C3H2CHC2H3C2SH2S2H4FeS2HSFeS3H2CS2FeH3C6H5NC9H11CH5SC2H2FeC2HSCNFe2CHCHCHCH4C3H2CHCH6CHFeS2FeS2FeCFeS3FeS2FeSFeHFeS3CSHCHC6H4C2H2CHCHC4H4CH3NC5HNH3CSH2C3H5CH2C4H6C2HCNC2HC2H4CH7CH3CNC4HCHCHCHC2HCHCHFeSFeS2FeSFeS3HCH2C8H2C6H5CH2NHCHCH3C2HCHCNCHCH2C2HNC8SH15CH2CH2SH3CHC4HCHC
_chemical_formula_sum              "H576 Fe64 S128 C480 N32"
_cell_length_a       44.9344
_cell_length_b       46.8244
_cell_length_c       29.6132
_cell_angle_alpha    88.2798
_cell_angle_beta     110.641
_cell_angle_gamma    90.4181

_space_group_name_H-M_alt    "P 1"
_space_group_IT_number       1

loop_
  _space_group_symop_operation_xyz
  'x, y, z'

loop_
  _atom_site_type_symbol
  _atom_site_label
  _atom_site_symmetry_multiplicity
  _atom_site_fract_x
  _atom_site_fract_y
  _atom_site_fract_z
  _atom_site_occupancy
  H   H1        1.0  0.43415  0.28617  0.33052  1.0000
  Fe  Fe1       1.0  0.13047  0.28117  0.27330  1.0000
  S   S1        1.0  0.14544  0.24292  0.24326  1.0000
  H   H2        1.0  0.45414  0.29540  0.45018  1.0000
  Fe  Fe2       1.0  0.06899  0.25127  0.27432  1.0000
  S   S2        1.0  0.07944  0.21144  0.24182  1.0000
  Fe  Fe3       1.0  0.12898  0.21719  0.29502  1.0000
  S   S3        1.0  0.15796  0.18227  0.34515  1.0000
  Fe  Fe4       1.0  0.09434  0.24171  0.19285  1.0000
  S   S4        1.0  0.09015  0.23977  0.11413  1.0000
  S   S5        1.0  0.11806  0.25583  0.32928  1.0000
  S   S6        1.0  0.07991  0.28133  0.22124  1.0000
  H   H3        1.0  0.18731  0.32269  0.40344  1.0000
  H   H4        1.0  0.30428  0.30998  0.47143  1.0000
  H   H5        1.0  0.50960  0.29174  0.15303  1.0000
  C   C1        1.0  0.05475  0.23747  0.01759  1.0000
  C   C2        1.0  0.13895  0.29828  0.09181  1.0000
  C   C3        1.0  0.15036  0.18227  0.39938  1.0000
  C   C4        1.0  0.12366  0.19659  0.40109  1.0000
  C   C5        1.0  0.17133  0.16887  0.44147  1.0000
  H   H6        1.0  0.10627  0.20536  0.36841  1.0000
  H   H7        1.0  0.19179  0.15736  0.44016  1.0000
  H   H8        1.0  0.26462  0.22797  0.36990  1.0000
  C   C6        1.0  0.19956  0.32290  0.29262  1.0000
  S   S7        1.0  0.29843  0.33284  0.28140  1.0000
  N   N1        1.0  0.09301  0.10425  0.45013  1.0000
  H   H9        1.0  0.46378  0.25245  0.18514  1.0000
  C   C7        1.0  0.12733  0.31042  0.16170  1.0000
  C   C8        1.0  0.11933  0.19977  0.44510  1.0000
  H   H10       1.0  0.48106  0.23689  0.04464  1.0000
  C   C9        1.0  0.29226  0.24883  0.45798  1.0000
  C   C10       1.0  0.49352  0.30076  0.17037  1.0000
  C   C11       1.0  0.21286  0.31934  0.41914  1.0000
  H   H11       1.0  0.10715  0.09682  0.38892  1.0000
  C   C12       1.0  0.50017  0.27007  0.30353  1.0000
  C   C13       1.0  0.46984  0.26716  0.30692  1.0000
  C   C14       1.0  0.45759  0.28845  0.32839  1.0000
  C   C15       1.0  0.16930  0.33652  0.14522  1.0000
  H   H12       1.0  0.19562  0.28578  0.24974  1.0000
  H   H13       1.0  0.45574  0.24847  0.29272  1.0000
  S   S8        1.0  0.51498  0.24374  0.27529  1.0000
  C   C16       1.0  0.25242  0.24643  0.37882  1.0000
  C   C17       1.0  0.26488  0.33588  0.46789  1.0000
  H   H14       1.0  0.14619  0.30558  0.06113  1.0000
  H   H15       1.0  0.30991  0.25704  0.37974  1.0000
  H   H16       1.0  0.52904  0.25150  0.11292  1.0000
  C   C18       1.0  0.49684  0.25293  0.03866  1.0000
  C   C19       1.0  0.11010  0.11290  0.41708  1.0000
  H   H17       1.0  0.10461  0.29850  0.14637  1.0000
  H   H18       1.0  0.09945  0.21218  0.44621  1.0000
  C   C20       1.0  0.05854  0.09947  0.42506  1.0000
  H   H19       1.0  0.13614  0.11523  0.43682  1.0000
  H   H20       1.0  0.39519  0.28553  0.11595  1.0000
  C   C21       1.0  0.14050  0.18704  0.48735  1.0000
  C   C22       1.0  0.29866  0.27532  0.39093  1.0000
  H   H21       1.0  0.08734  0.14793  0.46613  1.0000
  H   H22       1.0  0.05452  0.11689  0.35326  1.0000
  H   H23       1.0  0.11511  0.28817  0.07567  1.0000
  H   H24       1.0  0.47638  0.25086  0.13412  1.0000
  H   H25       1.0  0.42698  0.29414  0.07149  1.0000
  C   C23       1.0  0.25992  0.29084  0.42523  1.0000
  C   C24       1.0  0.22642  0.29522  0.40723  1.0000
  C   C25       1.0  0.47420  0.29168  0.48346  1.0000
  H   H26       1.0  0.43499  0.25229  0.12506  1.0000
  C   C26       1.0  0.43786  0.30419  0.16753  1.0000
  S   S9        1.0  0.37593  0.31298  0.37915  1.0000
  N   N2        1.0  0.27527  0.26573  0.41319  1.0000
  H   H27       1.0  0.31849  0.28781  0.41575  1.0000
  H   H28       1.0  0.10367  0.05925  0.45296  1.0000
  C   C27       1.0  0.51817  0.29428  0.32190  1.0000
  C   C28       1.0  0.45861  0.26067  0.14740  1.0000
  C   C29       1.0  0.19719  0.32813  0.13666  1.0000
  H   H29       1.0  0.46774  0.29517  0.07756  1.0000
  H   H30       1.0  0.27575  0.24215  0.47689  1.0000
  C   C30       1.0  0.40476  0.29849  0.14738  1.0000
  H   H31       1.0  0.50252  0.29262  0.20850  1.0000
  C   C31       1.0  0.47568  0.31277  0.34642  1.0000
  H   H32       1.0  0.23484  0.23722  0.39392  1.0000
  H   H33       1.0  0.13503  0.08020  0.49319  1.0000
  H   H34       1.0  0.23926  0.25783  0.34391  1.0000
  C   C32       1.0  0.10867  0.07787  0.47700  1.0000
  C   C33       1.0  0.50600  0.31541  0.34324  1.0000
  H   H35       1.0  0.10202  0.13416  0.39913  1.0000
  H   H36       1.0  0.28719  0.28915  0.35838  1.0000
  C   C34       1.0  0.16611  0.17087  0.48544  1.0000
  H   H37       1.0  0.30324  0.22919  0.45025  1.0000
  C   C35       1.0  0.24120  0.30613  0.26518  1.0000
  C   C36       1.0  0.38345  0.30906  0.16779  1.0000
  H   H38       1.0  0.37794  0.33358  0.22479  1.0000
  C   C37       1.0  0.21070  0.30305  0.26788  1.0000
  H   H39       1.0  0.15514  0.28081  0.11275  1.0000
  C   C38       1.0  0.05393  0.23742  0.06463  1.0000
  S   S10       1.0  0.16047  0.32118  0.29380  1.0000
  H   H40       1.0  0.24923  0.29129  0.24456  1.0000
  H   H41       1.0  0.21003  0.28085  0.38266  1.0000
  N   N3        1.0  0.45991  0.29235  0.14554  1.0000
  C   C39       1.0  0.45056  0.30239  0.09437  1.0000
  C   C40       1.0  0.52390  0.26126  0.07742  1.0000
  C   C41       1.0  0.03961  0.08806  0.45091  1.0000
  H   H42       1.0  0.47297  0.32611  0.22817  1.0000
  C   C42       1.0  0.50377  0.28488  0.48125  1.0000
  C   C43       1.0  0.09714  0.12729  0.48491  1.0000
  C   C44       1.0  0.27867  0.31180  0.45637  1.0000
  N   N4        1.0  0.13820  0.32224  0.12321  1.0000
  H   H43       1.0  0.09079  0.33302  0.07508  1.0000
  C   C45       1.0  0.04243  0.10739  0.37568  1.0000
  H   H44       1.0  0.19752  0.31037  0.11447  1.0000
  H   H45       1.0  0.50653  0.28319  0.44644  1.0000
  C   C46       1.0  0.03597  0.18960  0.44406  1.0000
  H   H46       1.0  0.14522  0.29534  0.18606  1.0000
  C   C47       1.0  0.04560  0.20444  0.48718  1.0000
  C   C48       1.0  0.42667  0.33178  0.22918  1.0000
  H   H47       1.0  0.31205  0.26107  0.48368  1.0000
  H   H48       1.0  0.07737  0.23886  0.01237  1.0000
  C   C49       1.0  0.39441  0.32565  0.20864  1.0000
  Fe  Fe5       1.0  0.37586  0.33157  0.44796  1.0000
  H   H49       1.0  0.35832  0.30420  0.15213  1.0000
  C   C50       1.0  0.26121  0.32848  0.28849  1.0000
  H   H50       1.0  0.04434  0.19612  0.41511  1.0000
  H   H51       1.0  0.12317  0.32712  0.18472  1.0000
  H   H52       1.0  0.52022  0.33397  0.35708  1.0000
  H   H53       1.0  0.21363  0.28109  0.49974  1.0000
  H   H54       1.0  0.05001  0.08227  0.48884  1.0000
  H   H55       1.0  0.44960  0.32615  0.09134  1.0000
  H   H56       1.0  0.49655  0.32435  0.16973  1.0000
  C   C51       1.0  0.44825  0.32114  0.20937  1.0000
  H   H57       1.0  0.06213  0.22185  0.49072  1.0000
  H   H58       1.0  0.24736  0.33520  0.15220  1.0000
  N   N5        1.0  0.04276  0.21427  0.56882  1.0000
  C   C52       1.0  0.04757  0.21392  0.74377  1.0000
  C   C53       1.0  0.03782  0.07414  0.67445  1.0000
  C   C54       1.0  0.03340  0.24455  0.55529  1.0000
  C   C55       1.0  0.03395  0.18694  0.74322  1.0000
  H   H59       1.0  0.03855  0.25790  0.58768  1.0000
  S   S11       1.0  0.03067  0.24442  0.75884  1.0000
  H   H60       1.0  0.03161  0.05473  0.69183  1.0000
  H   H61       1.0  0.04054  0.10512  0.59822  1.0000
  H   H62       1.0  0.12271  0.13067  0.50654  1.0000
  H   H63       1.0  0.03833  0.14189  0.73436  1.0000
  H   H64       1.0  0.08480  0.12255  0.51077  1.0000
  H   H65       1.0  0.04634  0.25455  0.53310  1.0000
  H   H66       1.0  0.03376  0.21831  0.63556  1.0000
  H   H67       1.0  0.52094  0.23900  0.92935  1.0000
  H   H68       1.0  0.05909  0.06955  0.66475  1.0000
  H   H69       1.0  0.04561  0.09061  0.70266  1.0000
  S   S12       1.0  0.41003  0.33142  0.72153  1.0000
  C   C56       1.0  0.51430  0.31358  0.64811  1.0000
  C   C57       1.0  0.04864  0.16273  0.73339  1.0000
  C   C58       1.0  0.52623  0.28269  0.56858  1.0000
  C   C59       1.0  0.11560  0.15255  0.84989  1.0000
  H   H70       1.0  0.19591  0.15154  0.92131  1.0000
  H   H71       1.0  0.19707  0.15612  0.79545  1.0000
  C   C60       1.0  0.39657  0.32377  0.65974  1.0000
  H   H72       1.0  0.16164  0.21157  0.85397  1.0000
  H   H73       1.0  0.27689  0.26591  0.69622  1.0000
  H   H74       1.0  0.18931  0.11339  0.83436  1.0000
  H   H75       1.0  0.44659  0.29883  0.52692  1.0000
  H   H76       1.0  0.34723  0.24344  0.66725  1.0000
  C   C61       1.0  0.32374  0.24002  0.63837  1.0000
  H   H77       1.0  0.44329  0.28063  0.59853  1.0000
  C   C62       1.0  0.16788  0.12299  0.83871  1.0000
  H   H78       1.0  0.52538  0.30559  0.79629  1.0000
  C   C63       1.0  0.46039  0.29737  0.61789  1.0000
  C   C64       1.0  0.03384  0.19715  0.52470  1.0000
  H   H79       1.0  0.09099  0.22284  0.57284  1.0000
  H   H80       1.0  0.38507  0.28023  0.67102  1.0000
  H   H81       1.0  0.08599  0.19020  0.60240  1.0000
  Fe  Fe6       1.0  0.13633  0.13728  0.68658  1.0000
  C   C65       1.0  0.22466  0.26587  0.52914  1.0000
  H   H82       1.0  0.20534  0.18278  0.89237  1.0000
  C   C66       1.0  0.20956  0.23998  0.53091  1.0000
  C   C67       1.0  0.34374  0.18756  0.73740  1.0000
  H   H83       1.0  0.18232  0.16058  0.51786  1.0000
  H   H84       1.0  0.45871  0.29842  0.65450  1.0000
  H   H85       1.0  0.48853  0.24520  0.62636  1.0000
  C   C68       1.0  0.47030  0.29371  0.52812  1.0000
  H   H86       1.0  0.45210  0.31848  0.59968  1.0000
  C   C69       1.0  0.14283  0.16817  0.84959  1.0000
  C   C70       1.0  0.07766  0.21278  0.59439  1.0000
  H   H87       1.0  0.15528  0.16400  0.76867  1.0000
  H   H88       1.0  0.35440  0.21104  0.80257  1.0000
  C   C71       1.0  0.08928  0.19588  0.85876  1.0000
  H   H89       1.0  0.08515  0.22402  0.62923  1.0000
  C   C72       1.0  0.33702  0.19808  0.77650  1.0000
  C   C73       1.0  0.22356  0.22026  0.56843  1.0000
  H   H90       1.0  0.29136  0.30429  0.64455  1.0000
  H   H91       1.0  0.31809  0.21703  0.64109  1.0000
  H   H92       1.0  0.31898  0.25837  0.72158  1.0000
  C   C74       1.0  0.07690  0.16533  0.72361  1.0000
  H   H93       1.0  0.22110  0.14902  0.88577  1.0000
  Fe  Fe7       1.0  0.41552  0.22831  0.77123  1.0000
  C   C75       1.0  0.49023  0.26502  0.99212  1.0000
  S   S13       1.0  0.24868  0.16689  0.75739  1.0000
  C   C76       1.0  0.25263  0.22633  0.60441  1.0000
  H   H94       1.0  0.20319  0.04329  0.70159  1.0000
  S   S14       1.0  0.46167  0.21974  0.83235  1.0000
  C   C77       1.0  0.08938  0.16635  0.85465  1.0000
  S   S15       1.0  0.45562  0.25441  0.94469  1.0000
  Fe  Fe8       1.0  0.44967  0.25883  0.86518  1.0000
  C   C78       1.0  0.25363  0.27234  0.56523  1.0000
  H   H95       1.0  0.49887  0.26313  0.68254  1.0000
  S   S16       1.0  0.13372  0.19181  0.54142  1.0000
  C   C79       1.0  0.51076  0.28568  0.98468  1.0000
  C   C80       1.0  0.37953  0.30983  0.56218  1.0000
  H   H96       1.0  0.26401  0.29273  0.56148  1.0000
  H   H97       1.0  0.06858  0.15418  0.85390  1.0000
  C   C81       1.0  0.17396  0.02346  0.63624  1.0000
  S   S17       1.0  0.20001  0.13474  0.62407  1.0000
  H   H98       1.0  0.11488  0.23486  0.86057  1.0000
  Fe  Fe9       1.0  0.15508  0.16050  0.60299  1.0000
  C   C82       1.0  0.11549  0.21180  0.85846  1.0000
  S   S18       1.0  0.37965  0.19584  0.72778  1.0000
  C   C83       1.0  0.07555  0.21660  0.73310  1.0000
  C   C84       1.0  0.32095  0.17058  0.70404  1.0000
  H   H99       1.0  0.30307  0.19938  0.81295  1.0000
  C   C85       1.0  0.19455  0.02331  0.68435  1.0000
  C   C86       1.0  0.17669  0.16667  0.80153  1.0000
  S   S19       1.0  0.09532  0.13417  0.71392  1.0000
  C   C87       1.0  0.14198  0.19824  0.85423  1.0000
  Fe  Fe10      1.0  0.20612  0.14749  0.69973  1.0000
  C   C88       1.0  0.37818  0.28920  0.59649  1.0000
  H   H100      1.0  0.31557  0.29415  0.60983  1.0000
  H   H101      1.0  0.16485  0.11202  0.87067  1.0000
  N   N6        1.0  0.17108  0.15441  0.84456  1.0000
  C   C89       1.0  0.29160  0.16438  0.70934  1.0000
  C   C90       1.0  0.30964  0.28896  0.64259  1.0000
  H   H102      1.0  0.32605  0.16216  0.67390  1.0000
  Fe  Fe11      1.0  0.17015  0.09870  0.63791  1.0000
  C   C91       1.0  0.30788  0.19144  0.78227  1.0000
  H   H103      1.0  0.50547  0.29556  0.94922  1.0000
  C   C92       1.0  0.49632  0.28908  0.57224  1.0000
  H   H104      1.0  0.27437  0.15120  0.68349  1.0000
  H   H105      1.0  0.11182  0.19470  0.71517  1.0000
  S   S20       1.0  0.40175  0.26540  0.80583  1.0000
  H   H106      1.0  0.37149  0.26751  0.58578  1.0000
  S   S21       1.0  0.16194  0.05577  0.60208  1.0000
  Fe  Fe12      1.0  0.48444  0.25112  0.79517  1.0000
  S   S22       1.0  0.16298  0.17609  0.67687  1.0000
  H   H107      1.0  0.29198  0.23040  0.69812  1.0000
  H   H108      1.0  0.33175  0.29322  0.67391  1.0000
  H   H109      1.0  0.08623  0.23744  0.73361  1.0000
  Fe  Fe13      1.0  0.42861  0.29182  0.76838  1.0000
  C   C93       1.0  0.19953  0.15968  0.88790  1.0000
  S   S23       1.0  0.47500  0.28957  0.83139  1.0000
  C   C94       1.0  0.50265  0.26315  0.64730  1.0000
  H   H110      1.0  0.32673  0.24370  0.60296  1.0000
  N   N7        1.0  0.29889  0.25890  0.64348  1.0000
  S   S24       1.0  0.17973  0.10927  0.71541  1.0000
  H   H111      1.0  0.21172  0.20014  0.56976  1.0000
  H   H112      1.0  0.11362  0.12974  0.84559  1.0000
  H   H113      1.0  0.26278  0.20992  0.63199  1.0000
  S   S25       1.0  0.12488  0.12406  0.61082  1.0000
  H   H114      1.0  0.18246  0.18979  0.80443  1.0000
  H   H115      1.0  0.14738  0.11759  0.80573  1.0000
  C   C95       1.0  0.26824  0.25287  0.60465  1.0000
  C   C96       1.0  0.28501  0.17464  0.74869  1.0000
  C   C97       1.0  0.09010  0.19240  0.72275  1.0000
  C   C98       1.0  0.29644  0.25322  0.69169  1.0000
  C   C99       1.0  0.38649  0.29621  0.64495  1.0000
  S   S26       1.0  0.44002  0.25513  0.73061  1.0000
  N   N8        1.0  0.49322  0.29081  0.62029  1.0000
  H   H116      1.0  0.06847  0.20656  0.86091  1.0000
  H   H117      1.0  0.51139  0.31642  0.68352  1.0000
  H   H118      1.0  0.03480  0.18245  0.61773  1.0000
  H   H119      1.0  0.52858  0.23051  0.87608  1.0000
  H   H120      1.0  0.50899  0.33448  0.62796  1.0000
  H   H121      1.0  0.03436  0.02925  0.62657  1.0000
  H   H122      1.0  0.02990  0.12691  0.63913  1.0000
  H   H123      1.0  0.52824  0.25810  0.65608  1.0000
  H   H124      1.0  0.10126  0.07227  0.50822  1.0000
  H   H125      1.0  0.18694  0.23513  0.50315  1.0000
  S   S27       1.0  0.37149  0.29911  0.50286  1.0000
  H   H126      1.0  0.26577  0.36500  0.33282  1.0000
  S   S28       1.0  0.41677  0.36038  0.45386  1.0000
  H   H127      1.0  0.50471  0.66978  0.46474  1.0000
  H   H128      1.0  0.18999  0.65000  0.08982  1.0000
  S   S29       1.0  0.33869  0.36499  0.41323  1.0000
  H   H129      1.0  0.36669  0.56458  0.48311  1.0000
  Fe  Fe14      1.0  0.37983  0.39297  0.41258  1.0000
  S   S30       1.0  0.39561  0.43710  0.44186  1.0000
  H   H130      1.0  0.41862  0.49440  0.45240  1.0000
  Fe  Fe15      1.0  0.34078  0.34805  0.34408  1.0000
  S   S31       1.0  0.37880  0.37889  0.34002  1.0000
  Fe  Fe16      1.0  0.35038  0.59977  0.39648  1.0000
  S   S32       1.0  0.34369  0.63463  0.33942  1.0000
  S   S33       1.0  0.32520  0.55698  0.38074  1.0000
  Fe  Fe17      1.0  0.39653  0.64180  0.37456  1.0000
  S   S34       1.0  0.34131  0.62880  0.44979  1.0000
  S   S35       1.0  0.40324  0.60462  0.42696  1.0000
  C   C100      1.0  0.11429  0.34328  0.09333  1.0000
  C   C101      1.0  0.23202  0.33969  0.44916  1.0000
  C   C102      1.0  0.37609  0.46998  0.41908  1.0000
  C   C103      1.0  0.39344  0.49544  0.43167  1.0000
  C   C104      1.0  0.37840  0.52220  0.41789  1.0000
  C   C105      1.0  0.34562  0.52378  0.39282  1.0000
  C   C106      1.0  0.32833  0.49834  0.37945  1.0000
  C   C107      1.0  0.34355  0.47151  0.39202  1.0000
  H   H131      1.0  0.49614  0.38283  0.44670  1.0000
  H   H132      1.0  0.39201  0.54158  0.42727  1.0000
  H   H133      1.0  0.30297  0.49938  0.35985  1.0000
  H   H134      1.0  0.32993  0.45207  0.38227  1.0000
  C   C108      1.0  0.17235  0.35966  0.17647  1.0000
  S   S36       1.0  0.46170  0.34080  0.37254  1.0000
  Fe  Fe18      1.0  0.39392  0.63629  0.47552  1.0000
  H   H135      1.0  0.26182  0.65312  0.36114  1.0000
  H   H136      1.0  0.48290  0.64889  0.29936  1.0000
  H   H137      1.0  0.25079  0.37542  0.20550  1.0000
  Fe  Fe19      1.0  0.41371  0.34493  0.38139  1.0000
  H   H138      1.0  0.11001  0.36059  0.11521  1.0000
  C   C109      1.0  0.52226  0.39638  0.32709  1.0000
  C   C110      1.0  0.52126  0.39393  0.37376  1.0000
  H   H139      1.0  0.20269  0.65088  0.32893  1.0000
  H   H140      1.0  0.21125  0.36061  0.33532  1.0000
  H   H141      1.0  0.27987  0.35193  0.49068  1.0000
  H   H142      1.0  0.31935  0.47711  0.47560  1.0000
  C   C111      1.0  0.22809  0.36512  0.18793  1.0000
  S   S37       1.0  0.43159  0.64392  0.33489  1.0000
  C   C112      1.0  0.20132  0.37369  0.19738  1.0000
  H   H143      1.0  0.12212  0.35346  0.06495  1.0000
  H   H144      1.0  0.22138  0.35868  0.45718  1.0000
  C   C113      1.0  0.49115  0.61492  0.44011  1.0000
  C   C114      1.0  0.21967  0.34515  0.31615  1.0000
  H   H145      1.0  0.49945  0.40066  0.37792  1.0000
  H   H146      1.0  0.47021  0.62700  0.44140  1.0000
  H   H147      1.0  0.50199  0.40509  0.29781  1.0000
  H   H148      1.0  0.15250  0.36670  0.18593  1.0000
  C   C115      1.0  0.52377  0.65659  0.45983  1.0000
  C   C116      1.0  0.25061  0.34762  0.31493  1.0000
  H   H149      1.0  0.43513  0.34439  0.26142  1.0000
  C   C117      1.0  0.48285  0.66802  0.31898  1.0000
  H   H150      1.0  0.22611  0.64290  0.17456  1.0000
  H   H151      1.0  0.20332  0.39074  0.22226  1.0000
  H   H152      1.0  0.52266  0.33787  0.44718  1.0000
  C   C118      1.0  0.51921  0.39243  0.46925  1.0000
  H   H153      1.0  0.48814  0.59183  0.44725  1.0000
  H   H154      1.0  0.33489  0.52643  0.48920  1.0000
  H   H155      1.0  0.49011  0.61689  0.40195  1.0000
  H   H156      1.0  0.51865  0.41571  0.46025  1.0000
  N   N9        1.0  0.52140  0.62629  0.47426  1.0000
  H   H157      1.0  0.52155  0.65892  0.42122  1.0000
  Fe  Fe20      1.0  0.33864  0.66398  0.39526  1.0000
  C   C119      1.0  0.18746  0.66336  0.11755  1.0000
  C   C120      1.0  0.20785  0.65930  0.16523  1.0000
  C   C121      1.0  0.22607  0.34234  0.15785  1.0000
  C   C122      1.0  0.37701  0.64647  0.63564  1.0000
  H   H158      1.0  0.38929  0.35393  0.54973  1.0000
  H   H159      1.0  0.34728  0.56906  0.52652  1.0000
  C   C123      1.0  0.50411  0.60865  0.58989  1.0000
  H   H160      1.0  0.35265  0.64345  0.63330  1.0000
  H   H161      1.0  0.41503  0.54136  0.63196  1.0000
  H   H162      1.0  0.46499  0.65454  0.64572  1.0000
  H   H163      1.0  0.44318  0.53824  0.57509  1.0000
  C   C124      1.0  0.39701  0.55508  0.60473  1.0000
  H   H164      1.0  0.40697  0.44897  0.58262  1.0000
  C   C125      1.0  0.39681  0.34483  0.62511  1.0000
  H   H165      1.0  0.36785  0.63510  0.56187  1.0000
  H   H166      1.0  0.42390  0.49846  0.59947  1.0000
  C   C126      1.0  0.38564  0.64156  0.59531  1.0000
  C   C127      1.0  0.41741  0.64438  0.59897  1.0000
  C   C128      1.0  0.39984  0.65545  0.67885  1.0000
  C   C129      1.0  0.42388  0.55060  0.54759  1.0000
  C   C130      1.0  0.39132  0.46631  0.56342  1.0000
  H   H167      1.0  0.40437  0.36629  0.63631  1.0000
  S   S38       1.0  0.38875  0.66241  0.72865  1.0000
  H   H168      1.0  0.44919  0.66557  0.71541  1.0000
  C   C131      1.0  0.40088  0.49471  0.57236  1.0000
  C   C132      1.0  0.43143  0.65887  0.68202  1.0000
  C   C133      1.0  0.52382  0.62419  0.52550  1.0000
  H   H169      1.0  0.43192  0.57325  0.55003  1.0000
  C   C134      1.0  0.38144  0.51774  0.54601  1.0000
  N   N10       1.0  0.39284  0.54756  0.55456  1.0000
  H   H170      1.0  0.37426  0.55267  0.61155  1.0000
  C   C135      1.0  0.37072  0.56883  0.52164  1.0000
  H   H171      1.0  0.38033  0.59087  0.52829  1.0000
  C   C136      1.0  0.44031  0.65274  0.64248  1.0000
  H   H172      1.0  0.40501  0.57764  0.61214  1.0000
  S   S39       1.0  0.42977  0.63625  0.55088  1.0000
  H   H173      1.0  0.48567  0.59897  0.60088  1.0000
  C   C137      1.0  0.50013  0.61119  0.54079  1.0000
  H   H174      1.0  0.42220  0.54307  0.51149  1.0000
  H   H175      1.0  0.52001  0.38999  0.50715  1.0000
  H   H176      1.0  0.47816  0.60311  0.51562  1.0000
  C   C138      1.0  0.36198  0.46003  0.52873  1.0000
  H   H177      1.0  0.35515  0.43799  0.52054  1.0000
  C   C139      1.0  0.35129  0.51058  0.51162  1.0000
  H   H178      1.0  0.52810  0.67080  0.93471  1.0000
  C   C140      1.0  0.38832  0.33785  0.57622  1.0000
  C   C141      1.0  0.34187  0.48211  0.50339  1.0000
  Fe  Fe21      1.0  0.12810  0.79556  0.31709  1.0000
  S   S40       1.0  0.11384  0.75533  0.34678  1.0000
  S   S41       1.0  0.16416  0.82279  0.37057  1.0000
  Fe  Fe22      1.0  0.08946  0.78087  0.21285  1.0000
  S   S42       1.0  0.07345  0.73917  0.23547  1.0000
  S   S43       1.0  0.07690  0.79637  0.13512  1.0000
  Fe  Fe23      1.0  0.06521  0.76479  0.29322  1.0000
  Fe  Fe24      1.0  0.12416  0.73453  0.28677  1.0000
  S   S44       1.0  0.15404  0.69428  0.29937  1.0000
  S   S45       1.0  0.07866  0.80696  0.26782  1.0000
  S   S46       1.0  0.14075  0.77430  0.25958  1.0000
  C   C142      1.0  0.11425  0.71912  0.15797  1.0000
  H   H179      1.0  0.13343  0.77076  0.13431  1.0000
  C   C143      1.0  0.24794  0.67263  0.35231  1.0000
  S   S47       1.0  0.30524  0.70196  0.38361  1.0000
  H   H180      1.0  0.22197  0.70964  0.48435  1.0000
  H   H181      1.0  0.17049  0.77149  0.43086  1.0000
  C   C144      1.0  0.20470  0.67632  0.20104  1.0000
  H   H182      1.0  0.48316  0.77685  0.24640  1.0000
  H   H183      1.0  0.12714  0.71967  0.19757  1.0000
  H   H184      1.0  0.22124  0.79737  0.43904  1.0000
  H   H185      1.0  0.44245  0.69881  0.38274  1.0000
  H   H186      1.0  0.05750  0.80677  0.03290  1.0000
  C   C145      1.0  0.46012  0.69600  0.36614  1.0000
  C   C146      1.0  0.48272  0.71752  0.36890  1.0000
  C   C147      1.0  0.50550  0.71433  0.34684  1.0000
  C   C148      1.0  0.51833  0.74239  0.00820  1.0000
  H   H187      1.0  0.45448  0.70627  0.20795  1.0000
  C   C149      1.0  0.46178  0.76159  0.05788  1.0000
  H   H188      1.0  0.48223  0.73692  0.38757  1.0000
  H   H189      1.0  0.50525  0.71150  0.19531  1.0000
  C   C150      1.0  0.50538  0.73392  0.20690  1.0000
  H   H190      1.0  0.03062  0.83939  0.17944  1.0000
  C   C151      1.0  0.15995  0.70220  0.14116  1.0000
  C   C152      1.0  0.23463  0.72754  0.47353  1.0000
  C   C153      1.0  0.04219  0.79032  0.03903  1.0000
  C   C154      1.0  0.21444  0.67142  0.33417  1.0000
  C   C155      1.0  0.19609  0.69658  0.32271  1.0000
  H   H191      1.0  0.14883  0.68641  0.06785  1.0000
  H   H192      1.0  0.08332  0.83123  0.44455  1.0000
  C   C156      1.0  0.26332  0.69909  0.35912  1.0000
  C   C157      1.0  0.24497  0.72421  0.34744  1.0000
  C   C158      1.0  0.21154  0.72300  0.32934  1.0000
  H   H193      1.0  0.25672  0.74474  0.35214  1.0000
  H   H194      1.0  0.19781  0.74253  0.32025  1.0000
  H   H195      1.0  0.22049  0.67311  0.23821  1.0000
  C   C159      1.0  0.11894  0.82702  0.41214  1.0000
  C   C160      1.0  0.15095  0.83062  0.41797  1.0000
  C   C161      1.0  0.17249  0.83989  0.46206  1.0000
  H   H196      1.0  0.10219  0.81997  0.37820  1.0000
  H   H197      1.0  0.19722  0.84290  0.46649  1.0000
  H   H198      1.0  0.47286  0.77450  0.03722  1.0000
  C   C162      1.0  0.15103  0.75293  0.14357  1.0000
  H   H199      1.0  0.16446  0.75405  0.18295  1.0000
  H   H200      1.0  0.09478  0.73523  0.14926  1.0000
  N   N11       1.0  0.21758  0.75517  0.46797  1.0000
  H   H201      1.0  0.23377  0.76952  0.41045  1.0000
  C   C163      1.0  0.50571  0.68933  0.32232  1.0000
  N   N12       1.0  0.13538  0.72487  0.12996  1.0000
  H   H202      1.0  0.10307  0.69766  0.15025  1.0000
  H   H203      1.0  0.52318  0.68654  0.30536  1.0000
  C   C164      1.0  0.42392  0.72550  0.06066  1.0000
  H   H204      1.0  0.42353  0.71223  0.12929  1.0000
  C   C165      1.0  0.43743  0.74291  0.03416  1.0000
  C   C166      1.0  0.50224  0.71687  0.00951  1.0000
  C   C167      1.0  0.18474  0.75175  0.43337  1.0000
  H   H205      1.0  0.23713  0.72120  0.43903  1.0000
  H   H206      1.0  0.17961  0.70993  0.21857  1.0000
  H   H207      1.0  0.49212  0.78912  0.19558  1.0000
  H   H208      1.0  0.52168  0.74622  0.19270  1.0000
  H   H209      1.0  0.45118  0.78676  0.19127  1.0000
  C   C168      1.0  0.12978  0.84224  0.49412  1.0000
  H   H210      1.0  0.42880  0.73709  0.20104  1.0000
  C   C169      1.0  0.47480  0.77601  0.20619  1.0000
  H   H211      1.0  0.09671  0.74450  0.07129  1.0000
  N   N13       1.0  0.47291  0.74615  0.18981  1.0000
  H   H212      1.0  0.32829  0.73360  0.47336  1.0000
  H   H213      1.0  0.17188  0.73376  0.44351  1.0000
  H   H214      1.0  0.49335  0.77622  0.12488  1.0000
  C   C170      1.0  0.04671  0.78069  0.08637  1.0000
  C   C171      1.0  0.10830  0.83326  0.44987  1.0000
  C   C172      1.0  0.23376  0.77634  0.44617  1.0000
  H   H215      1.0  0.46355  0.73189  0.25371  1.0000
  C   C173      1.0  0.45968  0.74543  0.13642  1.0000
  H   H216      1.0  0.12896  0.73259  0.05475  1.0000
  H   H217      1.0  0.03771  0.81843  0.32238  1.0000
  C   C174      1.0  0.47312  0.76261  0.10822  1.0000
  C   C175      1.0  0.50797  0.70261  0.05437  1.0000
  C   C176      1.0  0.18116  0.69743  0.18934  1.0000
  C   C177      1.0  0.45990  0.67128  0.34067  1.0000
  C   C178      1.0  0.43472  0.72665  0.11106  1.0000
  C   C179      1.0  0.45395  0.72962  0.21378  1.0000
  S   S48       1.0  0.39117  0.67387  0.42575  1.0000
  H   H218      1.0  0.40536  0.71062  0.04197  1.0000
  H   H219      1.0  0.16802  0.75751  0.12457  1.0000
  H   H220      1.0  0.18432  0.74742  0.39636  1.0000
  H   H221      1.0  0.51615  0.73389  0.24696  1.0000
  C   C180      1.0  0.11487  0.72720  0.07812  1.0000
  H   H222      1.0  0.25902  0.77937  0.46944  1.0000
  H   H223      1.0  0.49552  0.68294  0.05583  1.0000
  H   H224      1.0  0.10138  0.70714  0.06570  1.0000
  C   C181      1.0  0.02984  0.79594  0.46648  1.0000
  C   C182      1.0  0.16380  0.68446  0.10541  1.0000
  H   H225      1.0  0.03052  0.75110  0.12981  1.0000
  H   H226      1.0  0.05589  0.79934  0.48430  1.0000
  H   H227      1.0  0.03820  0.92137  0.49961  1.0000
  H   H228      1.0  0.49910  0.73148  0.49584  1.0000
  C   C183      1.0  0.16198  0.84535  0.50042  1.0000
  Fe  Fe25      1.0  0.18639  0.89555  0.69509  1.0000
  S   S49       1.0  0.19090  0.86178  0.75309  1.0000
  S   S50       1.0  0.20828  0.93876  0.72090  1.0000
  Fe  Fe26      1.0  0.15032  0.85524  0.61547  1.0000
  S   S51       1.0  0.15336  0.81850  0.66715  1.0000
  S   S52       1.0  0.11526  0.84993  0.54018  1.0000
  Fe  Fe27      1.0  0.14017  0.85070  0.71125  1.0000
  S   S53       1.0  0.09835  0.84872  0.73713  1.0000
  Fe  Fe28      1.0  0.20418  0.83258  0.70397  1.0000
  S   S54       1.0  0.24301  0.79885  0.73564  1.0000
  S   S55       1.0  0.13470  0.88697  0.65772  1.0000
  S   S56       1.0  0.20233  0.86678  0.64797  1.0000
  Fe  Fe29      1.0  0.45940  0.71658  0.87717  1.0000
  S   S57       1.0  0.47282  0.75688  0.84554  1.0000
  H   H229      1.0  0.04438  0.88534  0.69805  1.0000
  Fe  Fe30      1.0  0.42220  0.69392  0.77692  1.0000
  S   S58       1.0  0.43410  0.73183  0.73900  1.0000
  H   H230      1.0  0.31946  0.68664  0.50618  1.0000
  Fe  Fe31      1.0  0.48311  0.72735  0.79386  1.0000
  Fe  Fe32      1.0  0.42193  0.75723  0.79318  1.0000
  S   S59       1.0  0.38991  0.79568  0.76058  1.0000
  C   C184      1.0  0.49058  0.74321  0.58521  1.0000
  S   S60       1.0  0.40763  0.71930  0.82875  1.0000
  H   H231      1.0  0.45993  0.69296  0.57656  1.0000
  H   H232      1.0  0.31439  0.68205  0.58510  1.0000
  C   C185      1.0  0.22638  0.79758  0.58063  1.0000
  H   H233      1.0  0.20834  0.78600  0.63699  1.0000
  C   C186      1.0  0.32538  0.75441  0.58100  1.0000
  C   C187      1.0  0.31783  0.70329  0.57268  1.0000
  H   H234      1.0  0.40037  0.82955  0.85869  1.0000
  C   C188      1.0  0.29433  0.74699  0.65385  1.0000
  H   H235      1.0  0.08534  0.79815  0.64924  1.0000
  C   C189      1.0  0.22915  0.78983  0.53699  1.0000
  C   C190      1.0  0.31985  0.72780  0.60094  1.0000
  H   H236      1.0  0.35886  0.82986  0.89571  1.0000
  H   H237      1.0  0.35009  0.73104  0.72341  1.0000
  C   C191      1.0  0.34967  0.73310  0.68561  1.0000
  H   H238      1.0  0.27081  0.74407  0.62492  1.0000
  C   C192      1.0  0.37727  0.86174  0.80467  1.0000
  H   H239      1.0  0.35724  0.75529  0.68067  1.0000
  C   C193      1.0  0.28370  0.79879  0.74166  1.0000
  C   C194      1.0  0.30396  0.77824  0.77286  1.0000
  C   C195      1.0  0.33638  0.77687  0.77857  1.0000
  C   C196      1.0  0.34897  0.79614  0.75316  1.0000
  C   C197      1.0  0.32867  0.81653  0.72146  1.0000
  C   C198      1.0  0.29613  0.81776  0.71544  1.0000
  H   H240      1.0  0.29456  0.76338  0.79312  1.0000
  H   H241      1.0  0.35170  0.76121  0.80334  1.0000
  H   H242      1.0  0.33822  0.83148  0.70157  1.0000
  H   H243      1.0  0.28070  0.83328  0.69045  1.0000
  C   C199      1.0  0.05441  0.76806  0.77934  1.0000
  C   C200      1.0  0.08340  0.76604  0.77143  1.0000
  C   C201      1.0  0.09736  0.79053  0.75838  1.0000
  C   C202      1.0  0.08263  0.81721  0.75414  1.0000
  C   C203      1.0  0.05406  0.81920  0.76299  1.0000
  C   C204      1.0  0.05214  0.89756  0.56708  1.0000
  H   H244      1.0  0.30722  0.69717  0.70029  1.0000
  H   H245      1.0  0.11953  0.78879  0.75198  1.0000
  C   C205      1.0  0.21645  0.76363  0.51516  1.0000
  C   C206      1.0  0.19877  0.75366  0.58373  1.0000
  C   C207      1.0  0.17283  0.97118  0.64006  1.0000
  C   C208      1.0  0.19387  0.97104  0.68791  1.0000
  H   H246      1.0  0.32712  0.68105  0.66568  1.0000
  H   H247      1.0  0.16449  0.95118  0.62267  1.0000
  S   S61       1.0  0.03661  0.73709  0.79412  1.0000
  N   N14       1.0  0.29669  0.89717  0.78282  1.0000
  C   C209      1.0  0.26817  0.87882  0.77270  1.0000
  C   C210      1.0  0.29571  0.91905  0.81742  1.0000
  C   C211      1.0  0.29433  0.91224  0.73675  1.0000
  C   C212      1.0  0.32581  0.87954  0.80400  1.0000
  C   C213      1.0  0.35058  0.87937  0.78452  1.0000
  C   C214      1.0  0.32999  0.86169  0.84545  1.0000
  H   H248      1.0  0.17856  0.85254  0.53440  1.0000
  C   C215      1.0  0.21106  0.77963  0.60375  1.0000
  C   C216      1.0  0.38016  0.84391  0.84449  1.0000
  H   H249      1.0  0.26512  0.86976  0.80587  1.0000
  H   H250      1.0  0.24609  0.89102  0.75329  1.0000
  H   H251      1.0  0.26896  0.86067  0.74991  1.0000
  H   H252      1.0  0.29498  0.90933  0.85173  1.0000
  H   H253      1.0  0.27407  0.93286  0.80226  1.0000
  H   H254      1.0  0.31692  0.93318  0.82653  1.0000
  H   H255      1.0  0.29452  0.89686  0.70890  1.0000
  H   H256      1.0  0.27173  0.92471  0.72121  1.0000
  H   H257      1.0  0.31382  0.92800  0.74198  1.0000
  H   H258      1.0  0.34968  0.89214  0.75314  1.0000
  H   H259      1.0  0.31238  0.86093  0.86259  1.0000
  H   H260      1.0  0.32840  0.77377  0.60116  1.0000
  H   H261      1.0  0.39538  0.86100  0.78830  1.0000
  H   H262      1.0  0.23543  0.81797  0.59614  1.0000
  C   C217      1.0  0.06209  0.79282  0.62363  1.0000
  C   C218      1.0  0.04239  0.88562  0.60345  1.0000
  C   C219      1.0  0.20465  0.99720  0.70991  1.0000
  S   S62       1.0  0.47223  0.68708  0.82789  1.0000
  C   C220      1.0  0.35666  0.84399  0.86500  1.0000
  H   H263      1.0  0.07657  0.89502  0.56900  1.0000
  H   H264      1.0  0.51386  0.75391  0.97426  1.0000
  H   H265      1.0  0.14730  0.99720  0.57700  1.0000
  H   H266      1.0  0.24052  0.80514  0.52043  1.0000
  C   C221      1.0  0.05204  0.80425  0.57644  1.0000
  C   C222      1.0  0.03977  0.79474  0.77479  1.0000
  H   H267      1.0  0.09490  0.74545  0.77499  1.0000
  N   N15       1.0  0.31805  0.72617  0.64998  1.0000
  H   H268      1.0  0.36819  0.71840  0.68261  1.0000
  H   H269      1.0  0.06017  0.87446  0.63332  1.0000
  H   H270      1.0  0.30173  0.76953  0.65180  1.0000
  H   H271      1.0  0.22097  0.99728  0.74686  1.0000
  C   C223      1.0  0.30891  0.69751  0.66359  1.0000
  H   H272      1.0  0.49675  0.70460  0.65522  1.0000
  C   C224      1.0  0.51616  0.70481  0.63991  1.0000
  H   H273      1.0  0.04285  0.83976  0.76080  1.0000
  S   S63       1.0  0.47439  0.70214  0.95662  1.0000
  C   C225      1.0  0.47933  0.69431  0.56134  1.0000
  H   H274      1.0  0.06866  0.81764  0.56674  1.0000
  C   C226      1.0  0.32586  0.73206  0.50856  1.0000
  H   H275      1.0  0.29076  0.74470  0.68917  1.0000
  C   C227      1.0  0.16313  0.99730  0.61425  1.0000
  H   H276      1.0  0.19087  0.72561  0.52552  1.0000
  H   H277      1.0  0.03425  0.83973  0.65766  1.0000
  H   H278      1.0  0.18650  0.73997  0.60167  1.0000
  C   C228      1.0  0.20143  0.74567  0.54018  1.0000
  C   C229      1.0  0.03055  0.91244  0.52794  1.0000
  C   C230      1.0  0.32813  0.75644  0.53539  1.0000
  N   N16       1.0  0.50466  0.71431  0.58827  1.0000
  S   S64       1.0  0.52664  0.73285  0.77232  1.0000
  C   C231      1.0  0.52285  0.72482  0.51816  1.0000
  H   H279      1.0  0.28545  0.69071  0.63784  1.0000
  H   H280      1.0  0.05026  0.76534  0.67438  1.0000
  H   H281      1.0  0.52595  0.68268  0.64526  1.0000
  C   C232      1.0  0.32083  0.70556  0.52721  1.0000
  H   H282      1.0  0.47267  0.74364  0.60337  1.0000
  H   H283      1.0  0.47808  0.75083  0.54736  1.0000
  H   H284      1.0  0.04329  0.84647  0.50575  1.0000
  C   C233      1.0  0.04241  0.77442  0.63800  1.0000
  H   H285      1.0  0.46782  0.70075  0.52266  1.0000
  H   H286      1.0  0.33265  0.77696  0.52108  1.0000
  H   H287      1.0  0.48893  0.67231  0.56284  1.0000
  H   H288      1.0  0.50927  0.75914  0.60301  1.0000
  H   H289      1.0  0.52818  0.72242  0.92203  1.0000
  H   H290      1.0  0.51435  0.67165  0.77315  1.0000
  H   H291      1.0  0.42968  0.74131  0.99522  1.0000
  H   H292      1.0  0.25886  0.72884  0.50110  1.0000
  C   C234      1.0  0.66603  0.22460  0.43891  1.0000
  Fe  Fe33      1.0  0.90948  0.14740  0.36101  1.0000
  S   S65       1.0  0.91889  0.11127  0.41565  1.0000
  S   S66       1.0  0.94125  0.15091  0.31612  1.0000
  Fe  Fe34      1.0  0.84917  0.16625  0.37923  1.0000
  S   S67       1.0  0.85419  0.13171  0.43622  1.0000
  S   S68       1.0  0.81360  0.20306  0.35574  1.0000
  Fe  Fe35      1.0  0.90631  0.14273  0.46179  1.0000
  H   H293      1.0  0.89651  0.19687  0.30943  1.0000
  Fe  Fe36      1.0  0.86652  0.10298  0.38531  1.0000
  S   S69       1.0  0.84658  0.05951  0.35914  1.0000
  S   S70       1.0  0.90068  0.17954  0.40928  1.0000
  S   S71       1.0  0.85769  0.13686  0.32649  1.0000
  Fe  Fe37      1.0  0.59088  0.27549  0.19416  1.0000
  S   S72       1.0  0.57923  0.23110  0.21339  1.0000
  S   S73       1.0  0.57884  0.29295  0.11747  1.0000
  Fe  Fe38      1.0  0.61999  0.29149  0.29994  1.0000
  S   S74       1.0  0.60967  0.24852  0.32617  1.0000
  H   H294      1.0  0.71492  0.26492  0.39846  1.0000
  Fe  Fe39      1.0  0.62827  0.23146  0.27126  1.0000
  S   S75       1.0  0.66281  0.19387  0.29554  1.0000
  Fe  Fe40      1.0  0.56233  0.25315  0.26671  1.0000
  S   S76       1.0  0.64116  0.27433  0.24795  1.0000
  S   S77       1.0  0.57147  0.29749  0.24422  1.0000
  C   C235      1.0  0.61183  0.30152  0.40911  1.0000
  C   C236      1.0  0.00368  0.15858  0.47402  1.0000
  H   H295      1.0  0.59652  0.29181  0.37667  1.0000
  C   C237      1.0  0.86125  0.02753  0.39252  1.0000
  C   C238      1.0  0.99184  0.09213  0.38005  1.0000
  H   H296      1.0  0.81848  0.22045  0.21977  1.0000
  H   H297      1.0  0.85521  0.20203  0.30019  1.0000
  C   C239      1.0  0.62749  0.24542  0.06696  1.0000
  H   H298      1.0  0.74374  0.22332  0.44908  1.0000
  C   C240      1.0  0.56789  0.22185  0.01817  1.0000
  C   C241      1.0  0.77174  0.19985  0.33887  1.0000
  C   C242      1.0  0.75710  0.17366  0.34118  1.0000
  C   C243      1.0  0.72372  0.17217  0.32752  1.0000
  C   C244      1.0  0.70466  0.19674  0.31127  1.0000
  C   C245      1.0  0.71938  0.22294  0.30920  1.0000
  C   C246      1.0  0.75274  0.22447  0.32314  1.0000
  H   H299      1.0  0.77142  0.15454  0.35321  1.0000
  H   H300      1.0  0.71257  0.15181  0.32928  1.0000
  H   H301      1.0  0.70509  0.24200  0.29655  1.0000
  H   H302      1.0  0.76383  0.24483  0.32120  1.0000
  H   H303      1.0  0.95149  0.20055  0.17723  1.0000
  C   C247      1.0  0.99636  0.23331  0.03062  1.0000
  H   H304      1.0  0.72301  0.19878  0.47534  1.0000
  H   H305      1.0  0.98686  0.14112  0.46841  1.0000
  C   C248      1.0  0.00613  0.22597  0.30931  1.0000
  C   C249      1.0  0.00780  0.20003  0.28817  1.0000
  C   C250      1.0  0.98800  0.17721  0.29111  1.0000
  C   C251      1.0  0.96677  0.17986  0.31599  1.0000
  C   C252      1.0  0.96605  0.20537  0.33903  1.0000
  C   C253      1.0  0.98542  0.22844  0.33520  1.0000
  C   C254      1.0  0.62500  0.31009  0.49436  1.0000
  H   H306      1.0  0.98868  0.15764  0.27302  1.0000
  H   H307      1.0  0.95037  0.20753  0.35925  1.0000
  H   H308      1.0  0.98410  0.24841  0.35184  1.0000
  H   H309      1.0  0.80414  0.01397  0.43261  1.0000
  H   H310      1.0  0.80756  0.23227  0.43967  1.0000
  C   C255      1.0  0.60648  0.29640  0.45243  1.0000
  H   H311      1.0  0.97379  0.23147  0.03589  1.0000
  C   C256      1.0  0.87448  0.02701  0.44295  1.0000
  N   N17       1.0  0.69713  0.23758  0.44339  1.0000
  H   H312      1.0  0.80603  0.17984  0.44894  1.0000
  H   H313      1.0  0.71179  0.20196  0.41145  1.0000
  C   C257      1.0  0.61430  0.24794  0.01660  1.0000
  H   H314      1.0  0.77661  0.04497  0.36141  1.0000
  H   H315      1.0  0.94295  0.28005  0.23901  1.0000
  H   H316      1.0  0.65023  0.25513  0.08628  1.0000
  C   C258      1.0  0.58155  0.21912  0.06847  1.0000
  H   H317      1.0  0.64835  0.24137  0.43828  1.0000
  H   H318      1.0  0.67441  0.27216  0.39378  1.0000
  H   H319      1.0  0.65597  0.21241  0.40505  1.0000
  H   H320      1.0  0.55351  0.31015  0.01751  1.0000
  H   H321      1.0  0.99278  0.07571  0.44895  1.0000
  H   H322      1.0  0.58755  0.28217  0.45317  1.0000
  C   C259      1.0  0.64870  0.32917  0.49263  1.0000
  C   C260      1.0  0.53779  0.29405  0.02345  1.0000
  C   C261      1.0  0.69238  0.25504  0.39866  1.0000
  H   H323      1.0  0.85243  0.17805  0.18232  1.0000
  H   H324      1.0  0.90627  0.18140  0.19423  1.0000
  H   H325      1.0  0.83439  0.22942  0.17312  1.0000
  H   H326      1.0  0.84375  0.25060  0.22593  1.0000
  N   N18       1.0  0.86803  0.20979  0.23718  1.0000
  C   C262      1.0  0.87535  0.21033  0.29001  1.0000
  C   C263      1.0  0.91238  0.20337  0.20317  1.0000
  C   C264      1.0  0.93857  0.21412  0.19309  1.0000
  H   H327      1.0  0.88033  0.23215  0.30444  1.0000
  C   C265      1.0  0.84001  0.22839  0.21288  1.0000
  C   C266      1.0  0.89579  0.22039  0.22568  1.0000
  H   H328      1.0  0.02368  0.23538  0.10704  1.0000
  C   C267      1.0  0.93373  0.25891  0.22790  1.0000
  C   C268      1.0  0.85885  0.18006  0.22196  1.0000
  C   C269      1.0  0.94926  0.24177  0.20554  1.0000
  H   H329      1.0  0.87840  0.16464  0.24091  1.0000
  H   H330      1.0  0.83785  0.17279  0.23090  1.0000
  H   H331      1.0  0.89640  0.26253  0.25575  1.0000
  C   C270      1.0  0.00961  0.10355  0.35373  1.0000
  C   C271      1.0  0.90730  0.24853  0.23768  1.0000
  C   C272      1.0  0.63628  0.31971  0.40767  1.0000
  H   H332      1.0  0.96631  0.08968  0.36277  1.0000
  H   H333      1.0  0.62107  0.22972  0.13195  1.0000
  H   H334      1.0  0.97044  0.24955  0.19961  1.0000
  H   H335      1.0  0.99760  0.10997  0.31617  1.0000
  H   H336      1.0  0.87716  0.04672  0.46211  1.0000
  C   C273      1.0  0.54450  0.28190  0.06994  1.0000
  H   H337      1.0  0.68320  0.24198  0.36580  1.0000
  C   C274      1.0  0.01506  0.16672  0.43756  1.0000
  C   C275      1.0  0.81289  0.19288  0.48067  1.0000
  H   H338      1.0  0.74787  0.02369  0.28262  1.0000
  C   C276      1.0  0.61116  0.23102  0.09282  1.0000
  C   C277      1.0  0.71995  0.21445  0.44515  1.0000
  C   C278      1.0  0.77561  0.02193  0.35823  1.0000
  C   C279      1.0  0.70902  0.25419  0.48808  1.0000
  H   H339      1.0  0.56862  0.20854  0.08894  1.0000
  H   H340      1.0  0.00727  0.15556  0.40388  1.0000
  H   H341      1.0  0.66770  0.20930  0.46907  1.0000
  C   C280      1.0  0.81374  0.22250  0.47554  1.0000
  H   H342      1.0  0.71000  0.29669  0.45479  1.0000
  H   H343      1.0  0.54156  0.29677  0.31978  1.0000
  C   C281      1.0  0.00680  0.08439  0.42857  1.0000
  C   C282      1.0  0.02458  0.23550  0.07100  1.0000
  H   H344      1.0  0.02341  0.19790  0.26784  1.0000
  H   H345      1.0  0.93826  0.05377  0.48480  1.0000
  S   S78       1.0  0.64456  0.32451  0.35425  1.0000
  C   C283      1.0  0.65444  0.33389  0.44934  1.0000
  S   S79       1.0  0.02766  0.25624  0.30099  1.0000
  C   C284      1.0  0.75969  0.00988  0.31378  1.0000
  C   C285      1.0  0.71429  0.28419  0.48778  1.0000
  H   H346      1.0  0.96387  0.00647  0.49300  1.0000
  H   H347      1.0  0.54444  0.21288  0.00201  1.0000
  H   H348      1.0  0.56491  0.33514  0.46952  1.0000
  C   C286      1.0  0.79113  0.00441  0.39836  1.0000
  C   C287      1.0  0.53789  0.22780  0.91603  1.0000
  Fe  Fe41      1.0  0.95765  0.23081  0.85550  1.0000
  S   S80       1.0  0.96933  0.26986  0.81892  1.0000
  S   S81       1.0  0.96110  0.23002  0.93410  1.0000
  Fe  Fe42      1.0  0.92867  0.20053  0.75965  1.0000
  S   S82       1.0  0.93850  0.23728  0.71700  1.0000
  S   S83       1.0  0.90039  0.16464  0.71585  1.0000
  Fe  Fe43      1.0  0.98593  0.23821  0.77672  1.0000
  Fe  Fe44      1.0  0.92051  0.26468  0.76273  1.0000
  S   S84       1.0  0.88599  0.30098  0.72700  1.0000
  S   S85       1.0  0.97743  0.19935  0.81705  1.0000
  S   S86       1.0  0.90767  0.22775  0.80168  1.0000
  S   S87       1.0  0.66013  0.30875  0.68614  1.0000
  C   C288      1.0  0.91016  0.29441  0.86932  1.0000
  C   C289      1.0  0.01333  0.03570  0.59666  1.0000
  H   H349      1.0  0.92559  0.28050  0.96118  1.0000
  C   C290      1.0  0.84690  0.30153  0.72830  1.0000
  C   C291      1.0  0.82641  0.32444  0.70603  1.0000
  C   C292      1.0  0.00088  0.01571  0.56055  1.0000
  C   C293      1.0  0.78544  0.30458  0.73371  1.0000
  C   C294      1.0  0.80565  0.28135  0.75474  1.0000
  C   C295      1.0  0.83597  0.27958  0.75131  1.0000
  H   H350      1.0  0.00130  0.12007  0.58102  1.0000
  C   C296      1.0  0.90427  0.29474  0.94656  1.0000
  H   H351      1.0  0.79787  0.26476  0.77426  1.0000
  H   H352      1.0  0.85101  0.26144  0.76713  1.0000
  C   C297      1.0  0.91187  0.15944  0.66585  1.0000
  C   C298      1.0  0.94159  0.16891  0.66668  1.0000
  C   C299      1.0  0.95061  0.16545  0.62651  1.0000
  C   C300      1.0  0.92956  0.15327  0.58472  1.0000
  C   C301      1.0  0.89978  0.14370  0.58369  1.0000
  C   C302      1.0  0.89115  0.14639  0.62463  1.0000
  H   H353      1.0  0.95783  0.17858  0.69865  1.0000
  H   H354      1.0  0.97391  0.17236  0.62791  1.0000
  H   H355      1.0  0.88373  0.13374  0.55183  1.0000
  H   H356      1.0  0.86833  0.13862  0.62422  1.0000
  H   H357      1.0  0.72791  0.24506  0.61082  1.0000
  H   H358      1.0  0.96421  0.10281  0.62063  1.0000
  C   C303      1.0  0.55221  0.27476  0.77375  1.0000
  C   C304      1.0  0.57711  0.27104  0.75620  1.0000
  C   C305      1.0  0.59411  0.29472  0.74766  1.0000
  H   H359      1.0  0.82399  0.26227  0.51039  1.0000
  C   C306      1.0  0.79561  0.32584  0.70824  1.0000
  H   H360      1.0  0.02747  0.23523  0.94120  1.0000
  H   H361      1.0  0.58328  0.24977  0.74909  1.0000
  H   H362      1.0  0.61325  0.29156  0.73418  1.0000
  H   H363      1.0  0.82122  0.15697  0.53041  1.0000
  S   S88       1.0  0.61667  0.30400  0.54746  1.0000
  H   H364      1.0  0.89649  0.24477  0.89780  1.0000
  H   H365      1.0  0.86249  0.25365  0.91164  1.0000
  S   S89       1.0  0.74907  0.30703  0.74383  1.0000
  H   H366      1.0  0.95927  0.08919  0.54662  1.0000
  C   C307      1.0  0.82323  0.23943  0.51628  1.0000
  C   C308      1.0  0.02652  0.23539  0.97719  1.0000
  H   H367      1.0  0.97525  0.07339  0.66332  1.0000
  N   N19       1.0  0.84353  0.24550  0.60624  1.0000
  C   C309      1.0  0.81843  0.26650  0.60398  1.0000
  C   C310      1.0  0.85185  0.22942  0.65311  1.0000
  C   C311      1.0  0.87242  0.26113  0.60643  1.0000
  C   C312      1.0  0.83235  0.22710  0.56367  1.0000
  H   H368      1.0  0.89894  0.29074  0.82999  1.0000
  C   C313      1.0  0.83094  0.19680  0.56760  1.0000
  H   H369      1.0  0.93057  0.27932  0.88340  1.0000
  H   H370      1.0  0.83763  0.18542  0.60202  1.0000
  C   C314      1.0  0.97152  0.06890  0.55187  1.0000
  H   H371      1.0  0.82591  0.28022  0.63612  1.0000
  H   H372      1.0  0.81269  0.28136  0.57212  1.0000
  H   H373      1.0  0.79610  0.25553  0.60263  1.0000
  H   H374      1.0  0.83116  0.21746  0.65627  1.0000
  H   H375      1.0  0.86012  0.24387  0.68433  1.0000
  H   H376      1.0  0.87169  0.21409  0.65831  1.0000
  H   H377      1.0  0.86774  0.27588  0.57461  1.0000
  H   H378      1.0  0.88228  0.27451  0.63884  1.0000
  H   H379      1.0  0.89150  0.24597  0.60669  1.0000
  H   H380      1.0  0.62793  0.25924  0.99819  1.0000
  H   H381      1.0  0.83454  0.29104  0.92160  1.0000
  N   N20       1.0  0.57060  0.23934  0.93724  1.0000
  C   C315      1.0  0.99721  0.23312  0.98361  1.0000
  N   N21       1.0  0.01049  0.08432  0.63179  1.0000
  H   H382      1.0  0.55291  0.27561  0.52191  1.0000
  C   C316      1.0  0.85926  0.30967  0.87621  1.0000
  N   N22       1.0  0.88704  0.29018  0.89448  1.0000
  C   C317      1.0  0.82140  0.18008  0.52655  1.0000
  C   C318      1.0  0.95931  0.04879  0.51607  1.0000
  C   C319      1.0  0.56938  0.26990  0.92170  1.0000
  H   H383      1.0  0.59292  0.20068  0.92764  1.0000
  C   C320      1.0  0.71480  0.24046  0.53385  1.0000
  H   H384      1.0  0.53704  0.20446  0.92370  1.0000
  H   H385      1.0  0.61556  0.23246  0.92773  1.0000
  H   H386      1.0  0.00089  0.20539  0.58671  1.0000
  C   C321      1.0  0.83385  0.30691  0.89403  1.0000
  C   C322      1.0  0.72919  0.28523  0.57479  1.0000
  H   H387      1.0  0.00289  0.16628  0.54339  1.0000
  C   C323      1.0  0.59106  0.22370  0.91640  1.0000
  C   C324      1.0  0.01295  0.17342  0.51705  1.0000
  H   H388      1.0  0.92064  0.31619  0.87440  1.0000
  C   C325      1.0  0.56189  0.32595  0.77527  1.0000
  C   C326      1.0  0.97379  0.02215  0.52056  1.0000
  C   C327      1.0  0.99864  0.06287  0.59374  1.0000
  Fe  Fe45      1.0  0.70566  0.33338  0.70041  1.0000
  H   H389      1.0  0.71095  0.21779  0.53691  1.0000
  H   H390      1.0  0.01250  0.18464  0.75157  1.0000
  C   C328      1.0  0.58668  0.32227  0.75748  1.0000
  H   H391      1.0  0.86083  0.25626  0.85033  1.0000
  C   C329      1.0  0.72424  0.29932  0.53063  1.0000
  C   C330      1.0  0.98464  0.09243  0.64934  1.0000
  C   C331      1.0  0.87618  0.26003  0.88829  1.0000
  S   S90       1.0  0.53139  0.24453  0.78410  1.0000
  C   C332      1.0  0.72459  0.25583  0.57641  1.0000
  S   S91       1.0  0.94247  0.14845  0.53610  1.0000
  C   C333      1.0  0.80661  0.32403  0.87559  1.0000
  H   H392      1.0  0.00748  0.24635  0.53401  1.0000
  H   H393      1.0  0.99283  0.10811  0.67878  1.0000
  Fe  Fe46      1.0  0.64611  0.32862  0.61185  1.0000
  C   C334      1.0  0.54453  0.30235  0.78294  1.0000
  H   H394      1.0  0.54718  0.27920  0.60047  1.0000
  H   H395      1.0  0.59335  0.27945  0.93024  1.0000
  H   H396      1.0  0.72711  0.32233  0.52937  1.0000
  H   H397      1.0  0.55619  0.28282  0.93938  1.0000
  C   C335      1.0  0.02732  0.20454  0.60349  1.0000
  H   H398      1.0  0.73606  0.29718  0.60777  1.0000
  H   H399      1.0  0.58138  0.22497  0.87611  1.0000
  H   H400      1.0  0.78688  0.32078  0.88818  1.0000
  H   H401      1.0  0.88920  0.29009  0.96862  1.0000
  C   C336      1.0  0.58395  0.23643  0.99061  1.0000
  H   H402      1.0  0.53992  0.30878  0.65639  1.0000
  H   H403      1.0  0.55727  0.27288  0.88190  1.0000
  H   H404      1.0  0.91259  0.31721  0.95288  1.0000
  C   C337      1.0  0.02097  0.11021  0.61156  1.0000
  C   C338      1.0  0.85624  0.33144  0.84024  1.0000
  C   C339      1.0  0.52978  0.28057  0.52372  1.0000
  H   H405      1.0  0.87400  0.33505  0.82385  1.0000
  C   C340      1.0  0.67416  0.64847  0.45076  1.0000
  C   C341      1.0  0.65095  0.66032  0.40915  1.0000
  C   C342      1.0  0.54727  0.38215  0.41281  1.0000
  C   C343      1.0  0.54789  0.61003  0.46814  1.0000
  H   H406      1.0  0.69713  0.64252  0.44983  1.0000
  H   H407      1.0  0.54951  0.38876  0.28160  1.0000
  N   N23       1.0  0.54668  0.37817  0.46232  1.0000
  C   C344      1.0  0.54472  0.34725  0.47287  1.0000
  H   H408      1.0  0.54660  0.61057  0.42984  1.0000
  H   H409      1.0  0.54706  0.66611  0.48074  1.0000
  C   C345      1.0  0.63797  0.65258  0.49496  1.0000
  C   C346      1.0  0.57386  0.37271  0.40188  1.0000
  C   C347      1.0  0.54889  0.38710  0.31784  1.0000
  H   H410      1.0  0.59515  0.36762  0.34776  1.0000
  H   H411      1.0  0.59403  0.36268  0.42922  1.0000
  C   C348      1.0  0.57462  0.37526  0.35516  1.0000
  H   H412      1.0  0.67303  0.34840  0.44820  1.0000
  C   C349      1.0  0.66771  0.64471  0.49388  1.0000
  C   C350      1.0  0.62123  0.66771  0.41046  1.0000
  H   H413      1.0  0.58069  0.41203  0.48837  1.0000
  H   H414      1.0  0.54770  0.58727  0.47998  1.0000
  H   H415      1.0  0.57159  0.61884  0.48942  1.0000
  C   C351      1.0  0.61480  0.66388  0.45309  1.0000
  C   C352      1.0  0.57624  0.38967  0.49819  1.0000
  S   S92       1.0  0.65919  0.66752  0.35607  1.0000
  H   H416      1.0  0.56150  0.66721  0.01292  1.0000
  H   H417      1.0  0.59179  0.67001  0.45355  1.0000
  S   S93       1.0  0.60770  0.35258  0.74803  1.0000
  S   S94       1.0  0.62320  0.36629  0.63059  1.0000
  H   H418      1.0  0.56984  0.64510  0.55343  1.0000
  H   H419      1.0  0.57516  0.38960  0.53515  1.0000
  H   H420      1.0  0.53464  0.61675  0.66292  1.0000
  H   H421      1.0  0.53832  0.66436  0.88296  1.0000
  Fe  Fe47      1.0  0.67082  0.38718  0.64862  1.0000
  S   S95       1.0  0.66521  0.43152  0.61395  1.0000
  S   S96       1.0  0.62780  0.64876  0.54695  1.0000
  H   H422      1.0  0.63863  0.53129  0.82076  1.0000
  S   S97       1.0  0.68749  0.37223  0.72655  1.0000
  Fe  Fe48      1.0  0.69205  0.58852  0.69767  1.0000
  S   S98       1.0  0.69362  0.61664  0.75843  1.0000
  S   S99       1.0  0.71490  0.54557  0.72686  1.0000
  S   S100      1.0  0.60232  0.62528  0.74220  1.0000
  H   H423      1.0  0.82445  0.55656  0.84064  1.0000
  H   H424      1.0  0.76175  0.58657  0.73209  1.0000
  C   C353      1.0  0.82907  0.34870  0.82261  1.0000
  S   S101      1.0  0.71025  0.62247  0.65812  1.0000
  S   S102      1.0  0.64061  0.59800  0.65644  1.0000
  Fe  Fe49      1.0  0.64105  0.34846  0.70625  1.0000
  H   H425      1.0  0.83458  0.34144  0.68774  1.0000
  H   H426      1.0  0.86008  0.66347  0.90340  1.0000
  H   H427      1.0  0.82365  0.55909  0.77948  1.0000
  C   C354      1.0  0.67920  0.46289  0.64623  1.0000
  C   C355      1.0  0.69884  0.46186  0.69484  1.0000
  C   C356      1.0  0.70955  0.48739  0.71925  1.0000
  C   C357      1.0  0.70043  0.51403  0.69536  1.0000
  C   C358      1.0  0.68054  0.51504  0.64690  1.0000
  C   C359      1.0  0.67007  0.48953  0.62241  1.0000
  H   H428      1.0  0.70626  0.44144  0.71329  1.0000
  H   H429      1.0  0.72505  0.48652  0.75669  1.0000
  H   H430      1.0  0.67359  0.53545  0.62810  1.0000
  H   H431      1.0  0.65497  0.49044  0.58474  1.0000
  H   H432      1.0  0.79702  0.60127  0.72643  1.0000
  N   N24       1.0  0.62225  0.44307  0.74583  1.0000
  C   C360      1.0  0.65230  0.43002  0.77890  1.0000
  C   C361      1.0  0.59610  0.43491  0.76333  1.0000
  C   C362      1.0  0.61505  0.43028  0.69785  1.0000
  C   C363      1.0  0.62549  0.47459  0.74490  1.0000
  C   C364      1.0  0.63115  0.49008  0.78765  1.0000
  C   C365      1.0  0.62337  0.49077  0.70242  1.0000
  C   C366      1.0  0.63413  0.51986  0.78771  1.0000
  C   C367      1.0  0.62624  0.52054  0.70291  1.0000
  C   C368      1.0  0.63163  0.53506  0.74539  1.0000
  H   H433      1.0  0.65831  0.43675  0.81671  1.0000
  H   H434      1.0  0.65087  0.40621  0.77973  1.0000
  H   H435      1.0  0.67261  0.43604  0.76732  1.0000
  H   H436      1.0  0.59210  0.41135  0.76234  1.0000
  H   H437      1.0  0.57335  0.44536  0.74066  1.0000
  H   H438      1.0  0.60112  0.44078  0.80135  1.0000
  H   H439      1.0  0.59261  0.43895  0.67096  1.0000
  H   H440      1.0  0.63471  0.43391  0.68375  1.0000
  H   H441      1.0  0.61212  0.40669  0.69966  1.0000
  H   H442      1.0  0.63356  0.47925  0.82149  1.0000
  H   H443      1.0  0.62010  0.48097  0.66845  1.0000
  C   C369      1.0  0.53146  0.61893  0.62491  1.0000
  H   H444      1.0  0.62504  0.53244  0.67032  1.0000
  H   H445      1.0  0.63424  0.55814  0.74560  1.0000
  H   H446      1.0  0.77146  0.62314  0.74577  1.0000
  H   H447      1.0  0.82675  0.36445  0.79396  1.0000
  H   H448      1.0  0.81327  0.63366  0.87398  1.0000
  S   S103      1.0  0.65822  0.66596  0.67820  1.0000
  C   C370      1.0  0.85203  0.61187  0.79995  1.0000
  C   C371      1.0  0.85797  0.64860  0.87506  1.0000
  H   H449      1.0  0.55593  0.34718  0.78291  1.0000
  H   H450      1.0  0.85057  0.59856  0.77008  1.0000
  Fe  Fe50      1.0  0.64336  0.62873  0.71445  1.0000
  C   C372      1.0  0.55485  0.63206  0.61101  1.0000
  C   C373      1.0  0.80963  0.56306  0.80298  1.0000
  H   H451      1.0  0.76628  0.61696  0.82300  1.0000
  S   S104      1.0  0.69285  0.35032  0.62401  1.0000
  C   C374      1.0  0.77652  0.59504  0.82612  1.0000
  N   N25       1.0  0.79933  0.59332  0.80015  1.0000
  Fe  Fe51      1.0  0.65858  0.63460  0.62233  1.0000
  Fe  Fe52      1.0  0.70870  0.65115  0.71679  1.0000
  C   C375      1.0  0.55340  0.65151  0.75974  1.0000
  H   H452      1.0  0.78792  0.58883  0.86497  1.0000
  C   C376      1.0  0.83107  0.63123  0.85765  1.0000
  H   H453      1.0  0.54460  0.63010  0.76163  1.0000
  C   C377      1.0  0.78179  0.60139  0.74891  1.0000
  H   H454      1.0  0.68559  0.63574  0.52604  1.0000
  C   C378      1.0  0.82740  0.61209  0.81963  1.0000
  H   H455      1.0  0.75585  0.58050  0.81067  1.0000
  H   H456      1.0  0.54496  0.34297  0.51017  1.0000
  H   H457      1.0  0.78885  0.54831  0.79073  1.0000
  H   H458      1.0  0.57631  0.63985  0.63826  1.0000
  C   C379      1.0  0.55103  0.63481  0.56221  1.0000
  C   C380      1.0  0.58165  0.65551  0.75021  1.0000
  C   C381      1.0  0.87867  0.62946  0.81743  1.0000
  H   H459      1.0  0.90200  0.66190  0.86747  1.0000
  H   H460      1.0  0.89663  0.62976  0.80069  1.0000
  C   C382      1.0  0.88170  0.64772  0.85501  1.0000
  H   H461      1.0  0.82751  0.66430  0.68393  1.0000
  C   C383      1.0  0.80416  0.34476  0.83975  1.0000
  H   H462      1.0  0.56310  0.64980  0.94030  1.0000
  H   H463      1.0  0.66264  0.34029  0.52448  1.0000
  H   H464      1.0  0.59766  0.37672  0.50168  1.0000
  H   H465      1.0  0.77333  0.66099  0.68813  1.0000
  H   H466      1.0  0.78253  0.35726  0.82424  1.0000
  H   H467      1.0  0.78028  0.34390  0.69207  1.0000
  C   C384      1.0  0.54868  0.66885  0.92218  1.0000
  H   H468      1.0  0.79716  0.89132  0.38050  1.0000
  Fe  Fe53      1.0  0.84293  0.85317  0.37849  1.0000
  S   S105      1.0  0.85279  0.86376  0.45598  1.0000
  S   S106      1.0  0.79515  0.84098  0.32356  1.0000
  Fe  Fe54      1.0  0.91199  0.86222  0.38560  1.0000
  S   S107      1.0  0.92706  0.87353  0.46341  1.0000
  S   S108      1.0  0.95051  0.86610  0.35292  1.0000
  Fe  Fe55      1.0  0.89657  0.83713  0.47065  1.0000
  C   C385      1.0  0.71900  0.72876  0.43701  1.0000
  Fe  Fe56      1.0  0.88244  0.89969  0.44187  1.0000
  S   S109      1.0  0.88601  0.94223  0.47788  1.0000
  S   S110      1.0  0.88478  0.82343  0.39436  1.0000
  S   S111      1.0  0.86928  0.89131  0.36304  1.0000
  Fe  Fe57      1.0  0.63512  0.76911  0.32230  1.0000
  S   S112      1.0  0.64352  0.73758  0.27264  1.0000
  S   S113      1.0  0.67259  0.79984  0.36776  1.0000
  Fe  Fe58      1.0  0.57198  0.73917  0.31822  1.0000
  S   S114      1.0  0.57683  0.70526  0.26891  1.0000
  Fe  Fe59      1.0  0.62841  0.70468  0.31696  1.0000
  H   H469      1.0  0.98489  0.77300  0.17490  1.0000
  Fe  Fe60      1.0  0.59095  0.74182  0.22915  1.0000
  S   S115      1.0  0.57369  0.75396  0.14860  1.0000
  S   S116      1.0  0.62249  0.73600  0.36852  1.0000
  S   S117      1.0  0.58349  0.77595  0.27645  1.0000
  C   C386      1.0  0.99680  0.75882  0.00710  1.0000
  S   S118      1.0  0.53207  0.74266  0.34853  1.0000
  H   H470      1.0  0.77662  0.93363  0.26863  1.0000
  C   C387      1.0  0.79151  0.97476  0.39408  1.0000
  H   H471      1.0  0.70138  0.71260  0.34510  1.0000
  C   C388      1.0  0.76183  0.82889  0.33728  1.0000
  C   C389      1.0  0.73692  0.81534  0.30145  1.0000
  C   C390      1.0  0.70963  0.80595  0.31043  1.0000
  C   C391      1.0  0.70674  0.81061  0.35511  1.0000
  C   C392      1.0  0.73156  0.82439  0.39085  1.0000
  C   C393      1.0  0.75917  0.83321  0.38225  1.0000
  H   H472      1.0  0.73871  0.81207  0.26647  1.0000
  H   H473      1.0  0.69057  0.79561  0.28248  1.0000
  H   H474      1.0  0.72927  0.82844  0.42523  1.0000
  H   H475      1.0  0.77812  0.84367  0.41012  1.0000
  C   C394      1.0  0.74716  0.68975  0.41835  1.0000
  C   C395      1.0  0.82945  0.76649  0.46705  1.0000
  H   H476      1.0  0.72969  0.72394  0.47640  1.0000
  H   H477      1.0  0.72539  0.67682  0.40112  1.0000
  C   C396      1.0  0.61281  0.71499  0.08172  1.0000
  H   H478      1.0  0.00690  0.85021  0.10057  1.0000
  C   C397      1.0  0.00096  0.78849  0.32159  1.0000
  H   H479      1.0  0.97104  0.78302  0.45712  1.0000
  C   C398      1.0  0.99852  0.83934  0.33394  1.0000
  C   C399      1.0  0.96894  0.83601  0.33951  1.0000
  C   C400      1.0  0.95515  0.80887  0.33537  1.0000
  C   C401      1.0  0.97120  0.78518  0.32660  1.0000
  H   H480      1.0  0.98840  0.84645  0.01373  1.0000
  H   H481      1.0  0.81502  0.78883  0.39821  1.0000
  H   H482      1.0  0.93222  0.80611  0.33917  1.0000
  H   H483      1.0  0.96052  0.76421  0.32367  1.0000
  C   C402      1.0  0.87806  0.97489  0.44424  1.0000
  H   H484      1.0  0.60303  0.67639  0.37840  1.0000
  H   H485      1.0  0.74992  0.79221  0.49004  1.0000
  H   H486      1.0  0.86270  0.95584  0.37463  1.0000
  N   N26       1.0  0.98506  0.81910  0.16606  1.0000
  C   C403      1.0  0.00089  0.79167  0.18675  1.0000
  C   C404      1.0  0.00810  0.84239  0.18662  1.0000
  C   C405      1.0  0.95766  0.82314  0.18230  1.0000
  C   C406      1.0  0.97407  0.81831  0.11270  1.0000
  C   C407      1.0  0.75970  0.98024  0.30910  1.0000
  H   H487      1.0  0.96551  0.82546  0.22220  1.0000
  N   N27       1.0  0.01144  0.81003  0.49240  1.0000
  H   H488      1.0  0.73295  0.92266  0.35266  1.0000
  H   H489      1.0  0.63390  0.75029  0.05640  1.0000
  H   H490      1.0  0.80504  0.96272  0.42643  1.0000
  C   C408      1.0  0.80858  0.77282  0.42044  1.0000
  S   S119      1.0  0.02050  0.75830  0.31087  1.0000
  H   H491      1.0  0.74730  0.97193  0.27377  1.0000
  H   H492      1.0  0.71415  0.74869  0.35073  1.0000
  C   C409      1.0  0.86597  0.97553  0.39380  1.0000
  C   C410      1.0  0.59255  0.69162  0.06882  1.0000
  C   C411      1.0  0.54571  0.73911  0.09601  1.0000
  H   H493      1.0  0.75593  0.68285  0.45700  1.0000
  H   H494      1.0  0.71295  0.75197  0.43176  1.0000
  H   H495      1.0  0.98591  0.73285  0.06050  1.0000
  H   H496      1.0  0.81535  0.93550  0.31436  1.0000
  H   H497      1.0  0.02313  0.80433  0.42859  1.0000
  C   C412      1.0  0.97718  0.83370  0.03438  1.0000
  H   H498      1.0  0.00800  0.85103  0.45501  1.0000
  H   H499      1.0  0.79470  0.90200  0.30101  1.0000
  C   C413      1.0  0.82106  0.74621  0.49579  1.0000
  C   C414      1.0  0.00182  0.74870  0.05437  1.0000
  C   C415      1.0  0.61868  0.73173  0.04614  1.0000
  C   C416      1.0  0.77048  0.73726  0.42996  1.0000
  H   H500      1.0  0.69610  0.71679  0.42355  1.0000
  H   H501      1.0  0.00928  0.79125  0.22679  1.0000
  H   H502      1.0  0.99783  0.86370  0.17184  1.0000
  H   H503      1.0  0.82168  0.92203  0.40052  1.0000
  H   H504      1.0  0.96927  0.81742  0.42942  1.0000
  H   H505      1.0  0.94119  0.80464  0.17426  1.0000
  C   C417      1.0  0.98761  0.83559  0.08462  1.0000
  C   C418      1.0  0.77946  0.75859  0.40202  1.0000
  H   H506      1.0  0.93968  0.78403  0.10632  1.0000
  C   C419      1.0  0.95009  0.79876  0.08737  1.0000
  N   N28       1.0  0.74043  0.72092  0.41103  1.0000
  C   C420      1.0  0.72293  0.72627  0.35865  1.0000
  C   C421      1.0  0.79188  0.73202  0.47788  1.0000
  H   H507      1.0  0.85212  0.77745  0.48101  1.0000
  C   C422      1.0  0.01456  0.81567  0.32525  1.0000
  C   C423      1.0  0.57786  0.68493  0.02026  1.0000
  H   H508      1.0  0.62316  0.72067  0.11932  1.0000
  H   H509      1.0  0.78650  0.91657  0.41608  1.0000
  H   H510      1.0  0.96220  0.81437  0.48459  1.0000
  H   H511      1.0  0.72933  0.92782  0.29063  1.0000
  C   C424      1.0  0.93996  0.79700  0.03716  1.0000
  H   H512      1.0  0.73789  0.72147  0.33681  1.0000
  H   H513      1.0  0.02574  0.77245  0.46507  1.0000
  H   H514      1.0  0.00940  0.86026  0.33736  1.0000
  H   H515      1.0  0.74501  0.89499  0.32176  1.0000
  H   H516      1.0  0.94377  0.84260  0.16487  1.0000
  H   H517      1.0  0.58729  0.67926  0.09664  1.0000
  H   H518      1.0  0.98224  0.92699  0.49435  1.0000
  C   C425      1.0  0.53998  0.75334  0.05118  1.0000
  H   H519      1.0  0.76507  0.68337  0.40241  1.0000
  H   H520      1.0  0.76447  0.76470  0.36569  1.0000
  H   H521      1.0  0.54045  0.73353  0.45988  1.0000
  C   C426      1.0  0.01752  0.84125  0.49220  1.0000
  N   N29       1.0  0.77734  0.93062  0.34225  1.0000
  C   C427      1.0  0.79156  0.92528  0.30499  1.0000
  C   C428      1.0  0.79654  0.91457  0.38692  1.0000
  C   C429      1.0  0.74474  0.91859  0.32610  1.0000
  C   C430      1.0  0.77611  0.96177  0.34893  1.0000
  H   H522      1.0  0.01513  0.84295  0.22665  1.0000
  C   C431      1.0  0.95337  0.81452  0.01072  1.0000
  H   H523      1.0  0.55240  0.77303  0.04971  1.0000
  C   C432      1.0  0.97704  0.80587  0.46491  1.0000
  H   H524      1.0  0.02195  0.78816  0.17613  1.0000
  C   C433      1.0  0.02694  0.75925  0.09379  1.0000
  H   H525      1.0  0.92252  0.78118  0.01860  1.0000
  C   C434      1.0  0.52951  0.71366  0.09743  1.0000
  C   C435      1.0  0.88264  0.00073  0.46871  1.0000
  H   H526      1.0  0.53377  0.70238  0.13153  1.0000
  C   C436      1.0  0.54630  0.72604  0.49714  1.0000
  H   H527      1.0  0.84681  0.00200  0.32909  1.0000
  C   C437      1.0  0.85722  0.00173  0.36808  1.0000
  H   H528      1.0  0.00026  0.83333  0.67344  1.0000
  Fe  Fe61      1.0  0.99054  0.74403  0.80751  1.0000
  S   S120      1.0  0.98326  0.78263  0.84579  1.0000
  Fe  Fe62      1.0  0.92184  0.72224  0.78754  1.0000
  S   S121      1.0  0.91001  0.75967  0.82349  1.0000
  S   S122      1.0  0.88496  0.69074  0.74387  1.0000
  Fe  Fe63      1.0  0.93619  0.78586  0.78465  1.0000
  S   S123      1.0  0.91521  0.82555  0.73931  1.0000
  Fe  Fe64      1.0  0.95841  0.75208  0.88077  1.0000
  S   S124      1.0  0.96285  0.74728  0.95944  1.0000
  S   S125      1.0  0.94481  0.74873  0.74497  1.0000
  S   S126      1.0  0.96882  0.71289  0.84653  1.0000
  H   H529      1.0  0.56971  0.69897  0.63011  1.0000
  C   C438      1.0  0.78557  0.68392  0.75415  1.0000
  H   H530      1.0  0.01219  0.99498  0.56374  1.0000
  H   H531      1.0  0.01381  0.78728  0.96323  1.0000
  C   C439      1.0  0.00210  0.77902  0.55835  1.0000
  C   C440      1.0  0.58502  0.70769  0.57137  1.0000
  C   C441      1.0  0.57729  0.71738  0.52368  1.0000
  C   C442      1.0  0.59280  0.68325  0.74768  1.0000
  C   C443      1.0  0.84688  0.68859  0.74843  1.0000
  C   C444      1.0  0.84031  0.70114  0.78614  1.0000
  C   C445      1.0  0.80978  0.69878  0.78896  1.0000
  C   C446      1.0  0.58361  0.70139  0.98301  1.0000
  H   H532      1.0  0.85889  0.71227  0.81359  1.0000
  H   H533      1.0  0.80503  0.70819  0.81868  1.0000
  C   C447      1.0  0.91820  0.82361  0.68182  1.0000
  C   C448      1.0  0.94147  0.80636  0.67536  1.0000
  C   C449      1.0  0.94085  0.80085  0.62891  1.0000
  C   C450      1.0  0.91808  0.81386  0.58856  1.0000
  C   C451      1.0  0.89628  0.83314  0.59491  1.0000
  C   C452      1.0  0.89626  0.83792  0.64164  1.0000
  H   H534      1.0  0.96010  0.79719  0.70627  1.0000
  H   H535      1.0  0.95815  0.78642  0.62439  1.0000
  H   H536      1.0  0.87887  0.84362  0.56388  1.0000
  H   H537      1.0  0.87874  0.85203  0.64650  1.0000
  H   H538      1.0  0.60917  0.70069  0.59159  1.0000
  C   C453      1.0  0.54763  0.70275  0.76463  1.0000
  H   H539      1.0  0.95156  0.86780  0.59702  1.0000
  H   H540      1.0  0.01411  0.91233  0.68349  1.0000
  N   N30       1.0  0.56825  0.69524  0.93113  1.0000
  H   H541      1.0  0.60593  0.71192  0.90806  1.0000
  C   C454      1.0  0.57597  0.70676  0.75530  1.0000
  H   H542      1.0  0.58192  0.68578  0.87003  1.0000
  C   C455      1.0  0.53632  0.67502  0.76662  1.0000
  H   H543      1.0  0.96437  0.90704  0.55657  1.0000
  H   H544      1.0  0.58489  0.72816  0.75374  1.0000
  H   H545      1.0  0.99656  0.83299  0.61107  1.0000
  C   C456      1.0  0.52993  0.71521  0.56686  1.0000
  C   C457      1.0  0.02148  0.79809  0.54246  1.0000
  H   H546      1.0  0.60926  0.73903  0.97121  1.0000
  C   C458      1.0  0.98908  0.90374  0.56126  1.0000
  H   H547      1.0  0.97865  0.77269  0.53518  1.0000
  C   C459      1.0  0.54707  0.71936  0.90640  1.0000
  N   N31       1.0  0.00070  0.87503  0.64025  1.0000
  C   C460      1.0  0.96616  0.87796  0.63127  1.0000
  H   H548      1.0  0.56001  0.73989  0.90887  1.0000
  C   C461      1.0  0.59271  0.69184  0.90855  1.0000
  H   H549      1.0  0.89191  0.00038  0.50776  1.0000
  H   H550      1.0  0.83726  0.74161  0.53227  1.0000
  C   C462      1.0  0.99912  0.91558  0.52509  1.0000
  C   C463      1.0  0.01044  0.88806  0.60143  1.0000
  H   H551      1.0  0.95887  0.90073  0.62981  1.0000
  N   N32       1.0  0.82795  0.77448  0.67511  1.0000
  C   C464      1.0  0.83603  0.80271  0.69764  1.0000
  C   C465      1.0  0.81404  0.75700  0.70536  1.0000
  C   C466      1.0  0.85772  0.76014  0.67692  1.0000
  C   C467      1.0  0.80640  0.77842  0.62429  1.0000
  C   C468      1.0  0.77512  0.76691  0.60652  1.0000
  C   C469      1.0  0.81636  0.79469  0.59094  1.0000
  C   C470      1.0  0.75510  0.77194  0.55861  1.0000
  C   C471      1.0  0.79611  0.79969  0.54322  1.0000
  S   S127      1.0  0.74793  0.68074  0.76034  1.0000
  H   H552      1.0  0.81434  0.81440  0.69668  1.0000
  H   H553      1.0  0.85227  0.80061  0.73605  1.0000
  H   H554      1.0  0.84871  0.81661  0.67941  1.0000
  H   H555      1.0  0.80846  0.73498  0.69173  1.0000
  H   H556      1.0  0.79212  0.76693  0.70731  1.0000
  H   H557      1.0  0.83090  0.75467  0.74330  1.0000
  H   H558      1.0  0.87183  0.77333  0.65993  1.0000
  H   H559      1.0  0.87381  0.75569  0.71477  1.0000
  H   H560      1.0  0.85275  0.73919  0.65893  1.0000
  H   H561      1.0  0.76544  0.75409  0.62896  1.0000
  H   H562      1.0  0.83991  0.80382  0.60172  1.0000
  H   H563      1.0  0.01747  0.79660  0.78064  1.0000
  H   H564      1.0  0.95954  0.86733  0.66057  1.0000
  H   H565      1.0  0.73119  0.76330  0.54597  1.0000
  H   H566      1.0  0.99759  0.75280  0.61680  1.0000
  C   C472      1.0  0.76553  0.78835  0.52709  1.0000
  H   H567      1.0  0.53512  0.71557  0.86731  1.0000
  H   H568      1.0  0.78624  0.71686  0.50187  1.0000
  C   C473      1.0  0.56188  0.70666  0.59297  1.0000
  H   H569      1.0  0.59537  0.71789  0.50714  1.0000
  H   H570      1.0  0.61464  0.68656  0.74063  1.0000
  S   S128      1.0  0.91741  0.80500  0.53108  1.0000
  H   H571      1.0  0.61031  0.67500  0.92797  1.0000
  H   H572      1.0  0.00602  0.85234  0.51443  1.0000
  H   H573      1.0  0.94626  0.81226  0.97198  1.0000
  C   C474      1.0  0.82260  0.67396  0.71331  1.0000
  H   H574      1.0  0.01095  0.88020  0.71644  1.0000
  C   C475      1.0  0.00828  0.84402  0.64562  1.0000
  C   C476      1.0  0.79195  0.67193  0.71578  1.0000
  C   C477      1.0  0.01825  0.88884  0.68647  1.0000
  C   C478      1.0  0.60440  0.72509  0.99750  1.0000
  H   H575      1.0  0.80425  0.81231  0.51851  1.0000
  C   C479      1.0  0.01263  0.76740  0.60540  1.0000
  H   H576      1.0  0.53467  0.71949  0.66249  1.0000
  C   C480      1.0  0.01752  0.77926  0.99945  1.0000
