data_image0
_chemical_formula_structural       HFeSCFeS2H2FeS2FeS2FeSFeS4CSHFeSCHC3S2HC7H4C4HC2HC7H4C4H5SHNC5H2CH10FeC2H2C3HCH3CH2FeH2CHC2H2NC4SH2CH3CH7NC2H3CH4CH2CHCNCH2FeCH2SH3CH2C2HCSCHCHCH2C3H2C3HCH2FeHSHC2SNFeS2FeS2FeSFeS3FeCSFeSC2FeS2H3FeH3C6H4C6H4C2H4CH3C3H3NH2C2H2C3HCH4C2H4CSH3CH2CH2CHCHC2HC2H4C4H5CNH2C2HC2HCHNCHCSH2CHSCHCHC2HCHSCHC2HC2FeC2HCFeS2FeS2FeSFeS3HSCH2C2H2C7H4C6H4SCHNC9H15CH2CHC2HCH5SH2C2NH3C2FeNH3CFeS2FeS2FeSFeS3HCSC6H4C6H4NH3C2H2CHC4HNCSHCH3CHC2H7C4H2C2H4CSH3C5H2CHSHFeHCH2C2HNCH2CH2CNH3C3H2CHCH3C2FeSCFeSFe2S2FeS2FeSFeS3FeSCFeSFeSFeS3C4H3CHC7H4CH3C3H4CHC6H5CHNH2C7H10CH2SHCHCNC4H4CH10CHCSCH4CH3CH2C5H2CSHCN2H3NH3CSC2HCH3CH4SC2H3C2HCHCHCHC2FeHFeS2CFeS2FeS2FeS2FeSFeS3FeS2FeCSFe2S3CHCH3CHC6H7CHCH2CHC6H6CHCH3C4HCH4CH2CH3C2HCH2CNC9H16CH2CSHCN2HCH3C2HNHC2HC2SCHCH2C3HC2HCHCHNHSC2H2CH4CH2C2S2FeS2FeS2FeSFeS3FeHSFeSNHS2CH3C2H2CHC6H4C2H2CHC6H4C3H4CH2C2H3CSH11NH2C3HCHCH2CHCH4C4H3FeHCHCHCH3C3H2C3H2C2H4NC7HCH3NHFeHC3HC2HSCHSFeS2FeS2FeSFeS3FeCSFeC2H2S2C2HCH3CHCHC7H4C6H4C3H2SC2H3NC3HC2H2CNHCH2CH2C4HSH2CHCNH3C3H4C5H2CHCHCH5FeH2CH4CH2FeHNH2SC2HCH3CHSHC3HCH6CH2C4FeS2FeS2FeSFeS3CHFeSHCHNCH3C3HCHC7H4C6H6CHC2H3C2HC5H2C2HCH2CH2C2HC2H5CHCH5CH2CHCH5C2HCHNC2H6CH3C2S2H2CHCHNCHCHFeS2FeS2FeSFeS3HSC5H3C2HC3HCH2C6H5C3HC2H3CH3CHC3H2CH2SHCH9C2HCH3C5HCH2N2H2NHCHCH2CHCSCSC2H3C2H2C2HCHCHC3H2CHCH3C2HCHFeH2SH2Fe2S2FeS2FeSFeS3FeSHFeSFeSFeSCSC2H3CHCH2C6H4C3H2C2NCH2C2H2C6H3C4H3C2H2CHC3H2CSCH2C2H5CHNC3H2C2HCHCHNH4CH2CHC2HCHCH7CHCHCHSH3CHC2H3CHCSC2HNH4NC2SFeS2FeS2FeSFeS3FeS2FeS2FeSFeS2C2HC2H2NC2H2C6H4CHCH2C6H4CH5SNCHCH2C2H10C2H3CNCHCH4CHCH2CH2CH4C2H2CH2CH2NC5H4FeHC2H2CHCHC3H2C2H2
_chemical_formula_sum              "H864 Fe96 S192 C720 N48"
_cell_length_a       53.0675
_cell_length_b       53.0243
_cell_length_c       42.0991
_cell_angle_alpha    87.8562
_cell_angle_beta     89.2045
_cell_angle_gamma    89.74

_space_group_name_H-M_alt    "P 1"
_space_group_IT_number       1

loop_
  _space_group_symop_operation_xyz
  'x, y, z'

loop_
  _atom_site_type_symbol
  _atom_site_label
  _atom_site_symmetry_multiplicity
  _atom_site_fract_x
  _atom_site_fract_y
  _atom_site_fract_z
  _atom_site_occupancy
  H   H1        1.0  0.14520  0.27649  0.19285  1.0000
  Fe  Fe1       1.0  0.12727  0.32351  0.39470  1.0000
  S   S1        1.0  0.46130  0.10225  0.16497  1.0000
  C   C1        1.0  0.21200  0.23071  0.41111  1.0000
  Fe  Fe2       1.0  0.45647  0.13736  0.19242  1.0000
  S   S2        1.0  0.41556  0.14933  0.20015  1.0000
  S   S3        1.0  0.14791  0.32824  0.44078  1.0000
  H   H2        1.0  0.40332  0.11659  0.10278  1.0000
  H   H3        1.0  0.48412  0.03120  0.10964  1.0000
  Fe  Fe3       1.0  0.26440  0.10633  0.32942  1.0000
  S   S4        1.0  0.29445  0.10180  0.36580  1.0000
  S   S5        1.0  0.25176  0.07172  0.30381  1.0000
  Fe  Fe4       1.0  0.26276  0.16378  0.33542  1.0000
  S   S6        1.0  0.29364  0.16290  0.37185  1.0000
  S   S7        1.0  0.24727  0.20260  0.32062  1.0000
  Fe  Fe5       1.0  0.31295  0.13493  0.34017  1.0000
  S   S8        1.0  0.35512  0.12925  0.33107  1.0000
  Fe  Fe6       1.0  0.27238  0.12988  0.39353  1.0000
  S   S9        1.0  0.26037  0.12157  0.44476  1.0000
  S   S10       1.0  0.28381  0.13822  0.30219  1.0000
  S   S11       1.0  0.24054  0.13212  0.35877  1.0000
  S   S12       1.0  0.09468  0.30587  0.31627  1.0000
  C   C2        1.0  0.10237  0.32529  0.47255  1.0000
  S   S13       1.0  0.10170  0.29034  0.39176  1.0000
  H   H4        1.0  0.37088  0.06161  0.27413  1.0000
  Fe  Fe7       1.0  0.12227  0.28295  0.34606  1.0000
  S   S14       1.0  0.13457  0.24252  0.33759  1.0000
  C   C3        1.0  0.20490  0.01656  0.35475  1.0000
  H   H5        1.0  0.43667  0.12389  0.10404  1.0000
  C   C4        1.0  0.12856  0.32626  0.47513  1.0000
  C   C5        1.0  0.40799  0.18536  0.01477  1.0000
  C   C6        1.0  0.41740  0.13025  0.11110  1.0000
  S   S15       1.0  0.03589  0.32125  0.37806  1.0000
  S   S16       1.0  0.14942  0.31464  0.35066  1.0000
  H   H6        1.0  0.14228  0.21824  0.44507  1.0000
  C   C7        1.0  0.45589  0.01774  0.16249  1.0000
  C   C8        1.0  0.21618  0.21340  0.32819  1.0000
  C   C9        1.0  0.21095  0.23936  0.32466  1.0000
  C   C10       1.0  0.18623  0.24865  0.32832  1.0000
  C   C11       1.0  0.16633  0.23199  0.33512  1.0000
  C   C12       1.0  0.17161  0.20606  0.33915  1.0000
  C   C13       1.0  0.19644  0.19681  0.33600  1.0000
  H   H7        1.0  0.22611  0.25232  0.31854  1.0000
  H   H8        1.0  0.18262  0.26865  0.32529  1.0000
  H   H9        1.0  0.15638  0.19300  0.34441  1.0000
  H   H10       1.0  0.20020  0.17678  0.33872  1.0000
  C   C14       1.0  0.27221  0.13826  0.47668  1.0000
  C   C15       1.0  0.26990  0.01647  0.36895  1.0000
  C   C16       1.0  0.29228  0.15515  0.47293  1.0000
  C   C17       1.0  0.23099  0.19158  0.43064  1.0000
  H   H11       1.0  0.30066  0.15881  0.44964  1.0000
  C   C18       1.0  0.12072  0.26729  0.24937  1.0000
  C   C19       1.0  0.08709  0.32404  0.50002  1.0000
  H   H12       1.0  0.25638  0.05924  0.50397  1.0000
  C   C20       1.0  0.15138  0.29585  0.26824  1.0000
  C   C21       1.0  0.39884  0.14299  0.23648  1.0000
  C   C22       1.0  0.41075  0.13248  0.26332  1.0000
  C   C23       1.0  0.39708  0.12844  0.29202  1.0000
  C   C24       1.0  0.37131  0.13461  0.29418  1.0000
  C   C25       1.0  0.35924  0.14460  0.26715  1.0000
  C   C26       1.0  0.37299  0.14888  0.23851  1.0000
  H   H13       1.0  0.43063  0.12796  0.26220  1.0000
  H   H14       1.0  0.40663  0.12082  0.31280  1.0000
  H   H15       1.0  0.33945  0.14949  0.26845  1.0000
  H   H16       1.0  0.36358  0.15707  0.21795  1.0000
  C   C27       1.0  0.20527  0.22027  0.24997  1.0000
  C   C28       1.0  0.26485  0.04016  0.35440  1.0000
  C   C29       1.0  0.25942  0.04217  0.32203  1.0000
  C   C30       1.0  0.25961  0.02030  0.30415  1.0000
  H   H17       1.0  0.15742  0.28187  0.41412  1.0000
  H   H18       1.0  0.26418  0.05672  0.36857  1.0000
  H   H19       1.0  0.25546  0.02175  0.27906  1.0000
  H   H20       1.0  0.43897  0.02152  0.14905  1.0000
  H   H21       1.0  0.17780  0.20368  0.47267  1.0000
  S   S17       1.0  0.50013  0.05484  0.22180  1.0000
  H   H22       1.0  0.45491  0.05325  0.18519  1.0000
  N   N1        1.0  0.41213  0.15629  0.09867  1.0000
  C   C31       1.0  0.38711  0.16383  0.11149  1.0000
  C   C32       1.0  0.43155  0.17303  0.11145  1.0000
  C   C33       1.0  0.41237  0.15872  0.06348  1.0000
  C   C34       1.0  0.40712  0.18236  0.04792  1.0000
  C   C35       1.0  0.41830  0.13824  0.04373  1.0000
  H   H23       1.0  0.46099  0.05495  0.02032  1.0000
  H   H24       1.0  0.15334  0.27167  0.46859  1.0000
  C   C36       1.0  0.30191  0.16695  0.49962  1.0000
  H   H25       1.0  0.37181  0.15240  0.10144  1.0000
  H   H26       1.0  0.38613  0.16120  0.13794  1.0000
  H   H27       1.0  0.38277  0.18405  0.10629  1.0000
  H   H28       1.0  0.42825  0.19325  0.10495  1.0000
  H   H29       1.0  0.43192  0.17163  0.13794  1.0000
  H   H30       1.0  0.45067  0.16797  0.10244  1.0000
  H   H31       1.0  0.40281  0.19885  0.06133  1.0000
  H   H32       1.0  0.42337  0.11974  0.05320  1.0000
  H   H33       1.0  0.16512  0.30071  0.20749  1.0000
  H   H34       1.0  0.21174  0.17225  0.46932  1.0000
  Fe  Fe8       1.0  0.49240  0.09288  0.19876  1.0000
  C   C37       1.0  0.23108  0.21246  0.40959  1.0000
  C   C38       1.0  0.00890  0.29743  0.33140  1.0000
  H   H35       1.0  0.14841  0.22532  0.40369  1.0000
  H   H36       1.0  0.27347  0.01506  0.39421  1.0000
  C   C39       1.0  0.16642  0.25724  0.24562  1.0000
  C   C40       1.0  0.16109  0.23156  0.25410  1.0000
  C   C41       1.0  0.19209  0.26351  0.23960  1.0000
  H   H37       1.0  0.37308  0.07962  0.30866  1.0000
  C   C42       1.0  0.18032  0.21345  0.25608  1.0000
  H   H38       1.0  0.16325  0.24220  0.48596  1.0000
  H   H39       1.0  0.13690  0.31112  0.26775  1.0000
  H   H40       1.0  0.47080  0.00932  0.02605  1.0000
  C   C43       1.0  0.48642  0.12628  0.04380  1.0000
  H   H41       1.0  0.21312  0.24610  0.39363  1.0000
  H   H42       1.0  0.23071  0.25054  0.23799  1.0000
  Fe  Fe9       1.0  0.07679  0.31643  0.36278  1.0000
  H   H43       1.0  0.28873  0.05247  0.49444  1.0000
  H   H44       1.0  0.19086  0.27970  0.41709  1.0000
  C   C44       1.0  0.21184  0.18885  0.45345  1.0000
  H   H45       1.0  0.14237  0.22507  0.26044  1.0000
  C   C45       1.0  0.44173  0.02771  0.25704  1.0000
  C   C46       1.0  0.19203  0.22845  0.43394  1.0000
  H   H46       1.0  0.16989  0.30539  0.26502  1.0000
  H   H47       1.0  0.21290  0.02595  0.37471  1.0000
  N   N2        1.0  0.34270  0.05266  0.31048  1.0000
  C   C47       1.0  0.36850  0.06046  0.30038  1.0000
  C   C48       1.0  0.32428  0.06988  0.29457  1.0000
  C   C49       1.0  0.34039  0.05623  0.34524  1.0000
  C   C50       1.0  0.33810  0.02634  0.30141  1.0000
  S   S18       1.0  0.48383  0.15953  0.16062  1.0000
  H   H48       1.0  0.06687  0.32370  0.49766  1.0000
  H   H49       1.0  0.22021  0.20634  0.25284  1.0000
  C   C51       1.0  0.40240  0.02293  0.23003  1.0000
  H   H50       1.0  0.17397  0.26270  0.38752  1.0000
  H   H51       1.0  0.11578  0.25306  0.23174  1.0000
  H   H52       1.0  0.38290  0.04712  0.31024  1.0000
  C   C52       1.0  0.17362  0.26861  0.41249  1.0000
  H   H53       1.0  0.32611  0.07028  0.26828  1.0000
  H   H54       1.0  0.32657  0.08975  0.30175  1.0000
  H   H55       1.0  0.30465  0.06421  0.30078  1.0000
  H   H56       1.0  0.34413  0.07617  0.35129  1.0000
  H   H57       1.0  0.32099  0.05184  0.35423  1.0000
  H   H58       1.0  0.35419  0.04438  0.35878  1.0000
  H   H59       1.0  0.17601  0.19416  0.26367  1.0000
  N   N3        1.0  0.14668  0.27709  0.24385  1.0000
  C   C53       1.0  0.33990  0.01978  0.26905  1.0000
  C   C54       1.0  0.19260  0.20695  0.45515  1.0000
  H   H60       1.0  0.45621  0.03989  0.26603  1.0000
  H   H61       1.0  0.41663  0.12900  0.13757  1.0000
  H   H62       1.0  0.18624  0.26587  0.47463  1.0000
  C   C55       1.0  0.21115  0.24525  0.24177  1.0000
  H   H63       1.0  0.11839  0.25862  0.27377  1.0000
  H   H64       1.0  0.17903  0.03047  0.28307  1.0000
  H   H65       1.0  0.34407  0.03392  0.25062  1.0000
  H   H66       1.0  0.13193  0.30449  0.20961  1.0000
  C   C56       1.0  0.14705  0.23371  0.42756  1.0000
  H   H67       1.0  0.47980  0.16426  0.05824  1.0000
  H   H68       1.0  0.02647  0.28901  0.32377  1.0000
  C   C57       1.0  0.16836  0.25688  0.46753  1.0000
  H   H69       1.0  0.19663  0.05142  0.32920  1.0000
  C   C58       1.0  0.46514  0.03588  0.18247  1.0000
  N   N4        1.0  0.17080  0.24668  0.43524  1.0000
  C   C59       1.0  0.00879  0.31444  0.35607  1.0000
  H   H70       1.0  0.13070  0.24697  0.42704  1.0000
  H   H71       1.0  0.10633  0.28264  0.24753  1.0000
  Fe  Fe10      1.0  0.49016  0.12336  0.13501  1.0000
  C   C60       1.0  0.19567  0.03098  0.32914  1.0000
  H   H72       1.0  0.24560  0.17727  0.42891  1.0000
  H   H73       1.0  0.41852  0.05879  0.24096  1.0000
  S   S19       1.0  0.48557  0.12628  0.22868  1.0000
  H   H74       1.0  0.15095  0.28669  0.29241  1.0000
  H   H75       1.0  0.00210  0.28951  0.42223  1.0000
  H   H76       1.0  0.19770  0.28273  0.23390  1.0000
  C   C61       1.0  0.14731  0.29017  0.21205  1.0000
  H   H77       1.0  0.32929  0.00968  0.34898  1.0000
  H   H78       1.0  0.38620  0.03134  0.21830  1.0000
  C   C62       1.0  0.18596  0.01910  0.30306  1.0000
  C   C63       1.0  0.33186  0.00658  0.32393  1.0000
  H   H79       1.0  0.01295  0.30585  0.46903  1.0000
  C   C64       1.0  0.48108  0.15194  0.03842  1.0000
  S   S20       1.0  0.48987  0.11218  0.08269  1.0000
  C   C65       1.0  0.42052  0.03841  0.24279  1.0000
  H   H80       1.0  0.24577  0.21422  0.39140  1.0000
  C   C66       1.0  0.48716  0.03121  0.19952  1.0000
  H   H81       1.0  0.49299  0.09100  0.02112  1.0000
  C   C67       1.0  0.44516  0.00151  0.25828  1.0000
  H   H82       1.0  0.49323  0.06193  0.12113  1.0000
  H   H83       1.0  0.31762  0.17983  0.49669  1.0000
  C   C68       1.0  0.49934  0.00787  0.19779  1.0000
  C   C69       1.0  0.49530  0.04804  0.10201  1.0000
  C   C70       1.0  0.48850  0.11078  0.01741  1.0000
  H   H84       1.0  0.09383  0.32595  0.44934  1.0000
  H   H85       1.0  0.48634  0.05649  0.08034  1.0000
  C   C71       1.0  0.41886  0.14143  0.01059  1.0000
  C   C72       1.0  0.00305  0.29494  0.48748  1.0000
  C   C73       1.0  0.13942  0.32560  0.50540  1.0000
  H   H86       1.0  0.27984  0.08354  0.50399  1.0000
  C   C74       1.0  0.26141  0.13381  0.50692  1.0000
  H   H87       1.0  0.01199  0.27623  0.56471  1.0000
  H   H88       1.0  0.18961  0.20925  0.60189  1.0000
  Fe  Fe11      1.0  0.45599  0.12410  0.83122  1.0000
  H   H89       1.0  0.24618  0.23278  0.52060  1.0000
  S   S21       1.0  0.42345  0.11433  0.79867  1.0000
  H   H90       1.0  0.41549  0.16747  0.97049  1.0000
  C   C75       1.0  0.25633  0.23260  0.58270  1.0000
  C   C76       1.0  0.16915  0.24259  0.59078  1.0000
  S   S22       1.0  0.46132  0.10466  0.87951  1.0000
  N   N5        1.0  0.47199  0.17973  0.73742  1.0000
  Fe  Fe12      1.0  0.25640  0.15705  0.66510  1.0000
  S   S23       1.0  0.28770  0.18414  0.65348  1.0000
  S   S24       1.0  0.21622  0.17044  0.67614  1.0000
  Fe  Fe13      1.0  0.29033  0.11064  0.65270  1.0000
  S   S25       1.0  0.32361  0.13559  0.64026  1.0000
  S   S26       1.0  0.30061  0.07000  0.64172  1.0000
  Fe  Fe14      1.0  0.31223  0.15741  0.68282  1.0000
  S   S27       1.0  0.33893  0.17433  0.71862  1.0000
  Fe  Fe15      1.0  0.29596  0.15939  0.61248  1.0000
  S   S28       1.0  0.30402  0.17661  0.56330  1.0000
  S   S29       1.0  0.28021  0.13139  0.69709  1.0000
  S   S30       1.0  0.26338  0.13351  0.62236  1.0000
  Fe  Fe16      1.0  0.12977  0.29947  0.66391  1.0000
  C   C77       1.0  0.26174  0.17326  0.76803  1.0000
  S   S31       1.0  0.16970  0.28229  0.66652  1.0000
  Fe  Fe17      1.0  0.07297  0.30002  0.67809  1.0000
  S   S32       1.0  0.03699  0.28662  0.70306  1.0000
  C   C78       1.0  0.48608  0.02374  0.80004  1.0000
  C   C79       1.0  0.24476  0.15258  0.77100  1.0000
  Fe  Fe18      1.0  0.09346  0.31968  0.61387  1.0000
  S   S33       1.0  0.09656  0.28208  0.64002  1.0000
  S   S34       1.0  0.10631  0.31411  0.70492  1.0000
  H   H91       1.0  0.28563  0.10446  0.78841  1.0000
  H   H92       1.0  0.26087  0.25074  0.56989  1.0000
  H   H93       1.0  0.22480  0.15465  0.76692  1.0000
  Fe  Fe19      1.0  0.47879  0.14101  0.89422  1.0000
  H   H94       1.0  0.21631  0.19726  0.78035  1.0000
  H   H95       1.0  0.13250  0.32396  0.55626  1.0000
  H   H96       1.0  0.21765  0.19055  0.73855  1.0000
  C   C80       1.0  0.20354  0.20164  0.67257  1.0000
  C   C81       1.0  0.21881  0.22276  0.66643  1.0000
  C   C82       1.0  0.20807  0.24717  0.66465  1.0000
  C   C83       1.0  0.18192  0.25089  0.66867  1.0000
  C   C84       1.0  0.16663  0.22974  0.67457  1.0000
  C   C85       1.0  0.17742  0.20531  0.67665  1.0000
  H   H97       1.0  0.23889  0.22036  0.66321  1.0000
  H   H98       1.0  0.22006  0.26339  0.66003  1.0000
  H   H99       1.0  0.14652  0.23223  0.67784  1.0000
  H   H100      1.0  0.16538  0.18917  0.68150  1.0000
  C   C86       1.0  0.40043  0.13176  0.77645  1.0000
  C   C87       1.0  0.38496  0.11877  0.75569  1.0000
  C   C88       1.0  0.36625  0.13151  0.73770  1.0000
  C   C89       1.0  0.36268  0.15750  0.74029  1.0000
  C   C90       1.0  0.37816  0.17056  0.76103  1.0000
  C   C91       1.0  0.39694  0.15781  0.77900  1.0000
  H   H101      1.0  0.38743  0.09864  0.75353  1.0000
  H   H102      1.0  0.35452  0.12118  0.72191  1.0000
  H   H103      1.0  0.37545  0.19064  0.76339  1.0000
  H   H104      1.0  0.40838  0.16805  0.79518  1.0000
  C   C92       1.0  0.26880  0.03667  0.67561  1.0000
  C   C93       1.0  0.28811  0.04003  0.65291  1.0000
  H   H105      1.0  0.40456  0.20371  0.00339  1.0000
  H   H106      1.0  0.26079  0.05287  0.68698  1.0000
  H   H107      1.0  0.32049  0.05060  0.53652  1.0000
  H   H108      1.0  0.24520  0.00964  0.70156  1.0000
  C   C94       1.0  0.09784  0.32351  0.53031  1.0000
  H   H109      1.0  0.27046  0.09521  0.55676  1.0000
  H   H110      1.0  0.45383  0.07465  0.96701  1.0000
  H   H111      1.0  0.31180  0.05708  0.57676  1.0000
  C   C95       1.0  0.27114  0.14541  0.53349  1.0000
  C   C96       1.0  0.44818  0.18331  0.71960  1.0000
  C   C97       1.0  0.28767  0.16778  0.77281  1.0000
  H   H112      1.0  0.26257  0.14183  0.55652  1.0000
  H   H113      1.0  0.30187  0.18227  0.76984  1.0000
  H   H114      1.0  0.22604  0.20556  0.52212  1.0000
  N   N6        1.0  0.28068  0.05728  0.54460  1.0000
  H   H115      1.0  0.35505  0.01102  0.69914  1.0000
  H   H116      1.0  0.15244  0.27852  0.57808  1.0000
  C   C98       1.0  0.23299  0.19400  0.58448  1.0000
  C   C99       1.0  0.48482  0.12061  0.98616  1.0000
  H   H117      1.0  0.46534  0.13972  0.74586  1.0000
  H   H118      1.0  0.18904  0.29302  0.54553  1.0000
  C   C100      1.0  0.21196  0.23476  0.57021  1.0000
  C   C101      1.0  0.19039  0.22698  0.58842  1.0000
  C   C102      1.0  0.21077  0.25896  0.55456  1.0000
  H   H119      1.0  0.45610  0.04999  0.91994  1.0000
  C   C103      1.0  0.46460  0.01372  0.94481  1.0000
  H   H120      1.0  0.31318  0.02118  0.62069  1.0000
  H   H121      1.0  0.28535  0.20585  0.72698  1.0000
  H   H122      1.0  0.27399  0.22108  0.58267  1.0000
  H   H123      1.0  0.30017  0.01516  0.51672  1.0000
  C   C104      1.0  0.27621  0.06327  0.51037  1.0000
  C   C105      1.0  0.25755  0.02285  0.57730  1.0000
  H   H124      1.0  0.48405  0.06018  0.82042  1.0000
  H   H125      1.0  0.22016  0.22209  0.75053  1.0000
  H   H126      1.0  0.22662  0.26644  0.54093  1.0000
  H   H127      1.0  0.44247  0.16608  0.70733  1.0000
  C   C106      1.0  0.26541  0.07532  0.56309  1.0000
  S   S35       1.0  0.47047  0.16145  0.84699  1.0000
  H   H128      1.0  0.22972  0.19550  0.61050  1.0000
  H   H129      1.0  0.24806  0.03616  0.59218  1.0000
  H   H130      1.0  0.45405  0.15913  0.77663  1.0000
  C   C107      1.0  0.00853  0.28951  0.68182  1.0000
  H   H131      1.0  0.47176  0.02734  0.88087  1.0000
  H   H132      1.0  0.43199  0.18769  0.73564  1.0000
  C   C108      1.0  0.47497  0.20185  0.75772  1.0000
  H   H133      1.0  0.48643  0.10845  0.96618  1.0000
  H   H134      1.0  0.21753  0.18271  0.57458  1.0000
  C   C109      1.0  0.18940  0.27437  0.55706  1.0000
  H   H135      1.0  0.02644  0.29320  0.63572  1.0000
  C   C110      1.0  0.45923  0.04006  0.94242  1.0000
  H   H136      1.0  0.25177  0.23691  0.60783  1.0000
  C   C111      1.0  0.22573  0.20232  0.75723  1.0000
  C   C112      1.0  0.29834  0.01879  0.63841  1.0000
  H   H137      1.0  0.44992  0.19902  0.70142  1.0000
  C   C113      1.0  0.26002  0.01215  0.68382  1.0000
  C   C114      1.0  0.46956  0.15708  0.75882  1.0000
  H   H138      1.0  0.49135  0.19939  0.77393  1.0000
  H   H139      1.0  0.15323  0.23671  0.60569  1.0000
  H   H140      1.0  0.24491  0.07321  0.55873  1.0000
  H   H141      1.0  0.45824  0.20450  0.77356  1.0000
  C   C115      1.0  0.00282  0.27841  0.54187  1.0000
  C   C116      1.0  0.25337  0.12813  0.77862  1.0000
  C   C117      1.0  0.29608  0.14328  0.78021  1.0000
  C   C118      1.0  0.27896  0.12350  0.78320  1.0000
  H   H142      1.0  0.24017  0.11257  0.78028  1.0000
  H   H143      1.0  0.31611  0.13960  0.78277  1.0000
  H   H144      1.0  0.25648  0.21128  0.80710  1.0000
  H   H145      1.0  0.25782  0.19333  0.70935  1.0000
  H   H146      1.0  0.25547  0.23670  0.77755  1.0000
  C   C119      1.0  0.29170  0.16169  0.53009  1.0000
  N   N7        1.0  0.25355  0.19929  0.75907  1.0000
  H   H147      1.0  0.25862  0.22591  0.71943  1.0000
  H   H148      1.0  0.28357  0.21871  0.78243  1.0000
  C   C120      1.0  0.00869  0.29280  0.64871  1.0000
  C   C121      1.0  0.30758  0.06192  0.55139  1.0000
  H   H149      1.0  0.47122  0.02786  0.78324  1.0000
  C   C122      1.0  0.26436  0.20649  0.72742  1.0000
  C   C123      1.0  0.26268  0.21721  0.78257  1.0000
  H   H150      1.0  0.47744  0.21960  0.74309  1.0000
  C   C124      1.0  0.28663  0.01092  0.53554  1.0000
  H   H151      1.0  0.25062  0.18275  0.58197  1.0000
  N   N8        1.0  0.23518  0.21922  0.56807  1.0000
  C   C125      1.0  0.45795  0.05461  0.96946  1.0000
  H   H152      1.0  0.43939  0.01798  0.88749  1.0000
  C   C126      1.0  0.24170  0.21502  0.53424  1.0000
  S   S36       1.0  0.07771  0.32236  0.56403  1.0000
  H   H153      1.0  0.25879  0.20288  0.53198  1.0000
  H   H154      1.0  0.26881  0.07296  0.58904  1.0000
  C   C127      1.0  0.47869  0.14610  0.98085  1.0000
  H   H155      1.0  0.47642  0.14469  0.69116  1.0000
  S   S37       1.0  0.47102  0.15881  0.94229  1.0000
  C   C128      1.0  0.16869  0.26624  0.57530  1.0000
  H   H156      1.0  0.31271  0.08213  0.54694  1.0000
  C   C129      1.0  0.12408  0.32416  0.53299  1.0000
  H   H157      1.0  0.42429  0.12586  0.99592  1.0000
  C   C130      1.0  0.27464  0.03047  0.55242  1.0000
  C   C131      1.0  0.41393  0.16494  0.99615  1.0000
  H   H158      1.0  0.24558  0.12110  0.50983  1.0000
  C   C132      1.0  0.49359  0.04218  0.82084  1.0000
  H   H159      1.0  0.03286  0.30050  0.52098  1.0000
  S   S38       1.0  0.49389  0.11152  0.81270  1.0000
  C   C133      1.0  0.46205  0.04356  0.99949  1.0000
  H   H160      1.0  0.48736  0.15372  0.77194  1.0000
  C   C134      1.0  0.46758  0.01789  0.00265  1.0000
  C   C135      1.0  0.01460  0.29209  0.51708  1.0000
  H   H161      1.0  0.47248  0.18148  0.00339  1.0000
  C   C136      1.0  0.49268  0.15676  0.69267  1.0000
  C   C137      1.0  0.49349  0.17603  0.71520  1.0000
  Fe  Fe20      1.0  0.50027  0.09570  0.86184  1.0000
  C   C138      1.0  0.45920  0.01104  0.88654  1.0000
  C   C139      1.0  0.46901  0.00318  0.97577  1.0000
  H   H162      1.0  0.15967  0.32652  0.50750  1.0000
  C   C140      1.0  0.47712  0.16172  0.00717  1.0000
  Fe  Fe21      1.0  0.12207  0.54178  0.17918  1.0000
  S   S39       1.0  0.13197  0.50175  0.16615  1.0000
  S   S40       1.0  0.14735  0.56748  0.20697  1.0000
  Fe  Fe22      1.0  0.06949  0.53818  0.15439  1.0000
  S   S41       1.0  0.07442  0.49820  0.14017  1.0000
  S   S42       1.0  0.03352  0.55986  0.14679  1.0000
  Fe  Fe23      1.0  0.09384  0.49148  0.18678  1.0000
  S   S43       1.0  0.08032  0.46034  0.22190  1.0000
  Fe  Fe24      1.0  0.11173  0.51124  0.11989  1.0000
  S   S44       1.0  0.11981  0.49410  0.07155  1.0000
  S   S45       1.0  0.08549  0.53078  0.20255  1.0000
  S   S46       1.0  0.10541  0.55198  0.13135  1.0000
  H   H163      1.0  0.04989  0.62558  0.30605  1.0000
  S   S47       1.0  0.13585  0.36309  0.28227  1.0000
  C   C141      1.0  0.04950  0.53098  0.06259  1.0000
  H   H164      1.0  0.11615  0.64210  0.49960  1.0000
  H   H165      1.0  0.05438  0.48189  0.08025  1.0000
  C   C142      1.0  0.12037  0.50772  0.03216  1.0000
  C   C143      1.0  0.01201  0.50603  0.06728  1.0000
  H   H166      1.0  0.18150  0.62469  0.17575  1.0000
  H   H167      1.0  0.12349  0.54632  0.04556  1.0000
  C   C144      1.0  0.05130  0.48613  0.05451  1.0000
  C   C145      1.0  0.13283  0.59131  0.22945  1.0000
  C   C146      1.0  0.14727  0.60523  0.25037  1.0000
  C   C147      1.0  0.13626  0.62479  0.26776  1.0000
  C   C148      1.0  0.11072  0.63079  0.26399  1.0000
  C   C149      1.0  0.09627  0.61663  0.24343  1.0000
  C   C150      1.0  0.10721  0.59699  0.22631  1.0000
  H   H168      1.0  0.16710  0.60093  0.25299  1.0000
  H   H169      1.0  0.14752  0.63513  0.28399  1.0000
  H   H170      1.0  0.07651  0.62102  0.24034  1.0000
  H   H171      1.0  0.09589  0.58656  0.21019  1.0000
  C   C151      1.0  0.09608  0.43315  0.23779  1.0000
  C   C152      1.0  0.08478  0.41942  0.26339  1.0000
  C   C153      1.0  0.09672  0.39801  0.27731  1.0000
  C   C154      1.0  0.12014  0.39004  0.26569  1.0000
  C   C155      1.0  0.13147  0.40378  0.24007  1.0000
  C   C156      1.0  0.11952  0.42520  0.22614  1.0000
  H   H172      1.0  0.06666  0.42538  0.27257  1.0000
  H   H173      1.0  0.08777  0.38763  0.29697  1.0000
  H   H174      1.0  0.14954  0.39772  0.23085  1.0000
  H   H175      1.0  0.12835  0.43546  0.20631  1.0000
  S   S48       1.0  0.10132  0.35057  0.36878  1.0000
  C   C157      1.0  0.12160  0.64703  0.17515  1.0000
  H   H176      1.0  0.02899  0.50907  0.17270  1.0000
  N   N9        1.0  0.14563  0.50059  0.27639  1.0000
  C   C158      1.0  0.16032  0.49796  0.30601  1.0000
  C   C159      1.0  0.13920  0.47485  0.26645  1.0000
  C   C160      1.0  0.16185  0.51219  0.25085  1.0000
  C   C161      1.0  0.12325  0.51675  0.28196  1.0000
  C   C162      1.0  0.09814  0.50754  0.28118  1.0000
  C   C163      1.0  0.12624  0.54254  0.28906  1.0000
  C   C164      1.0  0.07747  0.52343  0.28614  1.0000
  C   C165      1.0  0.10544  0.55822  0.29415  1.0000
  C   C166      1.0  0.08110  0.54874  0.29242  1.0000
  H   H177      1.0  0.14852  0.48967  0.32583  1.0000
  H   H178      1.0  0.17703  0.48544  0.30301  1.0000
  H   H179      1.0  0.16742  0.51644  0.31366  1.0000
  H   H180      1.0  0.12804  0.46411  0.28497  1.0000
  H   H181      1.0  0.15625  0.46319  0.26170  1.0000
  H   H182      1.0  0.12832  0.47578  0.24402  1.0000
  H   H183      1.0  0.15087  0.51578  0.22881  1.0000
  H   H184      1.0  0.16993  0.53056  0.25726  1.0000
  H   H185      1.0  0.17807  0.49985  0.24463  1.0000
  H   H186      1.0  0.09382  0.48822  0.27613  1.0000
  H   H187      1.0  0.14470  0.55094  0.29018  1.0000
  H   H188      1.0  0.05852  0.51605  0.28443  1.0000
  H   H189      1.0  0.10825  0.57800  0.29876  1.0000
  H   H190      1.0  0.06502  0.56108  0.29565  1.0000
  H   H191      1.0  0.16185  0.64359  0.48828  1.0000
  C   C167      1.0  0.00516  0.62269  0.27378  1.0000
  H   H192      1.0  0.05560  0.64605  0.33738  1.0000
  H   H193      1.0  0.07036  0.48773  0.04334  1.0000
  C   C168      1.0  0.16583  0.63742  0.17991  1.0000
  H   H194      1.0  0.13939  0.61407  0.15644  1.0000
  C   C169      1.0  0.14208  0.63139  0.16891  1.0000
  C   C170      1.0  0.03262  0.51380  0.01450  1.0000
  H   H195      1.0  0.18798  0.66282  0.20544  1.0000
  C   C171      1.0  0.04032  0.63577  0.32544  1.0000
  H   H196      1.0  0.06952  0.53223  0.05449  1.0000
  H   H197      1.0  0.03244  0.62147  0.34283  1.0000
  H   H198      1.0  0.11758  0.47156  0.01069  1.0000
  H   H199      1.0  0.04004  0.54920  0.05619  1.0000
  H   H200      1.0  0.00385  0.65645  0.36038  1.0000
  S   S49       1.0  0.09565  0.65569  0.28399  1.0000
  H   H201      1.0  0.05014  0.52947  0.08902  1.0000
  H   H202      1.0  0.02414  0.62065  0.26447  1.0000
  C   C172      1.0  0.00386  0.36428  0.50286  1.0000
  C   C173      1.0  0.00881  0.53820  0.14647  1.0000
  N   N10       1.0  0.03606  0.50937  0.04913  1.0000
  H   H203      1.0  0.04203  0.46949  0.04447  1.0000
  H   H204      1.0  0.00149  0.48909  0.06015  1.0000
  H   H205      1.0  0.04115  0.66070  0.26952  1.0000
  C   C174      1.0  0.12221  0.53377  0.02598  1.0000
  C   C175      1.0  0.01213  0.51385  0.15966  1.0000
  Fe  Fe25      1.0  0.12076  0.33855  0.32396  1.0000
  N   N11       1.0  0.02039  0.65329  0.31350  1.0000
  H   H206      1.0  0.01540  0.50306  0.09319  1.0000
  H   H207      1.0  0.10304  0.64177  0.16729  1.0000
  H   H208      1.0  0.01028  0.37093  0.47944  1.0000
  C   C176      1.0  0.16925  0.65921  0.19705  1.0000
  Fe  Fe26      1.0  0.11543  0.49300  0.82181  1.0000
  S   S50       1.0  0.07871  0.50765  0.80261  1.0000
  S   S51       1.0  0.13661  0.46042  0.79885  1.0000
  Fe  Fe27      1.0  0.11194  0.52523  0.88159  1.0000
  S   S52       1.0  0.07507  0.54155  0.86566  1.0000
  S   S53       1.0  0.12400  0.54103  0.92897  1.0000
  Fe  Fe28      1.0  0.06511  0.50248  0.85307  1.0000
  S   S54       1.0  0.02791  0.48669  0.87037  1.0000
  Fe  Fe29      1.0  0.09191  0.54600  0.81646  1.0000
  S   S55       1.0  0.07725  0.58124  0.78921  1.0000
  S   S56       1.0  0.10074  0.48560  0.87190  1.0000
  S   S57       1.0  0.13006  0.53199  0.83277  1.0000
  H   H209      1.0  0.09431  0.64227  0.60276  1.0000
  C   C177      1.0  0.10784  0.42001  0.86651  1.0000
  S   S58       1.0  0.09238  0.38932  0.69330  1.0000
  C   C178      1.0  0.12448  0.44097  0.76899  1.0000
  C   C179      1.0  0.10299  0.44781  0.75172  1.0000
  C   C180      1.0  0.09352  0.43168  0.72887  1.0000
  C   C181      1.0  0.10536  0.40852  0.72278  1.0000
  C   C182      1.0  0.12680  0.40159  0.74008  1.0000
  C   C183      1.0  0.13635  0.41780  0.76293  1.0000
  H   H210      1.0  0.09385  0.46570  0.75567  1.0000
  H   H211      1.0  0.07708  0.43738  0.71545  1.0000
  H   H212      1.0  0.13620  0.38390  0.73560  1.0000
  H   H213      1.0  0.15305  0.41233  0.77598  1.0000
  C   C184      1.0  0.11945  0.63581  0.71907  1.0000
  C   C185      1.0  0.13184  0.61437  0.73207  1.0000
  C   C186      1.0  0.11931  0.59748  0.75360  1.0000
  C   C187      1.0  0.09419  0.60189  0.76239  1.0000
  C   C188      1.0  0.08179  0.62329  0.74929  1.0000
  C   C189      1.0  0.09428  0.64011  0.72768  1.0000
  H   H214      1.0  0.15133  0.61089  0.72569  1.0000
  H   H215      1.0  0.12913  0.58114  0.76353  1.0000
  H   H216      1.0  0.06248  0.62707  0.75614  1.0000
  H   H217      1.0  0.04122  0.37989  0.67431  1.0000
  N   N12       1.0  0.00642  0.57838  0.84244  1.0000
  H   H218      1.0  0.01383  0.54888  0.74349  1.0000
  H   H219      1.0  0.03036  0.48898  0.80158  1.0000
  H   H220      1.0  0.02635  0.52170  0.92191  1.0000
  C   C190      1.0  0.12181  0.52759  0.96838  1.0000
  C   C191      1.0  0.11932  0.50158  0.97458  1.0000
  H   H221      1.0  0.12528  0.56367  0.98983  1.0000
  H   H222      1.0  0.11837  0.48904  0.95496  1.0000
  C   C192      1.0  0.08356  0.43153  0.92341  1.0000
  H   H223      1.0  0.17753  0.62132  0.58440  1.0000
  C   C193      1.0  0.00461  0.48973  0.84150  1.0000
  C   C194      1.0  0.11109  0.63846  0.61775  1.0000
  C   C195      1.0  0.06933  0.42733  0.89638  1.0000
  C   C196      1.0  0.14690  0.61273  0.63039  1.0000
  H   H224      1.0  0.01871  0.40445  0.66748  1.0000
  N   N13       1.0  0.12706  0.61760  0.60630  1.0000
  C   C197      1.0  0.11146  0.59454  0.60508  1.0000
  S   S59       1.0  0.13599  0.65659  0.69204  1.0000
  H   H225      1.0  0.13863  0.60813  0.65443  1.0000
  C   C198      1.0  0.13710  0.62441  0.57411  1.0000
  H   H226      1.0  0.02461  0.60151  0.80554  1.0000
  H   H227      1.0  0.04440  0.58780  0.85503  1.0000
  H   H228      1.0  0.12260  0.57858  0.59556  1.0000
  C   C199      1.0  0.02155  0.35822  0.52613  1.0000
  H   H229      1.0  0.15875  0.62977  0.63343  1.0000
  C   C200      1.0  0.08105  0.42081  0.86718  1.0000
  C   C201      1.0  0.02555  0.58415  0.86638  1.0000
  H   H230      1.0  0.10390  0.63450  0.64244  1.0000
  H   H231      1.0  0.09583  0.40322  0.80683  1.0000
  H   H232      1.0  0.15916  0.59650  0.62427  1.0000
  H   H233      1.0  0.03943  0.58736  0.73446  1.0000
  H   H234      1.0  0.02957  0.40621  0.82244  1.0000
  H   H235      1.0  0.00287  0.61809  0.82953  1.0000
  H   H236      1.0  0.03823  0.39419  0.86134  1.0000
  C   C202      1.0  0.12931  0.63695  0.51827  1.0000
  C   C203      1.0  0.05375  0.51916  0.99438  1.0000
  C   C204      1.0  0.10975  0.42983  0.92212  1.0000
  C   C205      1.0  0.07757  0.39751  0.81812  1.0000
  H   H237      1.0  0.10416  0.58850  0.62912  1.0000
  H   H238      1.0  0.03129  0.55880  0.81020  1.0000
  C   C206      1.0  0.05142  0.52212  0.96144  1.0000
  C   C207      1.0  0.00612  0.59963  0.81842  1.0000
  H   H239      1.0  0.08452  0.65657  0.71802  1.0000
  H   H240      1.0  0.06545  0.39308  0.79770  1.0000
  H   H241      1.0  0.10018  0.63059  0.55260  1.0000
  H   H242      1.0  0.07426  0.43689  0.94526  1.0000
  C   C208      1.0  0.17208  0.63208  0.53608  1.0000
  S   S60       1.0  0.12756  0.33676  0.63552  1.0000
  H   H243      1.0  0.01730  0.36002  0.73816  1.0000
  H   H244      1.0  0.02795  0.56834  0.88423  1.0000
  H   H245      1.0  0.02019  0.60116  0.87967  1.0000
  C   C209      1.0  0.01110  0.49142  0.80919  1.0000
  C   C210      1.0  0.01900  0.58872  0.73502  1.0000
  C   C211      1.0  0.01307  0.35166  0.71501  1.0000
  C   C212      1.0  0.01440  0.55541  0.82571  1.0000
  C   C213      1.0  0.06689  0.44166  0.81906  1.0000
  H   H246      1.0  0.12074  0.43373  0.94290  1.0000
  H   H247      1.0  0.11838  0.41729  0.84474  1.0000
  C   C214      1.0  0.02441  0.38924  0.68486  1.0000
  H   H248      1.0  0.05750  0.44015  0.79574  1.0000
  S   S61       1.0  0.06792  0.33606  0.65036  1.0000
  H   H249      1.0  0.14229  0.42398  0.89230  1.0000
  Fe  Fe30      1.0  0.10206  0.35000  0.67519  1.0000
  H   H250      1.0  0.09472  0.59745  0.58976  1.0000
  C   C215      1.0  0.12186  0.42419  0.89369  1.0000
  H   H251      1.0  0.12205  0.65627  0.61800  1.0000
  H   H252      1.0  0.08648  0.44814  0.81444  1.0000
  C   C216      1.0  0.12322  0.54356  0.99431  1.0000
  C   C217      1.0  0.02795  0.51983  0.94750  1.0000
  H   H253      1.0  0.05744  0.45690  0.83211  1.0000
  N   N14       1.0  0.06645  0.41757  0.83785  1.0000
  C   C218      1.0  0.16335  0.62538  0.56678  1.0000
  H   H254      1.0  0.01506  0.35031  0.65071  1.0000
  H   H255      1.0  0.02876  0.42681  0.85439  1.0000
  C   C219      1.0  0.00670  0.51482  0.96649  1.0000
  H   H256      1.0  0.01998  0.53974  0.84237  1.0000
  H   H257      1.0  0.08066  0.37976  0.83252  1.0000
  C   C220      1.0  0.03966  0.41082  0.84449  1.0000
  N   N15       1.0  0.00363  0.37105  0.69176  1.0000
  H   H258      1.0  0.04925  0.43016  0.89863  1.0000
  H   H259      1.0  0.06802  0.52593  0.94663  1.0000
  H   H260      1.0  0.03132  0.39784  0.70683  1.0000
  C   C221      1.0  0.12037  0.63038  0.54883  1.0000
  C   C222      1.0  0.00885  0.51185  0.99955  1.0000
  C   C223      1.0  0.01355  0.34934  0.55610  1.0000
  H   H261      1.0  0.02747  0.34410  0.57387  1.0000
  H   H262      1.0  0.03072  0.34250  0.70637  1.0000
  C   C224      1.0  0.00455  0.56706  0.74017  1.0000
  H   H263      1.0  0.07238  0.52073  0.00399  1.0000
  C   C225      1.0  0.00717  0.61208  0.73059  1.0000
  H   H264      1.0  0.01852  0.62890  0.72636  1.0000
  H   H265      1.0  0.04157  0.36009  0.52092  1.0000
  H   H266      1.0  0.19214  0.63300  0.53104  1.0000
  C   C226      1.0  0.11892  0.49173  0.00624  1.0000
  C   C227      1.0  0.15510  0.63790  0.51191  1.0000
  Fe  Fe31      1.0  0.47599  0.93571  0.14156  1.0000
  S   S62       1.0  0.45095  0.90336  0.13144  1.0000
  C   C228      1.0  0.33008  0.97608  0.28258  1.0000
  Fe  Fe32      1.0  0.46590  0.88648  0.17696  1.0000
  S   S63       1.0  0.44149  0.86688  0.21539  1.0000
  Fe  Fe33      1.0  0.48533  0.88772  0.10722  1.0000
  Fe  Fe34      1.0  0.30745  0.89324  0.30371  1.0000
  S   S64       1.0  0.27009  0.91396  0.30146  1.0000
  S   S65       1.0  0.33095  0.90119  0.25831  1.0000
  Fe  Fe35      1.0  0.29717  0.87517  0.37252  1.0000
  S   S66       1.0  0.25990  0.89470  0.37439  1.0000
  S   S67       1.0  0.30843  0.85406  0.41805  1.0000
  Fe  Fe36      1.0  0.25336  0.87936  0.32635  1.0000
  S   S68       1.0  0.21232  0.86756  0.32022  1.0000
  Fe  Fe37      1.0  0.27961  0.92727  0.34962  1.0000
  S   S69       1.0  0.27460  0.96530  0.37162  1.0000
  S   S70       1.0  0.28985  0.85747  0.32539  1.0000
  S   S71       1.0  0.31768  0.90879  0.35087  1.0000
  Fe  Fe38      1.0  0.12729  0.70302  0.38244  1.0000
  S   S72       1.0  0.11808  0.74355  0.37084  1.0000
  C   C229      1.0  0.36038  0.86398  0.14527  1.0000
  Fe  Fe39      1.0  0.10924  0.68541  0.31755  1.0000
  S   S73       1.0  0.09915  0.72513  0.30155  1.0000
  Fe  Fe40      1.0  0.13589  0.73663  0.32325  1.0000
  S   S74       1.0  0.16871  0.75741  0.29850  1.0000
  Fe  Fe41      1.0  0.08231  0.72813  0.35053  1.0000
  S   S75       1.0  0.04346  0.74194  0.36501  1.0000
  S   S76       1.0  0.14701  0.69649  0.33587  1.0000
  S   S77       1.0  0.09049  0.68796  0.36564  1.0000
  C   C230      1.0  0.13036  0.69698  0.46355  1.0000
  C   C231      1.0  0.10421  0.69417  0.46329  1.0000
  C   C232      1.0  0.38152  0.85553  0.12841  1.0000
  C   C233      1.0  0.26494  0.99653  0.31870  1.0000
  H   H267      1.0  0.02775  0.67933  0.35072  1.0000
  H   H268      1.0  0.13366  0.73109  0.24049  1.0000
  H   H269      1.0  0.46086  0.82587  0.13020  1.0000
  C   C234      1.0  0.42705  0.98514  0.24545  1.0000
  H   H270      1.0  0.03508  0.73516  0.29754  1.0000
  C   C235      1.0  0.19564  0.97745  0.32769  1.0000
  C   C236      1.0  0.20111  0.83620  0.31662  1.0000
  C   C237      1.0  0.21674  0.81667  0.30653  1.0000
  C   C238      1.0  0.20661  0.79258  0.30157  1.0000
  C   C239      1.0  0.18094  0.78749  0.30754  1.0000
  C   C240      1.0  0.16552  0.80673  0.31894  1.0000
  C   C241      1.0  0.17550  0.83102  0.32300  1.0000
  H   H271      1.0  0.23646  0.82034  0.30148  1.0000
  H   H272      1.0  0.21873  0.77789  0.29269  1.0000
  H   H273      1.0  0.14570  0.80321  0.32338  1.0000
  H   H274      1.0  0.16320  0.84598  0.33074  1.0000
  C   C242      1.0  0.30277  0.87081  0.45304  1.0000
  H   H275      1.0  0.32671  0.95691  0.27547  1.0000
  H   H276      1.0  0.24710  0.83349  0.50622  1.0000
  H   H277      1.0  0.28977  0.90461  0.42841  1.0000
  C   C243      1.0  0.30765  0.85946  0.48307  1.0000
  C   C244      1.0  0.32805  0.98188  0.31449  1.0000
  C   C245      1.0  0.28734  0.90808  0.47911  1.0000
  H   H278      1.0  0.26505  0.97978  0.30484  1.0000
  H   H279      1.0  0.25545  0.84136  0.40355  1.0000
  H   H280      1.0  0.20389  0.75050  0.36347  1.0000
  H   H281      1.0  0.47084  0.95611  0.24717  1.0000
  C   C246      1.0  0.44336  0.83085  0.14355  1.0000
  H   H282      1.0  0.44496  0.85085  0.15007  1.0000
  C   C247      1.0  0.41097  0.87705  0.22739  1.0000
  C   C248      1.0  0.39673  0.89392  0.20856  1.0000
  C   C249      1.0  0.37249  0.90137  0.21874  1.0000
  C   C250      1.0  0.36203  0.89184  0.24763  1.0000
  C   C251      1.0  0.37626  0.87501  0.26650  1.0000
  C   C252      1.0  0.40057  0.86760  0.25634  1.0000
  H   H283      1.0  0.40414  0.90079  0.18580  1.0000
  H   H284      1.0  0.36153  0.91416  0.20377  1.0000
  H   H285      1.0  0.36844  0.86746  0.28874  1.0000
  H   H286      1.0  0.41134  0.85441  0.27101  1.0000
  H   H287      1.0  0.21999  0.85311  0.49880  1.0000
  C   C253      1.0  0.46880  0.99497  0.15946  1.0000
  H   H288      1.0  0.16541  0.70756  0.26910  1.0000
  N   N16       1.0  0.19647  0.75841  0.41263  1.0000
  H   H289      1.0  0.44176  0.83207  0.08069  1.0000
  H   H290      1.0  0.22568  0.73002  0.41162  1.0000
  C   C254      1.0  0.35508  0.85431  0.17585  1.0000
  C   C255      1.0  0.21297  0.78092  0.41053  1.0000
  C   C256      1.0  0.23821  0.78071  0.42165  1.0000
  C   C257      1.0  0.20383  0.80411  0.39711  1.0000
  C   C258      1.0  0.25320  0.80238  0.41915  1.0000
  C   C259      1.0  0.21897  0.82565  0.39490  1.0000
  C   C260      1.0  0.24361  0.82475  0.40577  1.0000
  H   H291      1.0  0.41180  0.95158  0.20077  1.0000
  H   H292      1.0  0.17492  0.76702  0.37021  1.0000
  H   H293      1.0  0.16694  0.71995  0.18162  1.0000
  H   H294      1.0  0.49019  0.92058  0.03825  1.0000
  H   H295      1.0  0.17504  0.73259  0.21929  1.0000
  H   H296      1.0  0.43342  0.79183  0.10650  1.0000
  H   H297      1.0  0.21506  0.73820  0.45120  1.0000
  H   H298      1.0  0.17694  0.73437  0.38074  1.0000
  H   H299      1.0  0.33902  0.86133  0.18917  1.0000
  H   H300      1.0  0.24698  0.76402  0.43206  1.0000
  C   C261      1.0  0.20908  0.73550  0.42634  1.0000
  H   H301      1.0  0.43480  0.92830  0.21142  1.0000
  H   H302      1.0  0.07021  0.69072  0.49168  1.0000
  S   S78       1.0  0.48051  0.86827  0.06007  1.0000
  H   H303      1.0  0.40761  0.95187  0.28821  1.0000
  C   C262      1.0  0.09037  0.69366  0.49198  1.0000
  H   H304      1.0  0.12238  0.72100  0.20314  1.0000
  C   C263      1.0  0.01618  0.73567  0.34304  1.0000
  N   N17       1.0  0.19611  0.94961  0.32570  1.0000
  C   C264      1.0  0.20845  0.93652  0.35320  1.0000
  C   C265      1.0  0.17001  0.93991  0.32420  1.0000
  C   C266      1.0  0.21007  0.94247  0.29657  1.0000
  C   C267      1.0  0.48772  0.90942  0.01756  1.0000
  H   H305      1.0  0.31558  0.84063  0.48461  1.0000
  H   H306      1.0  0.21173  0.84306  0.38411  1.0000
  H   H307      1.0  0.27938  0.92691  0.47730  1.0000
  H   H308      1.0  0.41137  0.92413  0.26532  1.0000
  C   C268      1.0  0.16176  0.69083  0.25459  1.0000
  H   H309      1.0  0.19846  0.94015  0.37598  1.0000
  H   H310      1.0  0.20872  0.91566  0.35090  1.0000
  H   H311      1.0  0.22845  0.94244  0.35513  1.0000
  H   H312      1.0  0.15876  0.94529  0.34543  1.0000
  H   H313      1.0  0.16979  0.91890  0.32323  1.0000
  H   H314      1.0  0.16000  0.94732  0.30278  1.0000
  H   H315      1.0  0.22916  0.95110  0.29571  1.0000
  H   H316      1.0  0.21248  0.92160  0.29547  1.0000
  H   H317      1.0  0.20033  0.94858  0.27441  1.0000
  H   H318      1.0  0.34819  0.87838  0.13478  1.0000
  C   C269      1.0  0.49025  0.98976  0.17751  1.0000
  H   H319      1.0  0.21365  0.98040  0.37425  1.0000
  C   C270      1.0  0.20514  0.99021  0.35413  1.0000
  S   S79       1.0  0.45830  0.97351  0.13236  1.0000
  C   C271      1.0  0.01723  0.73326  0.31009  1.0000
  H   H320      1.0  0.39053  0.94854  0.25210  1.0000
  H   H321      1.0  0.36725  0.82948  0.21406  1.0000
  H   H322      1.0  0.18499  0.80569  0.38778  1.0000
  H   H323      1.0  0.17957  0.67979  0.25406  1.0000
  C   C272      1.0  0.29295  0.89532  0.45127  1.0000
  H   H324      1.0  0.38462  0.86405  0.10500  1.0000
  H   H325      1.0  0.11482  0.70332  0.23970  1.0000
  H   H326      1.0  0.16150  0.74694  0.43563  1.0000
  C   C273      1.0  0.43025  0.94875  0.21253  1.0000
  H   H327      1.0  0.16225  0.77924  0.42273  1.0000
  H   H328      1.0  0.42802  0.86027  0.09465  1.0000
  C   C274      1.0  0.40903  0.94504  0.26357  1.0000
  C   C275      1.0  0.12987  0.71408  0.22645  1.0000
  C   C276      1.0  0.39804  0.83695  0.14191  1.0000
  C   C277      1.0  0.17409  0.76368  0.43291  1.0000
  C   C278      1.0  0.39212  0.82766  0.17320  1.0000
  H   H329      1.0  0.45508  0.95334  0.28572  1.0000
  H   H330      1.0  0.09469  0.69165  0.44109  1.0000
  C   C279      1.0  0.17234  0.71475  0.20649  1.0000
  S   S80       1.0  0.14830  0.69506  0.42814  1.0000
  H   H331      1.0  0.44346  0.81940  0.16619  1.0000
  C   C280      1.0  0.18776  0.75235  0.38045  1.0000
  N   N18       1.0  0.15291  0.69845  0.22240  1.0000
  N   N19       1.0  0.42036  0.82715  0.12468  1.0000
  H   H332      1.0  0.41585  0.78874  0.14293  1.0000
  H   H333      1.0  0.40405  0.81396  0.18534  1.0000
  H   H334      1.0  0.19113  0.70547  0.20565  1.0000
  N   N20       1.0  0.43021  0.95735  0.24565  1.0000
  H   H335      1.0  0.19622  0.71892  0.42737  1.0000
  H   H336      1.0  0.40868  0.83673  0.07664  1.0000
  H   H337      1.0  0.04623  0.68310  0.29919  1.0000
  C   C281      1.0  0.41719  0.79978  0.11999  1.0000
  S   S81       1.0  0.49864  0.86743  0.15232  1.0000
  C   C282      1.0  0.37098  0.83628  0.18983  1.0000
  C   C283      1.0  0.42468  0.83964  0.09286  1.0000
  H   H338      1.0  0.39973  0.79614  0.10653  1.0000
  C   C284      1.0  0.14249  0.70028  0.49255  1.0000
  H   H339      1.0  0.33701  0.99049  0.23500  1.0000
  H   H340      1.0  0.17975  0.76893  0.45713  1.0000
  H   H341      1.0  0.27257  0.80194  0.42721  1.0000
  C   C285      1.0  0.48287  0.88356  0.02156  1.0000
  H   H342      1.0  0.44462  0.95906  0.19773  1.0000
  H   H343      1.0  0.45588  0.92732  0.25994  1.0000
  H   H344      1.0  0.16275  0.70235  0.49292  1.0000
  H   H345      1.0  0.32290  0.96723  0.33208  1.0000
  S   S82       1.0  0.48866  0.92030  0.18915  1.0000
  C   C286      1.0  0.45407  0.94830  0.26035  1.0000
  C   C287      1.0  0.03161  0.67082  0.28900  1.0000
  H   H346      1.0  0.46248  0.99471  0.26874  1.0000
  H   H347      1.0  0.14739  0.67900  0.26752  1.0000
  H   H348      1.0  0.17804  0.98443  0.28157  1.0000
  C   C288      1.0  0.14880  0.67565  0.20382  1.0000
  C   C289      1.0  0.26976  0.99457  0.35129  1.0000
  H   H349      1.0  0.10790  0.67962  0.19706  1.0000
  C   C290      1.0  0.18569  0.99274  0.30237  1.0000
  H   H350      1.0  0.39104  0.98543  0.22106  1.0000
  C   C291      1.0  0.33593  0.99502  0.25987  1.0000
  H   H351      1.0  0.50047  0.97228  0.17490  1.0000
  C   C292      1.0  0.40545  0.99668  0.23152  1.0000
  H   H352      1.0  0.01696  0.68331  0.27810  1.0000
  C   C293      1.0  0.01193  0.66851  0.34062  1.0000
  C   C294      1.0  0.12473  0.66880  0.19244  1.0000
  Fe  Fe42      1.0  0.48568  0.91015  0.86953  1.0000
  H   H353      1.0  0.39628  0.99585  0.70175  1.0000
  Fe  Fe43      1.0  0.45270  0.89273  0.81426  1.0000
  S   S83       1.0  0.48107  0.90438  0.77678  1.0000
  S   S84       1.0  0.41332  0.87873  0.80282  1.0000
  C   C295      1.0  0.00816  0.73564  0.63154  1.0000
  Fe  Fe44      1.0  0.48555  0.93892  0.80482  1.0000
  S   S85       1.0  0.48145  0.87282  0.84587  1.0000
  S   S86       1.0  0.45510  0.92889  0.84022  1.0000
  Fe  Fe45      1.0  0.28762  0.90155  0.59472  1.0000
  S   S87       1.0  0.25220  0.90131  0.62474  1.0000
  S   S88       1.0  0.28234  0.91320  0.54299  1.0000
  Fe  Fe46      1.0  0.32148  0.89249  0.65287  1.0000
  S   S89       1.0  0.28846  0.89139  0.68663  1.0000
  S   S90       1.0  0.36284  0.89070  0.66648  1.0000
  Fe  Fe47      1.0  0.26939  0.86764  0.65039  1.0000
  S   S91       1.0  0.25212  0.82896  0.66322  1.0000
  Fe  Fe48      1.0  0.27447  0.92512  0.65754  1.0000
  S   S92       1.0  0.25922  0.96029  0.68052  1.0000
  S   S93       1.0  0.30378  0.86656  0.61821  1.0000
  S   S94       1.0  0.30857  0.92741  0.62593  1.0000
  Fe  Fe49      1.0  0.12349  0.74640  0.64377  1.0000
  S   S95       1.0  0.13588  0.70927  0.62388  1.0000
  S   S96       1.0  0.14210  0.78538  0.63684  1.0000
  Fe  Fe50      1.0  0.07135  0.72530  0.66409  1.0000
  C   C296      1.0  0.25348  0.84592  0.56672  1.0000
  S   S97       1.0  0.03347  0.73143  0.68840  1.0000
  Fe  Fe51      1.0  0.11764  0.69118  0.66809  1.0000
  Fe  Fe52      1.0  0.09708  0.70749  0.60354  1.0000
  S   S98       1.0  0.08444  0.69326  0.55644  1.0000
  S   S99       1.0  0.10823  0.72844  0.68966  1.0000
  S   S100      1.0  0.08561  0.74563  0.61987  1.0000
  C   C297      1.0  0.28939  0.99443  0.64634  1.0000
  H   H354      1.0  0.02648  0.73535  0.61997  1.0000
  C   C298      1.0  0.23670  0.85047  0.51417  1.0000
  H   H355      1.0  0.32260  0.95561  0.73830  1.0000
  H   H356      1.0  0.12776  0.79793  0.70257  1.0000
  H   H357      1.0  0.06311  0.84054  0.65751  1.0000
  C   C299      1.0  0.39535  0.98176  0.72094  1.0000
  H   H358      1.0  0.36681  0.94720  0.66950  1.0000
  C   C300      1.0  0.22123  0.81737  0.65623  1.0000
  C   C301      1.0  0.21570  0.79191  0.66405  1.0000
  C   C302      1.0  0.19159  0.78182  0.65866  1.0000
  C   C303      1.0  0.17267  0.79710  0.64523  1.0000
  C   C304      1.0  0.17819  0.82259  0.63753  1.0000
  C   C305      1.0  0.20226  0.83270  0.64304  1.0000
  H   H359      1.0  0.23015  0.77985  0.67437  1.0000
  H   H360      1.0  0.18770  0.76220  0.66475  1.0000
  H   H361      1.0  0.16372  0.83460  0.62715  1.0000
  H   H362      1.0  0.20604  0.85237  0.63736  1.0000
  H   H363      1.0  0.20812  0.76820  0.59302  1.0000
  H   H364      1.0  0.26541  0.86299  0.56289  1.0000
  H   H365      1.0  0.07341  0.76337  0.76634  1.0000
  C   C306      1.0  0.12853  0.70038  0.52126  1.0000
  H   H366      1.0  0.29719  0.97848  0.63447  1.0000
  C   C307      1.0  0.20292  0.78422  0.57766  1.0000
  H   H367      1.0  0.49508  0.97694  0.89176  1.0000
  H   H368      1.0  0.04440  0.77442  0.64761  1.0000
  C   C308      1.0  0.41653  0.97884  0.74020  1.0000
  H   H369      1.0  0.45002  0.96353  0.89989  1.0000
  C   C309      1.0  0.39928  0.88409  0.76512  1.0000
  C   C310      1.0  0.41381  0.88945  0.73775  1.0000
  C   C311      1.0  0.40225  0.89186  0.70786  1.0000
  C   C312      1.0  0.37603  0.88942  0.70501  1.0000
  C   C313      1.0  0.36134  0.88501  0.73249  1.0000
  C   C314      1.0  0.37296  0.88207  0.76235  1.0000
  H   H370      1.0  0.43402  0.89111  0.73952  1.0000
  H   H371      1.0  0.41376  0.89539  0.68677  1.0000
  H   H372      1.0  0.34116  0.88323  0.73067  1.0000
  H   H373      1.0  0.36158  0.87790  0.78340  1.0000
  H   H374      1.0  0.33608  0.93283  0.71163  1.0000
  H   H375      1.0  0.42974  0.98137  0.92551  1.0000
  C   C315      1.0  0.06318  0.79787  0.69691  1.0000
  H   H376      1.0  0.09444  0.81258  0.66732  1.0000
  C   C316      1.0  0.21280  0.82612  0.55388  1.0000
  H   H377      1.0  0.30644  0.86368  0.53405  1.0000
  H   H378      1.0  0.37259  0.98035  0.66282  1.0000
  H   H379      1.0  0.35818  0.93705  0.75889  1.0000
  C   C317      1.0  0.30245  0.87247  0.51108  1.0000
  C   C318      1.0  0.01714  0.80222  0.68796  1.0000
  C   C319      1.0  0.21962  0.80436  0.57270  1.0000
  C   C320      1.0  0.05814  0.78340  0.72542  1.0000
  H   H380      1.0  0.04511  0.84474  0.69337  1.0000
  C   C321      1.0  0.27029  0.99090  0.66924  1.0000
  H   H381      1.0  0.34208  0.96813  0.65609  1.0000
  H   H382      1.0  0.11773  0.77346  0.75224  1.0000
  H   H383      1.0  0.06394  0.79956  0.63237  1.0000
  H   H384      1.0  0.03042  0.80132  0.62776  1.0000
  C   C322      1.0  0.10824  0.79432  0.70928  1.0000
  H   H385      1.0  0.03934  0.77768  0.73258  1.0000
  H   H386      1.0  0.23745  0.80264  0.58468  1.0000
  C   C323      1.0  0.10263  0.78050  0.73722  1.0000
  H   H387      1.0  0.26526  0.82968  0.55938  1.0000
  H   H388      1.0  0.02972  0.84308  0.65563  1.0000
  H   H389      1.0  0.13800  0.70237  0.54361  1.0000
  C   C324      1.0  0.04559  0.79529  0.64442  1.0000
  C   C325      1.0  0.17191  0.80595  0.54544  1.0000
  H   H390      1.0  0.45532  0.96261  0.94120  1.0000
  C   C326      1.0  0.47968  0.86938  0.99426  1.0000
  H   H391      1.0  0.01390  0.81080  0.71139  1.0000
  H   H392      1.0  0.24015  0.99190  0.60404  1.0000
  C   C327      1.0  0.04537  0.83512  0.67029  1.0000
  N   N21       1.0  0.32047  0.81677  0.71752  1.0000
  C   C328      1.0  0.30115  0.83268  0.73307  1.0000
  C   C329      1.0  0.32389  0.82684  0.68435  1.0000
  C   C330      1.0  0.31060  0.79073  0.71602  1.0000
  C   C331      1.0  0.34402  0.81655  0.73607  1.0000
  C   C332      1.0  0.36776  0.82392  0.72266  1.0000
  C   C333      1.0  0.34359  0.80895  0.76879  1.0000
  C   C334      1.0  0.38938  0.82434  0.74124  1.0000
  C   C335      1.0  0.36531  0.80968  0.78719  1.0000
  C   C336      1.0  0.38811  0.81758  0.77349  1.0000
  H   H393      1.0  0.30844  0.85200  0.73659  1.0000
  H   H394      1.0  0.28374  0.83461  0.71864  1.0000
  H   H395      1.0  0.29495  0.82474  0.75666  1.0000
  H   H396      1.0  0.33085  0.84665  0.68375  1.0000
  H   H397      1.0  0.30585  0.82700  0.67116  1.0000
  H   H398      1.0  0.33726  0.81513  0.67055  1.0000
  H   H399      1.0  0.30574  0.78242  0.73994  1.0000
  H   H400      1.0  0.29303  0.79024  0.70174  1.0000
  H   H401      1.0  0.32470  0.77804  0.70492  1.0000
  H   H402      1.0  0.37009  0.83035  0.69814  1.0000
  H   H403      1.0  0.32636  0.80276  0.78054  1.0000
  H   H404      1.0  0.40708  0.83100  0.73089  1.0000
  H   H405      1.0  0.36445  0.80453  0.81235  1.0000
  H   H406      1.0  0.40475  0.81900  0.78802  1.0000
  H   H407      1.0  0.49816  0.86003  0.64735  1.0000
  H   H408      1.0  0.47898  0.86961  0.94271  1.0000
  C   C337      1.0  0.29191  0.89675  0.50910  1.0000
  H   H409      1.0  0.26130  0.95892  0.57327  1.0000
  H   H410      1.0  0.24955  0.84403  0.59278  1.0000
  C   C338      1.0  0.34143  0.99658  0.70841  1.0000
  S   S101      1.0  0.48579  0.97617  0.77792  1.0000
  H   H411      1.0  0.48582  0.89164  0.64918  1.0000
  C   C339      1.0  0.37340  0.96687  0.72642  1.0000
  N   N22       1.0  0.35119  0.97046  0.70573  1.0000
  N   N23       1.0  0.04304  0.80737  0.67548  1.0000
  H   H412      1.0  0.16579  0.76992  0.56955  1.0000
  C   C340      1.0  0.49687  0.99967  0.80205  1.0000
  H   H413      1.0  0.39514  0.93299  0.79183  1.0000
  H   H414      1.0  0.01346  0.78160  0.69060  1.0000
  H   H415      1.0  0.49890  0.97667  0.93363  1.0000
  C   C341      1.0  0.49273  0.98875  0.91300  1.0000
  C   C342      1.0  0.08891  0.80272  0.68924  1.0000
  H   H416      1.0  0.22980  0.88819  0.55567  1.0000
  N   N24       1.0  0.22978  0.84801  0.54841  1.0000
  H   H417      1.0  0.15317  0.80663  0.53550  1.0000
  C   C343      1.0  0.21693  0.87159  0.55782  1.0000
  C   C344      1.0  0.33013  0.95287  0.71387  1.0000
  H   H418      1.0  0.18215  0.84179  0.52508  1.0000
  C   C345      1.0  0.48139  0.88082  0.96339  1.0000
  C   C346      1.0  0.07766  0.77491  0.74515  1.0000
  S   S102      1.0  0.48873  0.92247  0.92125  1.0000
  C   C347      1.0  0.35855  0.96641  0.67215  1.0000
  H   H419      1.0  0.21014  0.86996  0.58296  1.0000
  C   C348      1.0  0.17904  0.78513  0.56440  1.0000
  H   H420      1.0  0.33702  0.00076  0.73362  1.0000
  H   H421      1.0  0.46087  0.99854  0.86586  1.0000
  C   C349      1.0  0.48947  0.92084  0.98675  1.0000
  C   C350      1.0  0.48635  0.90667  0.95943  1.0000
  C   C351      1.0  0.44959  0.97549  0.92112  1.0000
  H   H422      1.0  0.00243  0.80982  0.67155  1.0000
  C   C352      1.0  0.39506  0.94668  0.77199  1.0000
  C   C353      1.0  0.37385  0.94925  0.75274  1.0000
  H   H423      1.0  0.24902  0.86712  0.50903  1.0000
  C   C354      1.0  0.18856  0.82608  0.53996  1.0000
  H   H424      1.0  0.43322  0.99024  0.73558  1.0000
  C   C355      1.0  0.10244  0.69662  0.52104  1.0000
  H   H425      1.0  0.31386  0.95591  0.69765  1.0000
  N   N25       1.0  0.46640  0.99770  0.91675  1.0000
  H   H426      1.0  0.20053  0.87650  0.54272  1.0000
  S   S103      1.0  0.07982  0.68711  0.64612  1.0000
  C   C356      1.0  0.26480  0.97869  0.56734  1.0000
  C   C357      1.0  0.00623  0.73308  0.66465  1.0000
  H   H427      1.0  0.43287  0.95896  0.78037  1.0000
  H   H428      1.0  0.48551  0.88376  0.70695  1.0000
  C   C358      1.0  0.41639  0.96128  0.76560  1.0000
  H   H429      1.0  0.47598  0.84937  0.99695  1.0000
  H   H430      1.0  0.49831  0.92257  0.71466  1.0000
  H   H431      1.0  0.47372  0.98344  0.97940  1.0000
  H   H432      1.0  0.32380  0.99970  0.69478  1.0000
  C   C359      1.0  0.28166  0.98546  0.54289  1.0000
  H   H433      1.0  0.49340  0.94076  0.98407  1.0000
  H   H434      1.0  0.29104  0.97075  0.52979  1.0000
  C   C360      1.0  0.25276  0.99732  0.58445  1.0000
  C   C361      1.0  0.72313  0.18940  0.47253  1.0000
  S   S104      1.0  0.54489  0.16863  0.21534  1.0000
  S   S105      1.0  0.52200  0.11073  0.16705  1.0000
  Fe  Fe53      1.0  0.70205  0.09948  0.36997  1.0000
  S   S106      1.0  0.66155  0.10983  0.37673  1.0000
  S   S107      1.0  0.71600  0.06111  0.38807  1.0000
  Fe  Fe54      1.0  0.71571  0.15214  0.34254  1.0000
  S   S108      1.0  0.67559  0.16639  0.34618  1.0000
  S   S109      1.0  0.75093  0.17170  0.32157  1.0000
  Fe  Fe55      1.0  0.67565  0.14627  0.39442  1.0000
  S   S110      1.0  0.65672  0.16233  0.43768  1.0000
  Fe  Fe56      1.0  0.66398  0.12865  0.32806  1.0000
  S   S111      1.0  0.63193  0.11518  0.29733  1.0000
  S   S112      1.0  0.71626  0.13470  0.39204  1.0000
  S   S113      1.0  0.70409  0.11578  0.32020  1.0000
  Fe  Fe57      1.0  0.84250  0.29429  0.35353  1.0000
  H   H435      1.0  0.79281  0.33017  0.28576  1.0000
  S   S114      1.0  0.80489  0.27343  0.36183  1.0000
  Fe  Fe58      1.0  0.89759  0.30523  0.33353  1.0000
  S   S115      1.0  0.93411  0.29165  0.31085  1.0000
  N   N26       1.0  0.96741  0.28727  0.45022  1.0000
  H   H436      1.0  0.56483  0.19353  0.34538  1.0000
  S   S116      1.0  0.87989  0.28386  0.37522  1.0000
  S   S117      1.0  0.86028  0.31244  0.30897  1.0000
  C   C362      1.0  0.85544  0.10060  0.33322  1.0000
  H   H437      1.0  0.71193  0.01375  0.28977  1.0000
  H   H438      1.0  0.79163  0.06015  0.36050  1.0000
  H   H439      1.0  0.61400  0.01817  0.26316  1.0000
  C   C363      1.0  0.96294  0.30092  0.32778  1.0000
  C   C364      1.0  0.53533  0.00924  0.01743  1.0000
  H   H440      1.0  0.94584  0.32607  0.36062  1.0000
  H   H441      1.0  0.83069  0.06947  0.33797  1.0000
  C   C365      1.0  0.98599  0.29080  0.31720  1.0000
  H   H442      1.0  0.94964  0.26099  0.50574  1.0000
  C   C366      1.0  0.76613  0.19955  0.33401  1.0000
  C   C367      1.0  0.75557  0.21485  0.35711  1.0000
  C   C368      1.0  0.76788  0.23717  0.36544  1.0000
  C   C369      1.0  0.79104  0.24439  0.35114  1.0000
  C   C370      1.0  0.80181  0.22890  0.32838  1.0000
  C   C371      1.0  0.78935  0.20670  0.31979  1.0000
  H   H443      1.0  0.73772  0.20968  0.36820  1.0000
  H   H444      1.0  0.75934  0.24899  0.38304  1.0000
  H   H445      1.0  0.81951  0.23422  0.31703  1.0000
  H   H446      1.0  0.79765  0.19513  0.30176  1.0000
  C   C372      1.0  0.66436  0.14662  0.47403  1.0000
  C   C373      1.0  0.68030  0.12555  0.47454  1.0000
  H   H447      1.0  0.95202  0.31777  0.42106  1.0000
  H   H448      1.0  0.68769  0.11846  0.45252  1.0000
  C   C374      1.0  0.72173  0.18128  0.50447  1.0000
  H   H449      1.0  0.53294  0.04574  0.14473  1.0000
  C   C375      1.0  0.56948  0.15375  0.23745  1.0000
  C   C376      1.0  0.57090  0.12747  0.24133  1.0000
  C   C377      1.0  0.59021  0.11615  0.25961  1.0000
  C   C378      1.0  0.60837  0.13088  0.27425  1.0000
  C   C379      1.0  0.60709  0.15719  0.27028  1.0000
  C   C380      1.0  0.58771  0.16854  0.25196  1.0000
  H   H450      1.0  0.55700  0.11586  0.23040  1.0000
  H   H451      1.0  0.59099  0.09582  0.26248  1.0000
  H   H452      1.0  0.62108  0.16879  0.28100  1.0000
  H   H453      1.0  0.58679  0.18887  0.24903  1.0000
  C   C381      1.0  0.71253  0.03495  0.33256  1.0000
  C   C382      1.0  0.71366  0.03363  0.36576  1.0000
  C   C383      1.0  0.75522  0.21937  0.48503  1.0000
  H   H454      1.0  0.71222  0.05312  0.32002  1.0000
  H   H455      1.0  0.62491  0.06007  0.27973  1.0000
  H   H456      1.0  0.79241  0.05658  0.31770  1.0000
  H   H457      1.0  0.76316  0.05908  0.33891  1.0000
  C   C384      1.0  0.53551  0.06556  0.08697  1.0000
  H   H458      1.0  0.60667  0.18567  0.35444  1.0000
  H   H459      1.0  0.55326  0.02564  0.12195  1.0000
  C   C385      1.0  0.56840  0.15244  0.34790  1.0000
  C   C386      1.0  0.73994  0.20834  0.46278  1.0000
  H   H460      1.0  0.54222  0.04591  0.03330  1.0000
  H   H461      1.0  0.61839  0.15683  0.33896  1.0000
  H   H462      1.0  0.53415  0.07939  0.10625  1.0000
  C   C387      1.0  0.52359  0.02262  0.07100  1.0000
  S   S118      1.0  0.84039  0.33113  0.37877  1.0000
  H   H463      1.0  0.76681  0.12126  0.29919  1.0000
  H   H464      1.0  0.97989  0.32578  0.44174  1.0000
  H   H465      1.0  0.56080  0.15483  0.41072  1.0000
  H   H466      1.0  0.52710  0.07535  0.06577  1.0000
  H   H467      1.0  0.71106  0.18091  0.45526  1.0000
  H   H468      1.0  0.92868  0.28058  0.46466  1.0000
  H   H469      1.0  0.73724  0.32165  0.33939  1.0000
  H   H470      1.0  0.98609  0.27746  0.29837  1.0000
  H   H471      1.0  0.78170  0.09458  0.28156  1.0000
  H   H472      1.0  0.75172  0.09133  0.30159  1.0000
  H   H473      1.0  0.57426  0.18441  0.39715  1.0000
  N   N27       1.0  0.52211  0.04171  0.09581  1.0000
  H   H474      1.0  0.51636  0.00421  0.21110  1.0000
  H   H475      1.0  0.61066  0.12598  0.40139  1.0000
  C   C388      1.0  0.53115  0.15508  0.30007  1.0000
  C   C389      1.0  0.85817  0.12664  0.32881  1.0000
  C   C390      1.0  0.57841  0.16404  0.40159  1.0000
  H   H476      1.0  0.69925  0.09734  0.50367  1.0000
  C   C391      1.0  0.71388  0.00986  0.38168  1.0000
  H   H477      1.0  0.76826  0.23415  0.47730  1.0000
  C   C392      1.0  0.55906  0.13031  0.33405  1.0000
  H   H478      1.0  0.51758  0.15616  0.28101  1.0000
  H   H479      1.0  0.93472  0.27676  0.42359  1.0000
  C   C393      1.0  0.98466  0.27801  0.42509  1.0000
  H   H480      1.0  0.79699  0.14399  0.32389  1.0000
  C   C394      1.0  0.61062  0.16553  0.36069  1.0000
  H   H481      1.0  0.87678  0.13500  0.32796  1.0000
  H   H482      1.0  0.56615  0.11169  0.34018  1.0000
  H   H483      1.0  0.52297  0.01498  0.13599  1.0000
  H   H484      1.0  0.97569  0.27875  0.40128  1.0000
  C   C395      1.0  0.54005  0.17710  0.31289  1.0000
  C   C396      1.0  0.97929  0.28384  0.48175  1.0000
  C   C397      1.0  0.65474  0.15544  0.50285  1.0000
  C   C398      1.0  0.98590  0.32508  0.36580  1.0000
  H   H485      1.0  0.71479  0.00869  0.40735  1.0000
  H   H486      1.0  0.76432  0.30120  0.33496  1.0000
  H   H487      1.0  0.99051  0.25813  0.43033  1.0000
  Fe  Fe59      1.0  0.51361  0.14506  0.19506  1.0000
  H   H488      1.0  0.83896  0.16224  0.32216  1.0000
  C   C399      1.0  0.64300  0.04703  0.32250  1.0000
  H   H489      1.0  0.64789  0.06590  0.32934  1.0000
  C   C400      1.0  0.63007  0.04364  0.29445  1.0000
  H   H490      1.0  0.87207  0.08877  0.33576  1.0000
  C   C401      1.0  0.53436  0.02776  0.04028  1.0000
  H   H491      1.0  0.77520  0.32483  0.43800  1.0000
  H   H492      1.0  0.94560  0.25294  0.45144  1.0000
  H   H493      1.0  0.62577  0.16532  0.37877  1.0000
  C   C402      1.0  0.96316  0.31816  0.35206  1.0000
  C   C403      1.0  0.59616  0.12579  0.38246  1.0000
  C   C404      1.0  0.94313  0.27367  0.44760  1.0000
  H   H494      1.0  0.80544  0.31871  0.32285  1.0000
  H   H495      1.0  0.76444  0.31283  0.38501  1.0000
  C   C405      1.0  0.87499  0.32652  0.47964  1.0000
  C   C406      1.0  0.81287  0.13128  0.32661  1.0000
  C   C407      1.0  0.62397  0.01934  0.28521  1.0000
  H   H496      1.0  0.74110  0.21448  0.43793  1.0000
  H   H497      1.0  0.53419  0.11478  0.29970  1.0000
  C   C408      1.0  0.55831  0.17589  0.33654  1.0000
  C   C409      1.0  0.64994  0.02618  0.34151  1.0000
  H   H498      1.0  0.64235  0.17171  0.50262  1.0000
  H   H499      1.0  0.58013  0.11434  0.39222  1.0000
  H   H500      1.0  0.55590  0.06221  0.08226  1.0000
  H   H501      1.0  0.60494  0.11589  0.36214  1.0000
  N   N28       1.0  0.78358  0.09420  0.33262  1.0000
  C   C410      1.0  0.76928  0.10519  0.35929  1.0000
  C   C411      1.0  0.77045  0.10063  0.30247  1.0000
  C   C412      1.0  0.78290  0.06629  0.33758  1.0000
  C   C413      1.0  0.80934  0.10485  0.33124  1.0000
  C   C414      1.0  0.83143  0.08973  0.33445  1.0000
  C   C415      1.0  0.96230  0.31448  0.44375  1.0000
  C   C416      1.0  0.83691  0.14194  0.32552  1.0000
  H   H502      1.0  0.75005  0.31497  0.30083  1.0000
  C   C417      1.0  0.54058  0.13177  0.31066  1.0000
  H   H503      1.0  0.76689  0.12597  0.35624  1.0000
  H   H504      1.0  0.74999  0.09721  0.36147  1.0000
  H   H505      1.0  0.77878  0.10133  0.38237  1.0000
  N   N29       1.0  0.58799  0.15174  0.37269  1.0000
  H   H506      1.0  0.59252  0.16305  0.42105  1.0000
  Fe  Fe60      1.0  0.87860  0.32162  0.39738  1.0000
  H   H507      1.0  0.95023  0.32235  0.46280  1.0000
  C   C418      1.0  0.68676  0.11353  0.50360  1.0000
  C   C419      1.0  0.75509  0.31886  0.32576  1.0000
  C   C420      1.0  0.53333  0.03155  0.12579  1.0000
  H   H508      1.0  0.53314  0.19520  0.30378  1.0000
  C   C421      1.0  0.71231  0.01261  0.31548  1.0000
  C   C422      1.0  0.77246  0.33135  0.38728  1.0000
  H   H509      1.0  0.66026  0.02891  0.36317  1.0000
  S   S119      1.0  0.89509  0.32248  0.44660  1.0000
  C   C423      1.0  0.64428  0.00180  0.33233  1.0000
  H   H510      1.0  0.56698  0.08625  0.86373  1.0000
  S   S120      1.0  0.53708  0.17112  0.80211  1.0000
  Fe  Fe61      1.0  0.67925  0.12236  0.61691  1.0000
  S   S121      1.0  0.71384  0.12833  0.64581  1.0000
  S   S122      1.0  0.68688  0.10702  0.56819  1.0000
  Fe  Fe62      1.0  0.64331  0.13411  0.67272  1.0000
  S   S123      1.0  0.67552  0.14156  0.70518  1.0000
  S   S124      1.0  0.60185  0.12866  0.68688  1.0000
  Fe  Fe63      1.0  0.69380  0.16270  0.66312  1.0000
  S   S125      1.0  0.71107  0.20249  0.66019  1.0000
  Fe  Fe64      1.0  0.69280  0.10665  0.68459  1.0000
  S   S126      1.0  0.71021  0.07634  0.71657  1.0000
  S   S127      1.0  0.65985  0.15776  0.63177  1.0000
  S   S128      1.0  0.65999  0.09811  0.65458  1.0000
  Fe  Fe65      1.0  0.84171  0.28319  0.66475  1.0000
  C   C424      1.0  0.88104  0.31408  0.50845  1.0000
  S   S129      1.0  0.82221  0.24595  0.67994  1.0000
  Fe  Fe66      1.0  0.89487  0.30364  0.64568  1.0000
  C   C425      1.0  0.52385  0.01298  0.84425  1.0000
  C   C426      1.0  0.58354  0.07746  0.85175  1.0000
  H   H511      1.0  0.53841  0.00872  0.86140  1.0000
  H   H512      1.0  0.54375  0.01350  0.99424  1.0000
  S   S130      1.0  0.87546  0.29547  0.69259  1.0000
  S   S131      1.0  0.86278  0.28786  0.61827  1.0000
  C   C427      1.0  0.96263  0.29432  0.64876  1.0000
  C   C428      1.0  0.96241  0.29147  0.68192  1.0000
  H   H513      1.0  0.87300  0.31008  0.55859  1.0000
  C   C429      1.0  0.86785  0.31948  0.53651  1.0000
  H   H514      1.0  0.74858  0.21592  0.58396  1.0000
  H   H515      1.0  0.94464  0.29085  0.69484  1.0000
  H   H516      1.0  0.60024  0.08201  0.86613  1.0000
  C   C430      1.0  0.73066  0.03729  0.61465  1.0000
  H   H517      1.0  0.66034  0.03792  0.81190  1.0000
  C   C431      1.0  0.51312  0.15218  0.67232  1.0000
  H   H518      1.0  0.56119  0.05941  0.80032  1.0000
  C   C432      1.0  0.56324  0.08025  0.80129  1.0000
  C   C433      1.0  0.74242  0.21381  0.66467  1.0000
  C   C434      1.0  0.74778  0.23923  0.65633  1.0000
  C   C435      1.0  0.77219  0.24923  0.65989  1.0000
  C   C436      1.0  0.79158  0.23396  0.67225  1.0000
  C   C437      1.0  0.78624  0.20850  0.68039  1.0000
  C   C438      1.0  0.76192  0.19842  0.67642  1.0000
  H   H519      1.0  0.73289  0.25137  0.64726  1.0000
  H   H520      1.0  0.77587  0.26886  0.65368  1.0000
  H   H521      1.0  0.80101  0.19651  0.69010  1.0000
  H   H522      1.0  0.75817  0.17887  0.68304  1.0000
  C   C439      1.0  0.55529  0.15880  0.77060  1.0000
  C   C440      1.0  0.57819  0.17043  0.76149  1.0000
  C   C441      1.0  0.59312  0.16106  0.73651  1.0000
  C   C442      1.0  0.58488  0.14039  0.71982  1.0000
  C   C443      1.0  0.56192  0.12888  0.72884  1.0000
  C   C444      1.0  0.54733  0.13784  0.75427  1.0000
  H   H523      1.0  0.58450  0.18669  0.77392  1.0000
  H   H524      1.0  0.61069  0.17018  0.72971  1.0000
  H   H525      1.0  0.55525  0.11308  0.71582  1.0000
  H   H526      1.0  0.52962  0.12891  0.76061  1.0000
  C   C445      1.0  0.72701  0.02906  0.73106  1.0000
  C   C446      1.0  0.71176  0.04350  0.71053  1.0000
  C   C447      1.0  0.69830  0.03139  0.68697  1.0000
  H   H527      1.0  0.73736  0.03817  0.74939  1.0000
  H   H528      1.0  0.68639  0.04240  0.67107  1.0000
  S   S132      1.0  0.51816  0.13067  0.87911  1.0000
  C   C448      1.0  0.67736  0.12242  0.53243  1.0000
  C   C449      1.0  0.66120  0.14335  0.53202  1.0000
  H   H529      1.0  0.62255  0.05125  0.83990  1.0000
  H   H530      1.0  0.65366  0.15021  0.55411  1.0000
  H   H531      1.0  0.58015  0.05673  0.85327  1.0000
  N   N30       1.0  0.73542  0.18256  0.56135  1.0000
  C   C450      1.0  0.75287  0.19538  0.58283  1.0000
  C   C451      1.0  0.70946  0.18630  0.57386  1.0000
  C   C452      1.0  0.74149  0.15520  0.56320  1.0000
  H   H532      1.0  0.83694  0.30769  0.74574  1.0000
  C   C453      1.0  0.59140  0.01419  0.75742  1.0000
  C   C454      1.0  0.77592  0.26488  0.74413  1.0000
  H   H533      1.0  0.72749  0.14373  0.55072  1.0000
  H   H534      1.0  0.67016  0.01241  0.54284  1.0000
  C   C455      1.0  0.67730  0.04075  0.59272  1.0000
  N   N31       1.0  0.69730  0.02707  0.57528  1.0000
  H   H535      1.0  0.75114  0.18766  0.60776  1.0000
  C   C456      1.0  0.61502  0.00394  0.75013  1.0000
  H   H536      1.0  0.70769  0.17985  0.59926  1.0000
  H   H537      1.0  0.71390  0.24886  0.74566  1.0000
  C   C457      1.0  0.51244  0.03679  0.84299  1.0000
  H   H538      1.0  0.74157  0.14763  0.58821  1.0000
  H   H539      1.0  0.58774  0.03408  0.75244  1.0000
  C   C458      1.0  0.68512  0.00577  0.55948  1.0000
  C   C459      1.0  0.53496  0.16652  0.67386  1.0000
  C   C460      1.0  0.75014  0.29950  0.76211  1.0000
  C   C461      1.0  0.98583  0.29480  0.63229  1.0000
  H   H540      1.0  0.80345  0.29579  0.80518  1.0000
  S   S133      1.0  0.52047  0.05890  0.87086  1.0000
  H   H541      1.0  0.60525  0.12082  0.83175  1.0000
  H   H542      1.0  0.54600  0.08747  0.81341  1.0000
  C   C462      1.0  0.53645  0.18549  0.69573  1.0000
  H   H543      1.0  0.79350  0.25594  0.73771  1.0000
  C   C463      1.0  0.62560  0.05898  0.81608  1.0000
  N   N32       1.0  0.58642  0.08701  0.81826  1.0000
  H   H544      1.0  0.57139  0.12347  0.83065  1.0000
  H   H545      1.0  0.70853  0.16644  0.51075  1.0000
  H   H546      1.0  0.51910  0.20450  0.73342  1.0000
  C   C464      1.0  0.58819  0.11492  0.81890  1.0000
  C   C465      1.0  0.60881  0.07681  0.80156  1.0000
  C   C466      1.0  0.64738  0.05096  0.80014  1.0000
  H   H547      1.0  0.58940  0.12392  0.79476  1.0000
  H   H548      1.0  0.56299  0.08825  0.77655  1.0000
  H   H549      1.0  0.70393  0.20659  0.57241  1.0000
  H   H550      1.0  0.75575  0.23124  0.73285  1.0000
  C   C467      1.0  0.65296  0.06019  0.76943  1.0000
  C   C468      1.0  0.70800  0.04420  0.54992  1.0000
  C   C469      1.0  0.74921  0.03022  0.63654  1.0000
  C   C470      1.0  0.61465  0.08506  0.76981  1.0000
  C   C471      1.0  0.82053  0.29468  0.74479  1.0000
  H   H551      1.0  0.55392  0.00669  0.77565  1.0000
  H   H552      1.0  0.67021  0.05454  0.75749  1.0000
  C   C472      1.0  0.63648  0.07699  0.75417  1.0000
  H   H553      1.0  0.60268  0.09829  0.75691  1.0000
  C   C473      1.0  0.72857  0.28472  0.75915  1.0000
  H   H554      1.0  0.71600  0.06163  0.55950  1.0000
  C   C474      1.0  0.77448  0.29018  0.75419  1.0000
  H   H555      1.0  0.75842  0.04444  0.65012  1.0000
  H   H556      1.0  0.69338  0.05069  0.53267  1.0000
  H   H557      1.0  0.81768  0.32528  0.79214  1.0000
  H   H558      1.0  0.81890  0.28924  0.71965  1.0000
  H   H559      1.0  0.64094  0.08431  0.73029  1.0000
  Fe  Fe67      1.0  0.84787  0.32746  0.61726  1.0000
  H   H560      1.0  0.51227  0.13710  0.65568  1.0000
  H   H561      1.0  0.78723  0.32606  0.71238  1.0000
  C   C475      1.0  0.98530  0.28870  0.69834  1.0000
  H   H562      1.0  0.55383  0.19599  0.69756  1.0000
  H   H563      1.0  0.66924  0.02872  0.61254  1.0000
  H   H564      1.0  0.55112  0.16241  0.65878  1.0000
  H   H565      1.0  0.98503  0.28595  0.72394  1.0000
  C   C476      1.0  0.73062  0.26021  0.74851  1.0000
  H   H566      1.0  0.76035  0.15142  0.55247  1.0000
  H   H567      1.0  0.68438  0.05827  0.60317  1.0000
  Fe  Fe68      1.0  0.50865  0.14746  0.83093  1.0000
  H   H568      1.0  0.72639  0.05721  0.61174  1.0000
  N   N33       1.0  0.79689  0.30660  0.75630  1.0000
  H   H569      1.0  0.82559  0.27750  0.75935  1.0000
  H   H570      1.0  0.77292  0.19282  0.57555  1.0000
  S   S134      1.0  0.93467  0.29743  0.62658  1.0000
  C   C477      1.0  0.71740  0.01903  0.59759  1.0000
  C   C478      1.0  0.70073  0.00493  0.68382  1.0000
  H   H571      1.0  0.98615  0.29653  0.60667  1.0000
  C   C479      1.0  0.75424  0.25029  0.74130  1.0000
  H   H572      1.0  0.66166  0.04692  0.57680  1.0000
  H   H573      1.0  0.69523  0.17556  0.56089  1.0000
  H   H574      1.0  0.95071  0.31094  0.56470  1.0000
  C   C480      1.0  0.73707  0.19197  0.52780  1.0000
  H   H575      1.0  0.93933  0.31335  0.52496  1.0000
  S   S135      1.0  0.82455  0.32218  0.66233  1.0000
  H   H576      1.0  0.72330  0.03470  0.53646  1.0000
  C   C481      1.0  0.80073  0.31312  0.78981  1.0000
  C   C482      1.0  0.93736  0.32138  0.54885  1.0000
  C   C483      1.0  0.51616  0.19020  0.71627  1.0000
  H   H577      1.0  0.78446  0.32368  0.79968  1.0000
  C   C484      1.0  0.75519  0.00484  0.64200  1.0000
  H   H578      1.0  0.91816  0.31693  0.55834  1.0000
  H   H579      1.0  0.50601  0.00493  0.91023  1.0000
  H   H580      1.0  0.62898  0.01648  0.73939  1.0000
  H   H581      1.0  0.71013  0.29234  0.76480  1.0000
  H   H582      1.0  0.97025  0.25699  0.55678  1.0000
  H   H583      1.0  0.74760  0.31842  0.77030  1.0000
  C   C485      1.0  0.97940  0.26750  0.53724  1.0000
  H   H584      1.0  0.76617  0.22088  0.53307  1.0000
  H   H585      1.0  0.89617  0.30037  0.50916  1.0000
  C   C486      1.0  0.75386  0.21146  0.51714  1.0000
  C   C487      1.0  0.72954  0.00303  0.72782  1.0000
  C   C488      1.0  0.79300  0.33027  0.73694  1.0000
  C   C489      1.0  0.96773  0.27001  0.50764  1.0000
  Fe  Fe69      1.0  0.87504  0.53067  0.16667  1.0000
  S   S136      1.0  0.89144  0.49291  0.18179  1.0000
  S   S137      1.0  0.87873  0.55536  0.21002  1.0000
  Fe  Fe70      1.0  0.86436  0.51191  0.09911  1.0000
  S   S138      1.0  0.87924  0.47295  0.11087  1.0000
  S   S139      1.0  0.84708  0.52159  0.05026  1.0000
  Fe  Fe71      1.0  0.85909  0.47543  0.15804  1.0000
  S   S140      1.0  0.83894  0.44113  0.18046  1.0000
  Fe  Fe72      1.0  0.91027  0.49352  0.13416  1.0000
  S   S141      1.0  0.94954  0.47804  0.13313  1.0000
  S   S142      1.0  0.84099  0.51289  0.14487  1.0000
  S   S143      1.0  0.89700  0.53258  0.12025  1.0000
  C   C490      1.0  0.85496  0.34379  0.47873  1.0000
  H   H586      1.0  0.97426  0.41431  0.19393  1.0000
  Fe  Fe73      1.0  0.85989  0.34853  0.33546  1.0000
  S   S144      1.0  0.84976  0.38848  0.31760  1.0000
  H   H587      1.0  0.85079  0.53660  0.27444  1.0000
  C   C491      1.0  0.93634  0.65131  0.19932  1.0000
  H   H588      1.0  0.96763  0.58846  0.17125  1.0000
  N   N34       1.0  0.93371  0.41887  0.19894  1.0000
  C   C492      1.0  0.75953  0.36255  0.31013  1.0000
  H   H589      1.0  0.74282  0.36933  0.32368  1.0000
  H   H590      1.0  0.89669  0.50535  0.02599  1.0000
  H   H591      1.0  0.79320  0.53406  0.22951  1.0000
  C   C493      1.0  0.97157  0.50164  0.13962  1.0000
  C   C494      1.0  0.96772  0.52631  0.12765  1.0000
  C   C495      1.0  0.98641  0.54460  0.13096  1.0000
  H   H592      1.0  0.96812  0.65279  0.32808  1.0000
  C   C496      1.0  0.94885  0.39041  0.24407  1.0000
  H   H593      1.0  0.95087  0.53104  0.11462  1.0000
  C   C497      1.0  0.97420  0.64068  0.30932  1.0000
  C   C498      1.0  0.84550  0.42527  0.21737  1.0000
  C   C499      1.0  0.83467  0.40148  0.22404  1.0000
  C   C500      1.0  0.83778  0.38895  0.25385  1.0000
  C   C501      1.0  0.85149  0.40026  0.27759  1.0000
  C   C502      1.0  0.86293  0.42376  0.27064  1.0000
  C   C503      1.0  0.86018  0.43611  0.24059  1.0000
  H   H594      1.0  0.82333  0.39292  0.20622  1.0000
  H   H595      1.0  0.82854  0.37109  0.25890  1.0000
  H   H596      1.0  0.87314  0.43292  0.28902  1.0000
  H   H597      1.0  0.86856  0.45443  0.23592  1.0000
  C   C504      1.0  0.86831  0.58580  0.22070  1.0000
  C   C505      1.0  0.85366  0.60134  0.20068  1.0000
  C   C506      1.0  0.84615  0.62547  0.21035  1.0000
  C   C507      1.0  0.85327  0.63439  0.24000  1.0000
  C   C508      1.0  0.86770  0.61871  0.26015  1.0000
  C   C509      1.0  0.87515  0.59457  0.25053  1.0000
  H   H598      1.0  0.84821  0.59485  0.17770  1.0000
  H   H599      1.0  0.83491  0.63742  0.19463  1.0000
  H   H600      1.0  0.87314  0.62520  0.28312  1.0000
  H   H601      1.0  0.88642  0.58266  0.26625  1.0000
  H   H602      1.0  0.98574  0.33857  0.38442  1.0000
  H   H603      1.0  0.84215  0.47778  0.35784  1.0000
  C   C510      1.0  0.83326  0.47544  0.33510  1.0000
  H   H604      1.0  0.80365  0.46478  0.25321  1.0000
  C   C511      1.0  0.82126  0.49281  0.28247  1.0000
  C   C512      1.0  0.93381  0.60607  0.18870  1.0000
  H   H605      1.0  0.83664  0.52135  0.21131  1.0000
  H   H606      1.0  0.89008  0.38953  0.21144  1.0000
  H   H607      1.0  0.78168  0.52191  0.26748  1.0000
  C   C513      1.0  0.91260  0.42268  0.17638  1.0000
  C   C514      1.0  0.90616  0.38484  0.22597  1.0000
  H   H608      1.0  0.82484  0.43621  0.34505  1.0000
  C   C515      1.0  0.95903  0.60581  0.17913  1.0000
  C   C516      1.0  0.77757  0.34783  0.36053  1.0000
  C   C517      1.0  0.82332  0.45205  0.32810  1.0000
  C   C518      1.0  0.83228  0.49563  0.31275  1.0000
  C   C519      1.0  0.92250  0.35786  0.26869  1.0000
  H   H609      1.0  0.85614  0.50249  0.23724  1.0000
  H   H610      1.0  0.84064  0.51310  0.31960  1.0000
  C   C520      1.0  0.92264  0.62840  0.19873  1.0000
  C   C521      1.0  0.83040  0.53787  0.26855  1.0000
  H   H611      1.0  0.81957  0.54459  0.28944  1.0000
  C   C522      1.0  0.81137  0.46869  0.27615  1.0000
  H   H612      1.0  0.92021  0.44700  0.23053  1.0000
  H   H613      1.0  0.82931  0.48881  0.21897  1.0000
  C   C523      1.0  0.97318  0.62786  0.17974  1.0000
  H   H614      1.0  0.93593  0.62828  0.30345  1.0000
  H   H615      1.0  0.82912  0.55304  0.24955  1.0000
  C   C524      1.0  0.79039  0.36089  0.42316  1.0000
  C   C525      1.0  0.86036  0.51907  0.01116  1.0000
  H   H616      1.0  0.92277  0.58887  0.18825  1.0000
  C   C526      1.0  0.90289  0.36510  0.24865  1.0000
  C   C527      1.0  0.78996  0.37085  0.36657  1.0000
  H   H617      1.0  0.77245  0.37876  0.30556  1.0000
  H   H618      1.0  0.95956  0.42845  0.16021  1.0000
  H   H619      1.0  0.95576  0.39519  0.16870  1.0000
  H   H620      1.0  0.78661  0.50137  0.23486  1.0000
  H   H621      1.0  0.96537  0.36649  0.49040  1.0000
  C   C528      1.0  0.79439  0.51781  0.24704  1.0000
  H   H622      1.0  0.94009  0.45905  0.19851  1.0000
  C   C529      1.0  0.92945  0.39795  0.22273  1.0000
  H   H623      1.0  0.98388  0.56339  0.12056  1.0000
  H   H624      1.0  0.95369  0.44200  0.23145  1.0000
  H   H625      1.0  0.79609  0.38357  0.34737  1.0000
  H   H626      1.0  0.89499  0.42864  0.18862  1.0000
  H   H627      1.0  0.90400  0.65519  0.24882  1.0000
  C   C530      1.0  0.96216  0.65033  0.18979  1.0000
  H   H628      1.0  0.75307  0.35721  0.28624  1.0000
  H   H629      1.0  0.91674  0.43791  0.15813  1.0000
  C   C531      1.0  0.81222  0.44876  0.29879  1.0000
  H   H630      1.0  0.99664  0.47646  0.16538  1.0000
  C   C532      1.0  0.95679  0.41390  0.17974  1.0000
  H   H631      1.0  0.90308  0.62758  0.20602  1.0000
  H   H632      1.0  0.88497  0.35540  0.25087  1.0000
  H   H633      1.0  0.86374  0.66056  0.47649  1.0000
  H   H634      1.0  0.99071  0.59649  0.24055  1.0000
  H   H635      1.0  0.80935  0.35114  0.31066  1.0000
  C   C533      1.0  0.93709  0.44273  0.21562  1.0000
  C   C534      1.0  0.94540  0.37053  0.26649  1.0000
  H   H636      1.0  0.99283  0.62746  0.17225  1.0000
  C   C535      1.0  0.83627  0.50610  0.23016  1.0000
  H   H637      1.0  0.80531  0.43029  0.29303  1.0000
  N   N35       1.0  0.82063  0.51341  0.25775  1.0000
  C   C536      1.0  0.95534  0.62672  0.29520  1.0000
  C   C537      1.0  0.79604  0.37729  0.39745  1.0000
  H   H638      1.0  0.96053  0.36482  0.28235  1.0000
  H   H639      1.0  0.90876  0.40528  0.16331  1.0000
  H   H640      1.0  0.96686  0.39986  0.24366  1.0000
  H   H641      1.0  0.94658  0.60008  0.25964  1.0000
  H   H642      1.0  0.92626  0.35205  0.50040  1.0000
  H   H643      1.0  0.91994  0.34242  0.28605  1.0000
  C   C538      1.0  0.96128  0.61086  0.27051  1.0000
  H   H644      1.0  0.85027  0.35359  0.45659  1.0000
  H   H645      1.0  0.80603  0.39468  0.40135  1.0000
  H   H646      1.0  0.79576  0.36559  0.44699  1.0000
  C   C539      1.0  0.98615  0.60886  0.25981  1.0000
  C   C540      1.0  0.99984  0.63887  0.29919  1.0000
  S   S145      1.0  0.89796  0.34245  0.35680  1.0000
  S   S146      1.0  0.84441  0.66547  0.25019  1.0000
  H   H647      1.0  0.82959  0.46737  0.02416  1.0000
  H   H648      1.0  0.99167  0.50785  0.01280  1.0000
  C   C541      1.0  0.99368  0.49546  0.15584  1.0000
  H   H649      1.0  0.88581  0.66529  0.19657  1.0000
  C   C542      1.0  0.84177  0.34925  0.50696  1.0000
  H   H650      1.0  0.82673  0.36311  0.50643  1.0000
  N   N36       1.0  0.77195  0.34108  0.32752  1.0000
  C   C543      1.0  0.77873  0.33795  0.41805  1.0000
  H   H651      1.0  0.99967  0.52299  0.06460  1.0000
  C   C544      1.0  0.79588  0.33511  0.31087  1.0000
  H   H652      1.0  0.97421  0.66667  0.18976  1.0000
  Fe  Fe74      1.0  0.88037  0.51661  0.85694  1.0000
  S   S147      1.0  0.90229  0.54448  0.82595  1.0000
  S   S148      1.0  0.89229  0.50978  0.90902  1.0000
  Fe  Fe75      1.0  0.85436  0.49549  0.79853  1.0000
  S   S149      1.0  0.87369  0.52250  0.76361  1.0000
  S   S150      1.0  0.82831  0.46476  0.78162  1.0000
  Fe  Fe76      1.0  0.90773  0.51321  0.79249  1.0000
  S   S151      1.0  0.94462  0.50692  0.76776  1.0000
  Fe  Fe77      1.0  0.86648  0.55228  0.79924  1.0000
  S   S152      1.0  0.86031  0.59455  0.78856  1.0000
  S   S153      1.0  0.88920  0.48441  0.82492  1.0000
  S   S154      1.0  0.84368  0.52627  0.83253  1.0000
  H   H653      1.0  0.84306  0.52792  0.93312  1.0000
  S   S155      1.0  0.86400  0.35738  0.73251  1.0000
  C   C545      1.0  0.97941  0.49214  0.85103  1.0000
  C   C546      1.0  0.96745  0.49948  0.79609  1.0000
  C   C547      1.0  0.96087  0.49738  0.82836  1.0000
  C   C548      1.0  0.81057  0.46516  0.97950  1.0000
  C   C549      1.0  0.97821  0.56861  0.74095  1.0000
  H   H654      1.0  0.82358  0.42614  0.86365  1.0000
  H   H655      1.0  0.94155  0.50001  0.83599  1.0000
  H   H656      1.0  0.93500  0.62651  0.70444  1.0000
  C   C550      1.0  0.85862  0.61097  0.75099  1.0000
  C   C551      1.0  0.86167  0.63737  0.74943  1.0000
  H   H657      1.0  0.95810  0.34824  0.70597  1.0000
  C   C552      1.0  0.85470  0.63891  0.69231  1.0000
  C   C553      1.0  0.85193  0.61249  0.69386  1.0000
  C   C554      1.0  0.85411  0.59856  0.72292  1.0000
  H   H658      1.0  0.86510  0.64719  0.77101  1.0000
  C   C555      1.0  0.97800  0.55220  0.87882  1.0000
  H   H659      1.0  0.84772  0.60275  0.67243  1.0000
  H   H660      1.0  0.85162  0.57829  0.72368  1.0000
  C   C556      1.0  0.85513  0.38855  0.74275  1.0000
  C   C557      1.0  0.83368  0.40069  0.73050  1.0000
  C   C558      1.0  0.82592  0.42422  0.74215  1.0000
  C   C559      1.0  0.83993  0.43630  0.76530  1.0000
  C   C560      1.0  0.86178  0.42445  0.77682  1.0000
  C   C561      1.0  0.86900  0.40056  0.76606  1.0000
  H   H661      1.0  0.82265  0.39167  0.71278  1.0000
  H   H662      1.0  0.80890  0.43309  0.73320  1.0000
  H   H663      1.0  0.87264  0.43329  0.79483  1.0000
  H   H664      1.0  0.88540  0.39121  0.77606  1.0000
  H   H665      1.0  0.97429  0.49078  0.87601  1.0000
  C   C562      1.0  0.89436  0.50793  0.97454  1.0000
  C   C563      1.0  0.87940  0.51414  0.94794  1.0000
  C   C564      1.0  0.85486  0.52302  0.95316  1.0000
  H   H666      1.0  0.91334  0.50102  0.97091  1.0000
  C   C565      1.0  0.95485  0.54751  0.89415  1.0000
  C   C566      1.0  0.83672  0.45410  0.93333  1.0000
  H   H667      1.0  0.87864  0.45833  0.89270  1.0000
  H   H668      1.0  0.92957  0.56041  0.76579  1.0000
  H   H669      1.0  0.81046  0.34192  0.73502  1.0000
  C   C567      1.0  0.98047  0.38286  0.70462  1.0000
  H   H670      1.0  0.86580  0.44007  0.86214  1.0000
  H   H671      1.0  0.90963  0.61250  0.76748  1.0000
  H   H672      1.0  0.83431  0.47199  0.85480  1.0000
  C   C568      1.0  0.79591  0.63988  0.73801  1.0000
  H   H673      1.0  0.91468  0.35825  0.58387  1.0000
  C   C569      1.0  0.82174  0.42988  0.88950  1.0000
  C   C570      1.0  0.93599  0.37913  0.72131  1.0000
  C   C571      1.0  0.92827  0.60681  0.70829  1.0000
  H   H674      1.0  0.98849  0.51294  0.95546  1.0000
  H   H675      1.0  0.87649  0.44818  0.94591  1.0000
  C   C572      1.0  0.92435  0.57017  0.74296  1.0000
  H   H676      1.0  0.84398  0.48980  0.88826  1.0000
  H   H677      1.0  0.92878  0.38152  0.52063  1.0000
  S   S156      1.0  0.88102  0.34367  0.64199  1.0000
  H   H678      1.0  0.95199  0.53031  0.90853  1.0000
  C   C573      1.0  0.81309  0.46068  0.94707  1.0000
  H   H679      1.0  0.81209  0.47944  0.88515  1.0000
  H   H680      1.0  0.82579  0.41197  0.90315  1.0000
  H   H681      1.0  0.93720  0.60204  0.78809  1.0000
  H   H682      1.0  0.93797  0.63003  0.76236  1.0000
  H   H683      1.0  0.95577  0.43936  0.72860  1.0000
  H   H684      1.0  0.93425  0.59598  0.68729  1.0000
  H   H685      1.0  0.97258  0.63242  0.72792  1.0000
  H   H686      1.0  0.87127  0.42530  0.90033  1.0000
  H   H687      1.0  0.78957  0.62222  0.78415  1.0000
  C   C574      1.0  0.86003  0.65125  0.72024  1.0000
  C   C575      1.0  0.79644  0.66253  0.71994  1.0000
  H   H688      1.0  0.90481  0.35902  0.53134  1.0000
  C   C576      1.0  0.98785  0.34662  0.56301  1.0000
  H   H689      1.0  0.90728  0.60798  0.70819  1.0000
  H   H690      1.0  0.87102  0.45559  0.00196  1.0000
  H   H691      1.0  0.82642  0.53223  0.98823  1.0000
  C   C577      1.0  0.99251  0.49622  0.78646  1.0000
  C   C578      1.0  0.86482  0.44312  0.88819  1.0000
  C   C579      1.0  0.85759  0.45216  0.95416  1.0000
  C   C580      1.0  0.93508  0.40471  0.72766  1.0000
  C   C581      1.0  0.78931  0.63979  0.77011  1.0000
  H   H692      1.0  0.91917  0.36769  0.72491  1.0000
  C   C582      1.0  0.96549  0.59215  0.73666  1.0000
  H   H693      1.0  0.91711  0.56080  0.90246  1.0000
  H   H694      1.0  0.79648  0.46297  0.93270  1.0000
  N   N37       1.0  0.93766  0.59466  0.73821  1.0000
  N   N38       1.0  0.83899  0.45023  0.89872  1.0000
  H   H695      1.0  0.80161  0.43475  0.89367  1.0000
  H   H696      1.0  0.90348  0.57270  0.74400  1.0000
  N   N39       1.0  0.94218  0.34888  0.54765  1.0000
  H   H697      1.0  0.96830  0.55103  0.74480  1.0000
  C   C583      1.0  0.95835  0.36824  0.71023  1.0000
  H   H698      1.0  0.99156  0.59671  0.80022  1.0000
  C   C584      1.0  0.93045  0.61055  0.76517  1.0000
  H   H699      1.0  0.92278  0.59983  0.86926  1.0000
  H   H700      1.0  0.92844  0.55722  0.72329  1.0000
  C   C585      1.0  0.83202  0.47385  0.88100  1.0000
  H   H701      1.0  0.99933  0.33618  0.71972  1.0000
  C   C586      1.0  0.98182  0.57403  0.85876  1.0000
  S   S157      1.0  0.84976  0.65549  0.65535  1.0000
  C   C587      1.0  0.84547  0.52548  0.98453  1.0000
  S   S158      1.0  0.83325  0.34590  0.57168  1.0000
  C   C588      1.0  0.96136  0.59139  0.85612  1.0000
  C   C589      1.0  0.97903  0.40883  0.71196  1.0000
  H   H702      1.0  0.91765  0.41311  0.73602  1.0000
  H   H703      1.0  0.96261  0.60878  0.84209  1.0000
  H   H704      1.0  0.99492  0.42139  0.70908  1.0000
  C   C590      1.0  0.93510  0.56469  0.89071  1.0000
  C   C591      1.0  0.93540  0.35909  0.57909  1.0000
  H   H705      1.0  0.94376  0.34799  0.59925  1.0000
  H   H706      1.0  0.80137  0.62237  0.72722  1.0000
  C   C592      1.0  0.83138  0.46306  0.99922  1.0000
  C   C593      1.0  0.93836  0.58662  0.87186  1.0000
  H   H707      1.0  0.98273  0.33893  0.58629  1.0000
  C   C594      1.0  0.98084  0.61386  0.73144  1.0000
  H   H708      1.0  0.94131  0.37911  0.58051  1.0000
  C   C595      1.0  0.96924  0.35301  0.54010  1.0000
  H   H709      1.0  0.98446  0.34286  0.66512  1.0000
  C   C596      1.0  0.92499  0.36096  0.52390  1.0000
  C   C597      1.0  0.78279  0.66233  0.78417  1.0000
  C   C598      1.0  0.95659  0.41947  0.72328  1.0000
  H   H710      1.0  0.80259  0.66160  0.69540  1.0000
  H   H711      1.0  0.79254  0.47086  0.98938  1.0000
  C   C599      1.0  0.85476  0.45641  0.98661  1.0000
  H   H712      1.0  0.98973  0.37245  0.64393  1.0000
  C   C600      1.0  0.84847  0.33739  0.53605  1.0000
  H   H713      1.0  0.99283  0.53841  0.88259  1.0000
  H   H714      1.0  0.99759  0.49767  0.76148  1.0000
  H   H715      1.0  0.77772  0.66212  0.80922  1.0000
  C   C601      1.0  0.97804  0.36168  0.50955  1.0000
  C   C602      1.0  0.88496  0.51037  0.00589  1.0000
  H   H716      1.0  0.99905  0.54845  0.81059  1.0000
  C   C603      1.0  0.99790  0.35873  0.66160  1.0000
  H   H717      1.0  0.77828  0.34265  0.74710  1.0000
  Fe  Fe78      1.0  0.85940  0.33497  0.68737  1.0000
  H   H718      1.0  0.62194  0.95525  0.34303  1.0000
  H   H719      1.0  0.61396  0.90709  0.19287  1.0000
  S   S159      1.0  0.56221  0.90400  0.17450  1.0000
  H   H720      1.0  0.66921  0.86953  0.23602  1.0000
  H   H721      1.0  0.77363  0.76843  0.36816  1.0000
  Fe  Fe79      1.0  0.52042  0.90276  0.16163  1.0000
  Fe  Fe80      1.0  0.70321  0.92234  0.32904  1.0000
  S   S160      1.0  0.66868  0.91637  0.35995  1.0000
  S   S161      1.0  0.71365  0.96132  0.30889  1.0000
  Fe  Fe81      1.0  0.71123  0.86550  0.31972  1.0000
  S   S162      1.0  0.67664  0.85629  0.34914  1.0000
  S   S163      1.0  0.72986  0.83182  0.29591  1.0000
  Fe  Fe82      1.0  0.65741  0.88875  0.32341  1.0000
  S   S164      1.0  0.61619  0.88662  0.30850  1.0000
  Fe  Fe83      1.0  0.69110  0.88458  0.38271  1.0000
  S   S165      1.0  0.69061  0.86963  0.43389  1.0000
  S   S166      1.0  0.69074  0.89609  0.29140  1.0000
  S   S167      1.0  0.72685  0.89241  0.35450  1.0000
  Fe  Fe84      1.0  0.87109  0.69354  0.36164  1.0000
  S   S168      1.0  0.88745  0.73213  0.35323  1.0000
  H   H722      1.0  0.64510  0.93779  0.28248  1.0000
  Fe  Fe85      1.0  0.85807  0.68800  0.29190  1.0000
  S   S169      1.0  0.87229  0.72716  0.27905  1.0000
  Fe  Fe86      1.0  0.90538  0.71629  0.30960  1.0000
  S   S170      1.0  0.94447  0.72046  0.28707  1.0000
  Fe  Fe87      1.0  0.85266  0.73959  0.32372  1.0000
  S   S171      1.0  0.83336  0.77709  0.33522  1.0000
  C   C604      1.0  0.61055  0.95839  0.32126  1.0000
  S   S172      1.0  0.83558  0.70132  0.33433  1.0000
  C   C605      1.0  0.86164  0.69194  0.44254  1.0000
  C   C606      1.0  0.85641  0.71769  0.43832  1.0000
  H   H723      1.0  0.99585  0.72773  0.26767  1.0000
  H   H724      1.0  0.85801  0.72669  0.41491  1.0000
  H   H725      1.0  0.66125  0.78942  0.23984  1.0000
  C   C607      1.0  0.97160  0.72697  0.30918  1.0000
  H   H726      1.0  0.91678  0.76420  0.40312  1.0000
  C   C608      1.0  0.97057  0.72917  0.34217  1.0000
  H   H727      1.0  0.65086  0.98623  0.34741  1.0000
  H   H728      1.0  0.95270  0.72743  0.35474  1.0000
  C   C609      1.0  0.75873  0.81683  0.30705  1.0000
  C   C610      1.0  0.77549  0.82779  0.32780  1.0000
  C   C611      1.0  0.79845  0.81561  0.33542  1.0000
  C   C612      1.0  0.80485  0.79215  0.32283  1.0000
  C   C613      1.0  0.78802  0.78108  0.30224  1.0000
  C   C614      1.0  0.76519  0.79345  0.29427  1.0000
  H   H729      1.0  0.77096  0.84587  0.33758  1.0000
  H   H730      1.0  0.81138  0.82450  0.35114  1.0000
  H   H731      1.0  0.79262  0.76305  0.29237  1.0000
  H   H732      1.0  0.75246  0.78481  0.27808  1.0000
  C   C615      1.0  0.68843  0.88983  0.46611  1.0000
  C   C616      1.0  0.69423  0.91549  0.46263  1.0000
  C   C617      1.0  0.61508  0.83823  0.17356  1.0000
  H   H733      1.0  0.69913  0.92359  0.43940  1.0000
  H   H734      1.0  0.61561  0.84025  0.14784  1.0000
  C   C618      1.0  0.94000  0.69747  0.20665  1.0000
  C   C619      1.0  0.71299  0.98753  0.36463  1.0000
  N   N40       1.0  0.78380  0.76095  0.41736  1.0000
  C   C620      1.0  0.99280  0.73364  0.35896  1.0000
  H   H735      1.0  0.71336  0.96934  0.37714  1.0000
  H   H736      1.0  0.79624  0.74257  0.46119  1.0000
  C   C621      1.0  0.85246  0.69473  0.49931  1.0000
  C   C622      1.0  0.67370  0.80577  0.23363  1.0000
  H   H737      1.0  0.84521  0.75179  0.46108  1.0000
  H   H738      1.0  0.89409  0.74766  0.50612  1.0000
  C   C623      1.0  0.57667  0.90050  0.21232  1.0000
  C   C624      1.0  0.56279  0.89482  0.24014  1.0000
  C   C625      1.0  0.57523  0.89093  0.26935  1.0000
  C   C626      1.0  0.60162  0.89276  0.27119  1.0000
  C   C627      1.0  0.61547  0.89900  0.24351  1.0000
  C   C628      1.0  0.60304  0.90277  0.21427  1.0000
  H   H739      1.0  0.54253  0.89296  0.23906  1.0000
  H   H740      1.0  0.56432  0.88612  0.29061  1.0000
  H   H741      1.0  0.63572  0.90059  0.24450  1.0000
  C   C629      1.0  0.73759  0.81570  0.42490  1.0000
  C   C630      1.0  0.84910  0.73186  0.46445  1.0000
  C   C631      1.0  0.78873  0.73790  0.43754  1.0000
  C   C632      1.0  0.97294  0.76106  0.44065  1.0000
  H   H742      1.0  0.64612  0.81386  0.28578  1.0000
  H   H743      1.0  0.76459  0.80490  0.39024  1.0000
  H   H744      1.0  0.64950  0.84785  0.28448  1.0000
  C   C633      1.0  0.69431  0.93055  0.48946  1.0000
  C   C634      1.0  0.63089  0.99759  0.30404  1.0000
  H   H745      1.0  0.76827  0.83091  0.49699  1.0000
  H   H746      1.0  0.61133  0.83373  0.26550  1.0000
  C   C635      1.0  0.61342  0.83430  0.23992  1.0000
  H   H747      1.0  0.69168  0.80294  0.24682  1.0000
  C   C636      1.0  0.75260  0.77307  0.46098  1.0000
  C   C637      1.0  0.59124  0.83773  0.22270  1.0000
  C   C638      1.0  0.80782  0.77499  0.41366  1.0000
  H   H748      1.0  0.90458  0.68065  0.16576  1.0000
  H   H749      1.0  0.67862  0.80501  0.20795  1.0000
  C   C639      1.0  0.59209  0.84003  0.18966  1.0000
  S   S173      1.0  0.87123  0.67389  0.41021  1.0000
  C   C640      1.0  0.63729  0.83275  0.22425  1.0000
  H   H750      1.0  0.90336  0.70691  0.48150  1.0000
  H   H751      1.0  0.75754  0.75704  0.47626  1.0000
  C   C641      1.0  0.71261  0.98883  0.33141  1.0000
  C   C642      1.0  0.63736  0.83442  0.19049  1.0000
  H   H752      1.0  0.65473  0.83324  0.17693  1.0000
  H   H753      1.0  0.69612  0.85035  0.24635  1.0000
  H   H754      1.0  0.95695  0.69586  0.22191  1.0000
  H   H755      1.0  0.81402  0.78223  0.43674  1.0000
  H   H756      1.0  0.80629  0.79139  0.39658  1.0000
  C   C643      1.0  0.76418  0.77772  0.43062  1.0000
  H   H757      1.0  0.59134  0.98037  0.26850  1.0000
  N   N41       1.0  0.62493  0.97153  0.29508  1.0000
  C   C644      1.0  0.93028  0.76013  0.42177  1.0000
  C   C645      1.0  0.99497  0.72915  0.29322  1.0000
  C   C646      1.0  0.84687  0.72040  0.49491  1.0000
  H   H758      1.0  0.68458  0.85068  0.20696  1.0000
  H   H759      1.0  0.82323  0.76293  0.40415  1.0000
  C   C647      1.0  0.65804  0.82984  0.27670  1.0000
  C   C648      1.0  0.67847  0.85099  0.23226  1.0000
  H   H760      1.0  0.57333  0.83964  0.23513  1.0000
  C   C649      1.0  0.85970  0.68049  0.47311  1.0000
  H   H761      1.0  0.67750  0.85967  0.49914  1.0000
  C   C650      1.0  0.60968  0.97034  0.26583  1.0000
  H   H762      1.0  0.99263  0.76581  0.43652  1.0000
  N   N42       1.0  0.66130  0.82988  0.24160  1.0000
  H   H763      1.0  0.57492  0.84381  0.17656  1.0000
  H   H764      1.0  0.75799  0.74204  0.38726  1.0000
  H   H765      1.0  0.80309  0.72544  0.42645  1.0000
  H   H766      1.0  0.89152  0.69793  0.19829  1.0000
  C   C651      1.0  0.75636  0.79980  0.41321  1.0000
  H   H767      1.0  0.79065  0.74002  0.37494  1.0000
  H   H768      1.0  0.67639  0.82773  0.28904  1.0000
  C   C652      1.0  0.77612  0.75250  0.38569  1.0000
  H   H769      1.0  0.59343  0.96933  0.32784  1.0000
  C   C653      1.0  0.72625  0.81032  0.45437  1.0000
  C   C654      1.0  0.96526  0.74927  0.46947  1.0000
  H   H770      1.0  0.66045  0.95604  0.31107  1.0000
  C   C655      1.0  0.91694  0.67131  0.24417  1.0000
  H   H771      1.0  0.94592  0.70125  0.18148  1.0000
  C   C656      1.0  0.73388  0.78918  0.47249  1.0000
  H   H772      1.0  0.90702  0.68829  0.25291  1.0000
  H   H773      1.0  0.72505  0.78514  0.49550  1.0000
  H   H774      1.0  0.77141  0.72632  0.44116  1.0000
  H   H775      1.0  0.92988  0.71465  0.21469  1.0000
  H   H776      1.0  0.73154  0.83222  0.41088  1.0000
  H   H777      1.0  0.99763  0.68282  0.33315  1.0000
  H   H778      1.0  0.71142  0.82255  0.46304  1.0000
  C   C657      1.0  0.68217  0.87948  0.49636  1.0000
  H   H779      1.0  0.60433  0.93928  0.31457  1.0000
  C   C658      1.0  0.93964  0.74242  0.47517  1.0000
  H   H780      1.0  0.69922  0.95030  0.48671  1.0000
  C   C659      1.0  0.92239  0.74838  0.45046  1.0000
  H   H781      1.0  0.66053  0.96702  0.27062  1.0000
  S   S174      1.0  0.89189  0.67680  0.32046  1.0000
  H   H782      1.0  0.90264  0.74380  0.45304  1.0000
  H   H783      1.0  0.93357  0.69241  0.48585  1.0000
  H   H784      1.0  0.60513  0.95050  0.26021  1.0000
  C   C660      1.0  0.95551  0.76645  0.41688  1.0000
  H   H785      1.0  0.76085  0.87406  0.49203  1.0000
  C   C661      1.0  0.51452  0.97978  0.05392  1.0000
  C   C662      1.0  0.64869  0.95748  0.28950  1.0000
  H   H786      1.0  0.96162  0.77533  0.39445  1.0000
  H   H787      1.0  0.99196  0.73521  0.38446  1.0000
  H   H788      1.0  0.97977  0.74565  0.48679  1.0000
  C   C663      1.0  0.51337  0.99814  0.07688  1.0000
  H   H789      1.0  0.62002  0.97845  0.24467  1.0000
  C   C664      1.0  0.52561  0.98525  0.02432  1.0000
  S   S175      1.0  0.50944  0.92154  0.11458  1.0000
  C   C665      1.0  0.91957  0.70477  0.49768  1.0000
  C   C666      1.0  0.90058  0.67979  0.19178  1.0000
  H   H790      1.0  0.50428  0.99295  0.09932  1.0000
  N   N43       1.0  0.92390  0.67463  0.21011  1.0000
  H   H791      1.0  0.50674  0.96118  0.05921  1.0000
  H   H792      1.0  0.93389  0.66826  0.25910  1.0000
  H   H793      1.0  0.73315  0.85606  0.50426  1.0000
  H   H794      1.0  0.79633  0.79475  0.50313  1.0000
  N   N44       1.0  0.93078  0.72941  0.50501  1.0000
  C   C667      1.0  0.68849  0.92008  0.51979  1.0000
  C   C668      1.0  0.54229  0.86902  0.67487  1.0000
  S   S176      1.0  0.54373  0.86666  0.78931  1.0000
  Fe  Fe88      1.0  0.70284  0.93088  0.66939  1.0000
  S   S177      1.0  0.66964  0.94310  0.64106  1.0000
  S   S178      1.0  0.72164  0.95780  0.70192  1.0000
  Fe  Fe89      1.0  0.70067  0.87654  0.64703  1.0000
  S   S179      1.0  0.66582  0.88541  0.61798  1.0000
  S   S180      1.0  0.71604  0.83651  0.64040  1.0000
  Fe  Fe90      1.0  0.68659  0.92051  0.60227  1.0000
  S   S181      1.0  0.69049  0.93903  0.55319  1.0000
  Fe  Fe91      1.0  0.65190  0.90701  0.66009  1.0000
  S   S182      1.0  0.61193  0.91516  0.67797  1.0000
  S   S183      1.0  0.72181  0.91101  0.62913  1.0000
  S   S184      1.0  0.68482  0.89551  0.69042  1.0000
  Fe  Fe92      1.0  0.84267  0.75231  0.64187  1.0000
  S   S185      1.0  0.82338  0.72018  0.61904  1.0000
  S   S186      1.0  0.82203  0.78272  0.66950  1.0000
  Fe  Fe93      1.0  0.89523  0.73593  0.61735  1.0000
  S   S187      1.0  0.87917  0.70284  0.59282  1.0000
  S   S188      1.0  0.93578  0.74537  0.60381  1.0000
  Fe  Fe94      1.0  0.84855  0.72934  0.57673  1.0000
  S   S189      1.0  0.83595  0.73862  0.52640  1.0000
  Fe  Fe95      1.0  0.85594  0.69641  0.63771  1.0000
  S   S190      1.0  0.86580  0.76292  0.59856  1.0000
  S   S191      1.0  0.87403  0.72805  0.66340  1.0000
  C   C669      1.0  0.96236  0.73937  0.62784  1.0000
  C   C670      1.0  0.98634  0.73909  0.61329  1.0000
  H   H795      1.0  0.54147  0.98411  0.67641  1.0000
  C   C671      1.0  0.98226  0.73331  0.67927  1.0000
  C   C672      1.0  0.96034  0.73616  0.66092  1.0000
  H   H796      1.0  0.98809  0.74158  0.58775  1.0000
  H   H797      1.0  0.94197  0.73654  0.67237  1.0000
  N   N45       1.0  0.51902  0.88467  0.67682  1.0000
  C   C673      1.0  0.62037  0.97790  0.75586  1.0000
  C   C674      1.0  0.68206  0.89457  0.52310  1.0000
  H   H798      1.0  0.74182  0.99234  0.74368  1.0000
  H   H799      1.0  0.52449  0.97588  0.82536  1.0000
  C   C675      1.0  0.74626  0.82274  0.64741  1.0000
  C   C676      1.0  0.75209  0.79938  0.63415  1.0000
  C   C677      1.0  0.77539  0.78720  0.63997  1.0000
  C   C678      1.0  0.79307  0.79809  0.65960  1.0000
  C   C679      1.0  0.78732  0.82150  0.67272  1.0000
  C   C680      1.0  0.76420  0.83391  0.66640  1.0000
  H   H800      1.0  0.73839  0.79056  0.61939  1.0000
  H   H801      1.0  0.77948  0.76927  0.62959  1.0000
  H   H802      1.0  0.80079  0.83007  0.68803  1.0000
  H   H803      1.0  0.76001  0.85178  0.67694  1.0000
  C   C681      1.0  0.72413  0.99328  0.60353  1.0000
  H   H804      1.0  0.77828  0.70191  0.77879  1.0000
  C   C682      1.0  0.66573  0.98108  0.76239  1.0000
  H   H805      1.0  0.78512  0.69411  0.66864  1.0000
  H   H806      1.0  0.78781  0.89263  0.53459  1.0000
  C   C683      1.0  0.56488  0.88162  0.76165  1.0000
  C   C684      1.0  0.58579  0.86818  0.75004  1.0000
  C   C685      1.0  0.60144  0.87872  0.72563  1.0000
  C   C686      1.0  0.59606  0.90270  0.71240  1.0000
  C   C687      1.0  0.57590  0.91654  0.72509  1.0000
  C   C688      1.0  0.56041  0.90613  0.74960  1.0000
  H   H807      1.0  0.58948  0.84924  0.75935  1.0000
  H   H808      1.0  0.61690  0.86782  0.71613  1.0000
  H   H809      1.0  0.57189  0.93527  0.71546  1.0000
  H   H810      1.0  0.54454  0.91680  0.75846  1.0000
  C   C689      1.0  0.95108  0.72432  0.52838  1.0000
  H   H811      1.0  0.55533  0.87333  0.69427  1.0000
  H   H812      1.0  0.74699  0.96669  0.63055  1.0000
  H   H813      1.0  0.98063  0.73143  0.70489  1.0000
  H   H814      1.0  0.67717  0.88639  0.54626  1.0000
  H   H815      1.0  0.69895  0.99497  0.54510  1.0000
  S   S192      1.0  0.51653  0.92357  0.83546  1.0000
  N   N46       1.0  0.79281  0.70980  0.71438  1.0000
  C   C690      1.0  0.77353  0.84468  0.54512  1.0000
  H   H816      1.0  0.71507  0.97797  0.59197  1.0000
  C   C691      1.0  0.91130  0.74507  0.52063  1.0000
  H   H817      1.0  0.68457  0.97252  0.75742  1.0000
  H   H818      1.0  0.75905  0.90744  0.54777  1.0000
  C   C692      1.0  0.71667  0.99076  0.70417  1.0000
  C   C693      1.0  0.51583  0.99431  0.82406  1.0000
  H   H819      1.0  0.56202  0.96126  0.78632  1.0000
  H   H820      1.0  0.50915  0.96672  0.71400  1.0000
  H   H821      1.0  0.66729  0.93295  0.74835  1.0000
  H   H822      1.0  0.64908  0.99062  0.70350  1.0000
  H   H823      1.0  0.64598  0.93627  0.78131  1.0000
  H   H824      1.0  0.90491  0.73636  0.54381  1.0000
  H   H825      1.0  0.66288  0.98070  0.78863  1.0000
  H   H826      1.0  0.95946  0.74216  0.53650  1.0000
  H   H827      1.0  0.51506  0.87975  0.72771  1.0000
  H   H828      1.0  0.50205  0.85465  0.70620  1.0000
  C   C694      1.0  0.79356  0.80723  0.52271  1.0000
  C   C695      1.0  0.52517  0.91192  0.67721  1.0000
  H   H829      1.0  0.78605  0.75005  0.71575  1.0000
  H   H830      1.0  0.53821  0.84845  0.67718  1.0000
  H   H831      1.0  0.81247  0.81379  0.59855  1.0000
  C   C696      1.0  0.51859  0.95442  0.69749  1.0000
  N   N47       1.0  0.75679  0.86711  0.54277  1.0000
  C   C697      1.0  0.77097  0.89012  0.55045  1.0000
  H   H832      1.0  0.91874  0.76409  0.52566  1.0000
  C   C698      1.0  0.74273  0.98645  0.62550  1.0000
  H   H833      1.0  0.78374  0.84975  0.59466  1.0000
  H   H834      1.0  0.72212  0.88007  0.56432  1.0000
  H   H835      1.0  0.60268  0.94275  0.77436  1.0000
  H   H836      1.0  0.56321  0.95605  0.63896  1.0000
  C   C699      1.0  0.57698  0.97323  0.77648  1.0000
  H   H837      1.0  0.79594  0.73585  0.75240  1.0000
  C   C700      1.0  0.78639  0.83865  0.57382  1.0000
  H   H838      1.0  0.67594  0.99237  0.57704  1.0000
  H   H839      1.0  0.77753  0.88960  0.57543  1.0000
  C   C701      1.0  0.54885  0.94848  0.65519  1.0000
  H   H840      1.0  0.76409  0.73104  0.73862  1.0000
  H   H841      1.0  0.69085  0.99568  0.66527  1.0000
  C   C702      1.0  0.81969  0.71345  0.70560  1.0000
  H   H842      1.0  0.82698  0.69831  0.69031  1.0000
  H   H843      1.0  0.77858  0.72688  0.67074  1.0000
  H   H844      1.0  0.75779  0.70434  0.69043  1.0000
  H   H845      1.0  0.55303  0.91155  0.63834  1.0000
  C   C703      1.0  0.64873  0.97051  0.71184  1.0000
  C   C704      1.0  0.78426  0.73253  0.73123  1.0000
  H   H846      1.0  0.82271  0.73169  0.69222  1.0000
  H   H847      1.0  0.85067  0.68572  0.52273  1.0000
  C   C705      1.0  0.80270  0.81792  0.57646  1.0000
  H   H848      1.0  0.81864  0.78596  0.55340  1.0000
  H   H849      1.0  0.83172  0.71350  0.72705  1.0000
  C   C706      1.0  0.79027  0.68592  0.73354  1.0000
  H   H850      1.0  0.96623  0.71216  0.51859  1.0000
  H   H851      1.0  0.66687  0.96205  0.70397  1.0000
  N   N48       1.0  0.64524  0.96741  0.74672  1.0000
  C   C707      1.0  0.78321  0.68514  0.76629  1.0000
  C   C708      1.0  0.64826  0.94011  0.75527  1.0000
  C   C709      1.0  0.77792  0.70865  0.68486  1.0000
  C   C710      1.0  0.73560  0.86393  0.56586  1.0000
  C   C711      1.0  0.53673  0.96426  0.67632  1.0000
  H   H852      1.0  0.74216  0.86278  0.59082  1.0000
  H   H853      1.0  0.51374  0.88564  0.62614  1.0000
  H   H854      1.0  0.72485  0.84634  0.56200  1.0000
  H   H855      1.0  0.63457  0.92841  0.74252  1.0000
  Fe  Fe96      1.0  0.51025  0.88799  0.80969  1.0000
  H   H856      1.0  0.55276  0.87178  0.65202  1.0000
  C   C712      1.0  0.50351  0.88025  0.64863  1.0000
  C   C713      1.0  0.60059  0.96280  0.76943  1.0000
  H   H857      1.0  0.94376  0.71419  0.55027  1.0000
  H   H858      1.0  0.86223  0.67152  0.71952  1.0000
  C   C714      1.0  0.54304  0.92277  0.65533  1.0000
  H   H859      1.0  0.63333  0.96110  0.69908  1.0000
  C   C715      1.0  0.80620  0.80220  0.55103  1.0000
  H   H860      1.0  0.91232  0.69453  0.51952  1.0000
  C   C716      1.0  0.77745  0.82816  0.51958  1.0000
  C   C717      1.0  0.51264  0.92875  0.69781  1.0000
  C   C718      1.0  0.50478  0.87547  0.70563  1.0000
  H   H861      1.0  0.73434  0.88919  0.50940  1.0000
  H   H862      1.0  0.76894  0.99933  0.65978  1.0000
  C   C719      1.0  0.74592  0.87162  0.51069  1.0000
  C   C720      1.0  0.57237  0.99884  0.77047  1.0000
  H   H863      1.0  0.66726  0.00110  0.75378  1.0000
  H   H864      1.0  0.52665  0.97085  0.00671  1.0000
