data_image0
_chemical_formula_structural       HCFe2S4FeCSHC2SHCSCFeHNCH3C2H7CHSHC2SH2CH2CHCHC3NH3C3HC2HNC4FeCH5CH4CH2CHCH3CH2C2H2C6HSH4CH2FeC2HCHC2SHCH2SHCH2CHC2HCH4SCHCHCH2CHC2H2C2HCH5CH5CH4C2HCHCHC2HSH2CHCNC4Fe2C2H2SH2CFeC2SHCH5CH2CH3NSCHCS2H2CHCHCHSHC2FeCSHCHCHCH2FeHCS2HCHCSHCS2FeCH2SC4H3CHCHCNCNHFeCS2CHC2HFeH2SC4NCH2C2H2CHCHCSC2H3C9H3CNCHCFeHSH7FeH3NC2HSH2C2HCH8CH2SHCH3SCHCHCH2CHCH3SH2CHCHNHCHCHFeHCHC4S2HSCHCH2C4HFe2H4C3H2SCSC2HC2FeC4SH2NHC3HCH2Fe2C2HC2SHNSCS2H5FeCH4CSHC2HCH3FeNFeCHCH2SCHCSH2CHSHCH2SFeCHC2SHC3HC2FeC5HNHSH2C3HSH2SHSCFeHC2SC5HC2NH3SFeCHCHCH3CSHC2HCH4SC2HCH3C2FeCH2SFeSHCHCHFeSHFeS2FeSFeHS3FeS2FeSHFeSFeSC4H3CH2SHCHSCH3C2HC6H4C4HC2HC3H3CHCHC2SC2HCH2CH3NCHC3HC2H4SHCHCH3CSH2CH2CH3CH2CH4CH2FeHNHCHC2HSHNCH2CHCH2C2H2C2H2C4HSHCH4CH2CH2C2H2NCHC3HC6H4C2HCHCHNHCH3CH3CH3CHNH6C4SCHCH2CH4CHCHCH2CH3CH2C2HCH2CH3CFeSCFeSFeHS2FeS2FeSFeSFeHSHFeS2FeHFeSFeS3FeS2FeC2HFeCS2HCH4CH3SH2C3HC8HCH2C3SC3NH2C6H4C3H2C2H2CNSHFeH4SHC2H3CHCNC9H14CSHC6H4C2H2CSC2H4C2HC2HCH2SH2C3NC9H14SCHSH2CHC6HSCHCHSC3SH5CH3SC2SNHC2HC2H4CSH3CHC2HCHCSCH3FeH2C2H2CSHC2H6CHCHFeS2HSFeSFeS3FeS2FeSHFeSFeSHSFeSCFeSHFeHFeSCSFeS2FeHSFeC2S2HCHC3H7CH6C4H3C6H4FeCHCH3C6HCH2C3H2C5NH2CHC2H2FeH4C2HCHC3HCNHCHCH2CSH2CNHCHCHSCHC6HCHNC2H3SHC3H2SNH5C2H2NC7HCHCH4CH4SHC2HC2H2C2H2CH2CH2NHCH7CH4CHC2FeSHCHCFeSHSHFeSHFeSCFeCFeSCSFeS2FeHSFeSFeHS2HCNSFeSHFeSC2SFeC3H2C4H3C3HC3H12C2H6C6H6C3H3CHC12H4CNHC2HCH2CH3CH2C3NCNC8H8CHCHCNHCHSHCHCHCH4CH6SHNSHSH5CHC2SHNH5SHCFeHCH3SH3CHCH2CH2CH4C2HNCSHC3HC6HCHCFeS2FeSHFeHFeS2FeS2C2FeSFeCSHFeS2FeHSHFeHS2FeS2FeSCFeSFeS2CH2C2H2C3HC6SH3CH4C2H2SCH2C7H8CHNH2SHCHCHCHCH2CHC2H3CSC2SC2SCH5NH2CHC3HCHCSHCH3C4H2CH2CHCHSCHC2H2CHCH2C2HC2H3CH3NC4NH2CHCH5C3H4C2H3C2H5C2H3CHC2H3CNFeCH4CH2SHC2SH2CHFeS2FeHCFeSFeS3HNSC2HCHC2FeS2FeSFeSFeCS2H3C2HCFeS2C2H2CHC3H6CHC3H2FeHC3SH2SC6H4CHC3SHC3HFeHCNC5H10NC2HCHC4H2NH3NH4C3H3CH2CHCHSHC3H2CHC2H5CH3FeCH3CHC2SH3CHCHC2H2CHCHC2HC4HSHC2H3CH2C3SCFeS2HCHFeHFeHS2CNH2CFeHCFeS2FeSHFeSFeS3CH4C2H2CHC2H2C2H2S2CHN2CNH3CH3SC5H2CHC2HC6HCH3CHCH3CH2C2HCH2FeH4SHCHC2HC2H2CHCH2C2H2SH2CH3SC2H3C2H3CHCH3CH5CH2CFeH2SC2NH2SC2HSCHC2SC2H2C2H2C5HC2H2CH3CFeS2FeSHFeSFeS3H3FeHSFeHSFeS2FeSCFeCFeSHSCHCFeHSFeS3H2CH2C3HCHSCSH4CS2C2H5C5SH2CH2CNH6CH2C6H4C3SCHC5H4C2H2C3HC2H2C2H2FeCHC3HCH3C3HC2HNHNCH2C2SCSCNCNC9H11CH3CSHC2SHNCFeCHCHC2HC2H6C3H2CHCHCHCHCHC2HCHC2H4CH2NC7HCH12CHCH3C2NHCH2CHC2HCHC2HC2HSFeSHFeH2FeHSHS2C4HNHS2FeCSH3FeS2H2C3HFeS2C2H2CSC3HC2HC3HSHCFeC3HFeHFeNSC3HC2H2CHC4SH2CH3CHCH2CHC5HCHCHCHNH3C2HCHCHCH3CHSH3CH2CNHCH6SH2CNC4H4CH2CHC3HC2HCHC2HFe2H2SC2HNHC8H2CHCH6C2H3FeC2HCHCSCSCHC3H4CFeSHSH2C2H2SHCH2C2HSH4NC2H2FeCFeH8S2CSC2HSFeC2SHCH7CH3CHCH3SCHNFeS2FeSCFeCFeS3HCSFeS2FeCFeSFeHS2H2CH2CHSCH2SCH2C2H2CHC2HFeNCH6FeC3H2CH3C6H4CHCHCHCHC2HCH5CHCHCH2S2C3HC3SHCH3C3HC3H2C2HC3SH2NC4H14CHSH3NHC4HNCH5C3H3CHCH2CHCHC2H2CH4NCHC4HSH6CHSC3H2C3H2C2H3CNC2H2CHCHCH5CH2CH3CHC2H2SCHCH2SC3H3FeSCFeSCFe2S2FeSHFeS2FeS2FeSFeHS2HFeHSNSC3HSCH5SHCH3FeC2H3C11HCH2CH2CH2C2H3CHNSC3H3C6H5C2SCHC3HCH3SHCHCH2CHSCHSNHCHC2HC2HCH5CFeHSH2CH3CHCHC2H3C2H3C6H2CHCHCH2C2SCSC7HCH2CFeCSHCHC2SH2NH5C4NCSHCSHCH4C5HC2HCH3CHCH3C4HCHCHNH3CH5CH2C2SCNH2CH4FeH2C2HSH3FeCH3C3HCSCH2CNHCHFeS2FeSHFeCFeS2HFeS2FeSCFeSFeS3H2C3H2C6H5CH2C2HSC2HCHCH7C2HCHCH2CHCH4NCNH2SH2CH4CH2NH3CHNC9H13CHCH5C2S2CHC2H3C4H2CSHFeSHFeSHSFeSH2CS2HCNCH2CH2C2HC4HC2H2C2FeHC2HCHNHC2H4C2HCSCH2C2H3CNSCH3NH3C2SH13CHFeNC10HCH3C2SC3HC3HCHCHC2H2CH3CHCSCH3Fe
_chemical_formula_sum              "H1728 C1440 Fe192 S384 N96"
_cell_length_a       78.6344
_cell_length_b       77.7096
_cell_length_c       37.4248
_cell_angle_alpha    88.8539
_cell_angle_beta     88.638
_cell_angle_gamma    111.204

_space_group_name_H-M_alt    "P 1"
_space_group_IT_number       1

loop_
  _space_group_symop_operation_xyz
  'x, y, z'

loop_
  _atom_site_type_symbol
  _atom_site_label
  _atom_site_symmetry_multiplicity
  _atom_site_fract_x
  _atom_site_fract_y
  _atom_site_fract_z
  _atom_site_occupancy
  H   H1        1.0  0.36870  0.11982  0.49858  1.0000
  C   C1        1.0  0.28899  0.01590  0.02178  1.0000
  Fe  Fe1       1.0  0.47995  0.18870  0.12010  1.0000
  Fe  Fe2       1.0  0.45577  0.17447  0.43306  1.0000
  S   S1        1.0  0.46093  0.20029  0.39950  1.0000
  S   S2        1.0  0.42594  0.15539  0.43327  1.0000
  S   S3        1.0  0.46680  0.17608  0.17429  1.0000
  S   S4        1.0  0.32279  0.20578  0.06327  1.0000
  Fe  Fe3       1.0  0.47064  0.18695  0.04055  1.0000
  C   C2        1.0  0.32783  0.16974  0.23900  1.0000
  S   S5        1.0  0.46635  0.20375  0.08561  1.0000
  H   H2        1.0  0.44318  0.15656  0.11068  1.0000
  C   C3        1.0  0.36033  0.19242  0.42605  1.0000
  C   C4        1.0  0.45616  0.12470  0.06795  1.0000
  S   S6        1.0  0.48102  0.17046  0.41091  1.0000
  H   H3        1.0  0.42442  0.16416  0.05583  1.0000
  C   C5        1.0  0.31719  0.18860  0.03002  1.0000
  S   S7        1.0  0.36739  0.12239  0.00672  1.0000
  C   C6        1.0  0.32032  0.17212  0.03699  1.0000
  Fe  Fe4       1.0  0.47605  0.21497  0.44653  1.0000
  H   H4        1.0  0.32607  0.17024  0.06205  1.0000
  N   N1        1.0  0.41105  0.20960  0.39792  1.0000
  C   C7        1.0  0.46615  0.17698  0.24801  1.0000
  H   H5        1.0  0.46541  0.17713  0.30595  1.0000
  H   H6        1.0  0.45270  0.16644  0.24664  1.0000
  H   H7        1.0  0.32254  0.15482  0.24232  1.0000
  C   C8        1.0  0.31428  0.17912  0.47595  1.0000
  C   C9        1.0  0.31607  0.15798  0.01184  1.0000
  H   H8        1.0  0.34565  0.22300  0.22892  1.0000
  H   H9        1.0  0.35617  0.18671  0.14193  1.0000
  H   H10       1.0  0.40143  0.17667  0.43614  1.0000
  H   H11       1.0  0.33279  0.22615  0.17336  1.0000
  H   H12       1.0  0.40200  0.22336  0.35579  1.0000
  H   H13       1.0  0.45782  0.11839  0.14231  1.0000
  H   H14       1.0  0.43839  0.22414  0.41550  1.0000
  C   C10       1.0  0.34099  0.20812  0.23074  1.0000
  H   H15       1.0  0.38751  0.13673  0.44573  1.0000
  S   S8        1.0  0.35321  0.23753  0.41311  1.0000
  H   H16       1.0  0.45147  0.13334  0.17133  1.0000
  C   C11       1.0  0.27046  0.00564  0.02714  1.0000
  C   C12       1.0  0.45801  0.12229  0.03130  1.0000
  S   S9        1.0  0.48225  0.17035  0.07562  1.0000
  H   H17       1.0  0.30945  0.18567  0.45475  1.0000
  H   H18       1.0  0.39174  0.14325  0.05905  1.0000
  C   C13       1.0  0.33495  0.19972  0.26439  1.0000
  H   H19       1.0  0.33298  0.18395  0.13061  1.0000
  H   H20       1.0  0.31863  0.14544  0.01762  1.0000
  C   C14       1.0  0.42429  0.11999  0.06061  1.0000
  H   H21       1.0  0.36518  0.23295  0.18301  1.0000
  C   C15       1.0  0.42197  0.11186  0.13917  1.0000
  H   H22       1.0  0.26089  0.01273  0.02962  1.0000
  C   C16       1.0  0.37316  0.17042  0.44721  1.0000
  C   C17       1.0  0.40237  0.09236  0.48324  1.0000
  C   C18       1.0  0.39288  0.19839  0.41391  1.0000
  N   N2        1.0  0.43699  0.12763  0.12183  1.0000
  H   H23       1.0  0.40657  0.19284  0.35143  1.0000
  H   H24       1.0  0.46834  0.12764  0.08313  1.0000
  H   H25       1.0  0.34860  0.19655  0.42371  1.0000
  C   C19       1.0  0.43923  0.12391  0.08366  1.0000
  C   C20       1.0  0.45401  0.24188  0.00867  1.0000
  C   C21       1.0  0.43240  0.14449  0.12431  1.0000
  H   H26       1.0  0.42444  0.09873  0.13592  1.0000
  C   C22       1.0  0.47332  0.18304  0.28171  1.0000
  C   C23       1.0  0.39017  0.13833  0.00253  1.0000
  H   H27       1.0  0.29963  0.15141  0.45866  1.0000
  N   N3        1.0  0.34633  0.20686  0.16444  1.0000
  C   C24       1.0  0.36483  0.22137  0.16567  1.0000
  C   C25       1.0  0.34684  0.19415  0.13563  1.0000
  C   C26       1.0  0.33327  0.21568  0.15415  1.0000
  C   C27       1.0  0.34062  0.19757  0.20002  1.0000
  Fe  Fe5       1.0  0.33327  0.23578  0.45805  1.0000
  C   C28       1.0  0.33376  0.17803  0.20512  1.0000
  H   H28       1.0  0.41904  0.18638  0.38540  1.0000
  H   H29       1.0  0.41103  0.11938  0.07035  1.0000
  H   H30       1.0  0.43131  0.14830  0.15261  1.0000
  H   H31       1.0  0.37490  0.21558  0.17571  1.0000
  H   H32       1.0  0.36977  0.22802  0.13883  1.0000
  C   C29       1.0  0.37283  0.06782  0.49843  1.0000
  H   H33       1.0  0.34505  0.16716  0.45515  1.0000
  H   H34       1.0  0.38018  0.18297  0.01677  1.0000
  H   H35       1.0  0.40848  0.10995  0.12791  1.0000
  H   H36       1.0  0.31554  0.01502  0.01102  1.0000
  C   C30       1.0  0.42625  0.11746  0.02409  1.0000
  H   H37       1.0  0.43013  0.20659  0.35819  1.0000
  H   H38       1.0  0.39086  0.23557  0.46100  1.0000
  C   C31       1.0  0.39592  0.09586  0.45063  1.0000
  H   H39       1.0  0.33262  0.16882  0.18333  1.0000
  C   C32       1.0  0.37735  0.20357  0.41108  1.0000
  H   H40       1.0  0.42056  0.11385  0.16834  1.0000
  H   H41       1.0  0.33511  0.20815  0.28728  1.0000
  H   H42       1.0  0.30956  0.23674  0.25484  1.0000
  C   C33       1.0  0.41761  0.15818  0.03184  1.0000
  H   H43       1.0  0.33711  0.22297  0.12771  1.0000
  H   H44       1.0  0.23157  0.23485  0.11294  1.0000
  C   C34       1.0  0.39911  0.14640  0.03352  1.0000
  C   C35       1.0  0.41145  0.22664  0.37848  1.0000
  H   H45       1.0  0.35167  0.20174  0.10952  1.0000
  H   H46       1.0  0.42629  0.20346  0.44074  1.0000
  C   C36       1.0  0.32840  0.18056  0.26854  1.0000
  C   C37       1.0  0.36657  0.07192  0.46509  1.0000
  C   C38       1.0  0.35825  0.17587  0.44391  1.0000
  C   C39       1.0  0.39026  0.18150  0.43267  1.0000
  C   C40       1.0  0.42423  0.24378  0.01892  1.0000
  C   C41       1.0  0.41308  0.14444  0.47233  1.0000
  H   H47       1.0  0.37141  0.15754  0.46129  1.0000
  S   S10       1.0  0.46979  0.18933  0.48088  1.0000
  H   H48       1.0  0.37792  0.21612  0.39733  1.0000
  H   H49       1.0  0.32357  0.17411  0.29465  1.0000
  H   H50       1.0  0.41926  0.14290  0.11184  1.0000
  H   H51       1.0  0.29376  0.03087  0.02014  1.0000
  C   C42       1.0  0.47625  0.18444  0.21614  1.0000
  H   H52       1.0  0.34279  0.03631  0.48539  1.0000
  H   H53       1.0  0.35282  0.06482  0.45665  1.0000
  Fe  Fe6       1.0  0.32764  0.23686  0.06536  1.0000
  C   C43       1.0  0.30867  0.15965  0.47831  1.0000
  C   C44       1.0  0.41691  0.19838  0.37216  1.0000
  H   H54       1.0  0.37297  0.08884  0.41660  1.0000
  C   C45       1.0  0.45361  0.13060  0.14276  1.0000
  H   H55       1.0  0.46525  0.14300  0.13274  1.0000
  C   C46       1.0  0.38143  0.23378  0.48456  1.0000
  C   C47       1.0  0.37804  0.08574  0.44166  1.0000
  S   S11       1.0  0.32418  0.23701  0.32435  1.0000
  H   H56       1.0  0.47118  0.12353  0.01966  1.0000
  C   C48       1.0  0.39401  0.13613  0.47062  1.0000
  H   H57       1.0  0.40466  0.10684  0.43277  1.0000
  H   H58       1.0  0.31917  0.20533  0.15234  1.0000
  S   S12       1.0  0.31394  0.24328  0.42221  1.0000
  H   H59       1.0  0.36975  0.22053  0.48216  1.0000
  C   C49       1.0  0.44312  0.11880  0.00939  1.0000
  H   H60       1.0  0.42059  0.22364  0.44655  1.0000
  H   H61       1.0  0.41473  0.11499  0.00690  1.0000
  C   C50       1.0  0.32402  0.24482  0.25263  1.0000
  H   H62       1.0  0.36177  0.16278  0.00359  1.0000
  C   C51       1.0  0.42458  0.21538  0.42641  1.0000
  C   C52       1.0  0.30124  0.00691  0.01655  1.0000
  H   H63       1.0  0.35702  0.18222  0.01818  1.0000
  C   C53       1.0  0.41653  0.22452  0.02250  1.0000
  H   H64       1.0  0.40200  0.21780  0.02790  1.0000
  H   H65       1.0  0.42158  0.19900  0.02132  1.0000
  H   H66       1.0  0.41606  0.10077  0.49068  1.0000
  H   H67       1.0  0.20424  0.23311  0.14933  1.0000
  S   S13       1.0  0.46672  0.23656  0.47061  1.0000
  C   C54       1.0  0.44614  0.22262  0.01179  1.0000
  H   H68       1.0  0.45461  0.21435  0.00880  1.0000
  C   C55       1.0  0.42747  0.21395  0.01881  1.0000
  H   H69       1.0  0.40788  0.23614  0.39657  1.0000
  C   C56       1.0  0.36709  0.17822  0.00256  1.0000
  H   H70       1.0  0.42532  0.23472  0.36686  1.0000
  H   H71       1.0  0.37566  0.24491  0.48245  1.0000
  C   C57       1.0  0.24968  0.00433  0.94344  1.0000
  H   H72       1.0  0.26004  0.03406  0.94923  1.0000
  C   C58       1.0  0.26355  0.02212  0.94369  1.0000
  C   C59       1.0  0.26566  0.99996  0.71927  1.0000
  H   H73       1.0  0.27014  0.00401  0.74604  1.0000
  H   H74       1.0  0.23563  0.00289  0.94866  1.0000
  C   C60       1.0  0.27181  0.01273  0.69075  1.0000
  C   C61       1.0  0.26610  0.00753  0.65635  1.0000
  H   H75       1.0  0.28107  0.02669  0.69517  1.0000
  C   C62       1.0  0.39272  0.18627  0.52354  1.0000
  H   H76       1.0  0.26842  0.13793  0.65478  1.0000
  H   H77       1.0  0.26700  0.02578  0.53920  1.0000
  H   H78       1.0  0.27107  0.01745  0.63410  1.0000
  H   H79       1.0  0.41639  0.17859  0.52444  1.0000
  H   H80       1.0  0.30023  0.99779  0.58293  1.0000
  C   C63       1.0  0.26254  0.00559  0.84892  1.0000
  H   H81       1.0  0.30687  0.20313  0.99185  1.0000
  H   H82       1.0  0.37161  0.19722  0.52057  1.0000
  H   H83       1.0  0.27474  0.12244  0.60121  1.0000
  H   H84       1.0  0.28377  0.12928  0.67754  1.0000
  H   H85       1.0  0.29068  0.11579  0.62532  1.0000
  C   C64       1.0  0.26904  0.01317  0.54671  1.0000
  H   H86       1.0  0.28108  0.17195  0.52493  1.0000
  H   H87       1.0  0.35460  0.07300  0.55430  1.0000
  H   H88       1.0  0.24924  0.00255  0.86191  1.0000
  H   H89       1.0  0.31050  0.01527  0.80602  1.0000
  C   C65       1.0  0.36986  0.03926  0.52994  1.0000
  C   C66       1.0  0.35938  0.06133  0.55843  1.0000
  H   H90       1.0  0.33091  0.15510  0.55242  1.0000
  C   C67       1.0  0.39104  0.07862  0.50689  1.0000
  H   H91       1.0  0.31816  0.04312  0.77578  1.0000
  C   C68       1.0  0.28928  0.12722  0.60876  1.0000
  H   H92       1.0  0.28205  0.14544  0.55833  1.0000
  C   C69       1.0  0.28634  0.15840  0.57190  1.0000
  C   C70       1.0  0.28568  0.17361  0.55219  1.0000
  H   H93       1.0  0.29798  0.12867  0.58415  1.0000
  S   S14       1.0  0.29553  0.08517  0.58486  1.0000
  H   H94       1.0  0.30003  0.00989  0.92566  1.0000
  H   H95       1.0  0.33429  0.03204  0.53053  1.0000
  C   C71       1.0  0.28297  0.14119  0.66135  1.0000
  H   H96       1.0  0.28702  0.15320  0.67911  1.0000
  C   C72       1.0  0.27482  0.02385  0.84539  1.0000
  N   N4        1.0  0.29471  0.14472  0.62837  1.0000
  C   C73       1.0  0.29304  0.16030  0.60717  1.0000
  C   C74       1.0  0.39905  0.23624  0.94263  1.0000
  C   C75       1.0  0.38622  0.20080  0.52146  1.0000
  C   C76       1.0  0.34362  0.10353  0.75471  1.0000
  Fe  Fe7       1.0  0.34808  0.10142  0.57366  1.0000
  Fe  Fe8       1.0  0.34692  0.11126  0.96256  1.0000
  C   C77       1.0  0.39317  0.21693  0.94444  1.0000
  C   C78       1.0  0.38929  0.24536  0.96083  1.0000
  H   H97       1.0  0.27016  0.03424  0.85608  1.0000
  H   H98       1.0  0.34137  0.10080  0.69739  1.0000
  S   S15       1.0  0.30526  0.10122  0.68147  1.0000
  H   H99       1.0  0.37248  0.06702  0.57240  1.0000
  H   H100      1.0  0.34492  0.16410  0.94996  1.0000
  C   C79       1.0  0.29718  0.01308  0.81785  1.0000
  Fe  Fe9       1.0  0.33523  0.10649  0.88378  1.0000
  C   C80       1.0  0.29170  0.19107  0.56670  1.0000
  C   C81       1.0  0.31147  0.05210  0.78780  1.0000
  S   S16       1.0  0.30392  0.03569  0.56887  1.0000
  H   H101      1.0  0.34220  0.18514  0.96029  1.0000
  C   C82       1.0  0.41076  0.13320  0.53406  1.0000
  H   H102      1.0  0.34938  0.05113  0.57726  1.0000
  H   H103      1.0  0.38334  0.04529  0.54242  1.0000
  H   H104      1.0  0.29179  0.20290  0.55070  1.0000
  H   H105      1.0  0.39654  0.07680  0.53226  1.0000
  H   H106      1.0  0.40128  0.21076  0.92943  1.0000
  C   C83       1.0  0.35183  0.17936  0.94786  1.0000
  H   H107      1.0  0.31848  0.16091  0.65745  1.0000
  H   H108      1.0  0.31601  0.13749  0.65261  1.0000
  C   C84       1.0  0.37374  0.23525  0.98129  1.0000
  H   H109      1.0  0.42765  0.23649  0.51879  1.0000
  H   H110      1.0  0.38404  0.23196  0.57480  1.0000
  H   H111      1.0  0.36605  0.24244  0.99501  1.0000
  N   N5        1.0  0.36973  0.18570  0.96517  1.0000
  S   S17       1.0  0.30026  0.04634  0.93985  1.0000
  C   C85       1.0  0.32266  0.04880  0.84607  1.0000
  H   H112      1.0  0.35325  0.18354  0.91900  1.0000
  C   C86       1.0  0.30952  0.19065  0.99759  1.0000
  S   S18       1.0  0.30619  0.12612  0.50900  1.0000
  S   S19       1.0  0.30548  0.09699  0.89926  1.0000
  H   H113      1.0  0.30265  0.20699  0.61254  1.0000
  H   H114      1.0  0.30357  0.18067  0.64828  1.0000
  C   C87       1.0  0.29797  0.19335  0.60141  1.0000
  H   H115      1.0  0.32337  0.15326  0.61482  1.0000
  C   C88       1.0  0.29853  0.17821  0.62154  1.0000
  H   H116      1.0  0.33478  0.05256  0.50799  1.0000
  C   C89       1.0  0.31394  0.14935  0.63871  1.0000
  H   H117      1.0  0.28720  0.06167  0.82519  1.0000
  S   S20       1.0  0.37903  0.11103  0.56918  1.0000
  H   H118      1.0  0.32996  0.04016  0.83502  1.0000
  C   C90       1.0  0.39829  0.21953  0.52025  1.0000
  C   C91       1.0  0.39976  0.14258  0.96963  1.0000
  Fe  Fe10      1.0  0.31169  0.07848  0.94033  1.0000
  C   C92       1.0  0.33464  0.10215  0.72216  1.0000
  S   S21       1.0  0.34680  0.10630  0.82745  1.0000
  H   H119      1.0  0.39532  0.18156  0.95784  1.0000
  C   C93       1.0  0.31448  0.15076  0.50605  1.0000
  H   H120      1.0  0.33271  0.06329  0.84556  1.0000
  C   C94       1.0  0.28597  0.00846  0.93060  1.0000
  H   H121      1.0  0.36528  0.22004  0.54691  1.0000
  C   C95       1.0  0.31750  0.10579  0.78676  1.0000
  H   H122      1.0  0.32144  0.06652  0.78420  1.0000
  H   H123      1.0  0.39309  0.13640  0.94561  1.0000
  Fe  Fe11      1.0  0.31414  0.11963  0.94011  1.0000
  H   H124      1.0  0.36124  0.02776  0.54825  1.0000
  C   C96       1.0  0.34255  0.04316  0.51111  1.0000
  S   S22       1.0  0.34341  0.13050  0.92055  1.0000
  S   S23       1.0  0.33110  0.21436  0.50300  1.0000
  H   H125      1.0  0.35725  0.10317  0.75476  1.0000
  C   C97       1.0  0.28551  0.01415  0.56174  1.0000
  H   H126      1.0  0.29843  0.17782  0.94827  1.0000
  C   C98       1.0  0.41826  0.15435  0.96796  1.0000
  S   S24       1.0  0.34161  0.08808  0.92419  1.0000
  H   H127      1.0  0.29493  0.10487  0.75414  1.0000
  C   C99       1.0  0.30469  0.17622  0.97293  1.0000
  S   S25       1.0  0.30205  0.14221  0.94738  1.0000
  S   S26       1.0  0.33199  0.07908  0.61381  1.0000
  Fe  Fe12      1.0  0.31475  0.10771  0.54789  1.0000
  C   C100      1.0  0.30852  0.10444  0.75419  1.0000
  H   H128      1.0  0.42568  0.15726  0.94247  1.0000
  H   H129      1.0  0.31906  0.04449  0.87468  1.0000
  S   S27       1.0  0.31756  0.10033  0.98274  1.0000
  C   C101      1.0  0.28189  0.02433  0.93776  1.0000
  C   C102      1.0  0.39170  0.12469  0.53221  1.0000
  C   C103      1.0  0.38158  0.17744  0.94608  1.0000
  C   C104      1.0  0.37715  0.20616  0.96465  1.0000
  H   H130      1.0  0.38317  0.18123  0.91703  1.0000
  H   H131      1.0  0.37565  0.16204  0.94780  1.0000
  H   H132      1.0  0.31083  0.10730  0.81148  1.0000
  C   C105      1.0  0.30802  0.15982  0.97974  1.0000
  H   H133      1.0  0.29550  0.05896  0.86896  1.0000
  C   C106      1.0  0.29922  0.06137  0.83991  1.0000
  H   H134      1.0  0.29941  0.05105  0.77174  1.0000
  C   C107      1.0  0.29261  0.02816  0.82975  1.0000
  N   N6        1.0  0.39101  0.23465  0.51846  1.0000
  C   C108      1.0  0.36771  0.21597  0.98326  1.0000
  N   N7        1.0  0.30612  0.04728  0.82605  1.0000
  H   H135      1.0  0.41735  0.13184  0.55845  1.0000
  Fe  Fe13      1.0  0.31193  0.06758  0.57015  1.0000
  C   C109      1.0  0.31705  0.10264  0.72175  1.0000
  S   S28       1.0  0.32937  0.08906  0.52900  1.0000
  S   S29       1.0  0.33429  0.12082  0.59068  1.0000
  C   C110      1.0  0.32616  0.16166  0.53121  1.0000
  H   H136      1.0  0.30978  0.07551  0.83710  1.0000
  C   C111      1.0  0.33512  0.10535  0.78715  1.0000
  C   C112      1.0  0.33126  0.18106  0.52957  1.0000
  H   H137      1.0  0.33956  0.18917  0.55025  1.0000
  Fe  Fe14      1.0  0.31642  0.09734  0.62664  1.0000
  H   H138      1.0  0.43824  0.21091  0.52124  1.0000
  H   H139      1.0  0.43608  0.14938  0.50598  1.0000
  S   S30       1.0  0.45083  0.17599  0.99558  1.0000
  C   C113      1.0  0.41731  0.22278  0.52034  1.0000
  C   C114      1.0  0.42141  0.14317  0.50437  1.0000
  C   C115      1.0  0.37778  0.23261  0.54869  1.0000
  C   C116      1.0  0.32538  0.18996  0.50196  1.0000
  N   N8        1.0  0.36124  0.05313  0.52379  1.0000
  C   C117      1.0  0.25526  0.99581  0.54057  1.0000
  H   H140      1.0  0.44471  0.11737  0.98088  1.0000
  H   H141      1.0  0.41113  0.24418  0.92663  1.0000
  C   C118      1.0  0.41141  0.18991  0.52340  1.0000
  C   C119      1.0  0.42366  0.20811  0.52172  1.0000
  H   H142      1.0  0.37199  0.03317  0.50430  1.0000
  H   H143      1.0  0.38324  0.17205  0.52488  1.0000
  C   C120      1.0  0.28767  0.99738  0.57116  1.0000
  H   H144      1.0  0.37278  0.24433  0.54907  1.0000
  C   C121      1.0  0.42736  0.16193  0.99909  1.0000
  H   H145      1.0  0.35520  0.20882  0.99867  1.0000
  C   C122      1.0  0.38333  0.12648  0.50051  1.0000
  S   S31       1.0  0.11238  0.46841  0.44246  1.0000
  C   C123      1.0  0.15170  0.34553  0.46166  1.0000
  C   C124      1.0  0.13271  0.34172  0.46482  1.0000
  H   H146      1.0  0.15753  0.34209  0.43760  1.0000
  H   H147      1.0  0.12411  0.33538  0.44295  1.0000
  H   H148      1.0  0.29149  0.35354  0.01547  1.0000
  C   C125      1.0  0.09535  0.37768  0.08946  1.0000
  C   C126      1.0  0.12496  0.38533  0.05904  1.0000
  C   C127      1.0  0.13999  0.37926  0.06010  1.0000
  C   C128      1.0  0.12916  0.40469  0.05594  1.0000
  C   C129      1.0  0.15798  0.39188  0.05940  1.0000
  C   C130      1.0  0.14719  0.41718  0.05541  1.0000
  C   C131      1.0  0.16156  0.41079  0.05746  1.0000
  C   C132      1.0  0.47129  0.28115  0.00599  1.0000
  C   C133      1.0  0.29229  0.44013  0.48375  1.0000
  H   H149      1.0  0.13828  0.36483  0.06119  1.0000
  H   H150      1.0  0.11852  0.41038  0.05383  1.0000
  H   H151      1.0  0.08250  0.43433  0.45754  1.0000
  C   C134      1.0  0.44326  0.25309  0.01231  1.0000
  N   N9        1.0  0.10571  0.37244  0.06063  1.0000
  C   C135      1.0  0.10357  0.35286  0.06760  1.0000
  H   H152      1.0  0.48268  0.38498  0.06645  1.0000
  C   C136      1.0  0.09726  0.37346  0.02614  1.0000
  Fe  Fe15      1.0  0.20533  0.36426  0.03800  1.0000
  H   H153      1.0  0.48001  0.40514  0.04707  1.0000
  S   S32       1.0  0.20766  0.33909  0.06566  1.0000
  H   H154      1.0  0.17552  0.42047  0.05746  1.0000
  H   H155      1.0  0.35779  0.38997  0.01087  1.0000
  H   H156      1.0  0.10537  0.45528  0.05204  1.0000
  H   H157      1.0  0.14993  0.43190  0.05347  1.0000
  H   H158      1.0  0.08271  0.36412  0.02637  1.0000
  H   H159      1.0  0.09741  0.38751  0.01993  1.0000
  H   H160      1.0  0.10450  0.36959  0.00363  1.0000
  Fe  Fe16      1.0  0.20995  0.35805  0.44839  1.0000
  H   H161      1.0  0.29967  0.25541  0.30515  1.0000
  H   H162      1.0  0.18097  0.46184  0.05677  1.0000
  H   H163      1.0  0.47683  0.29655  0.00425  1.0000
  N   N10       1.0  0.29815  0.39067  0.01611  1.0000
  C   C137      1.0  0.20539  0.45413  0.01488  1.0000
  C   C138      1.0  0.10542  0.44543  0.03204  1.0000
  H   H164      1.0  0.10979  0.34750  0.04551  1.0000
  S   S33       1.0  0.20633  0.34298  0.16765  1.0000
  H   H165      1.0  0.28036  0.26249  0.30472  1.0000
  H   H166      1.0  0.27969  0.37017  0.05281  1.0000
  C   C139      1.0  0.15070  0.43871  0.46965  1.0000
  C   C140      1.0  0.15021  0.42094  0.48107  1.0000
  H   H167      1.0  0.30503  0.43810  0.47863  1.0000
  C   C141      1.0  0.48214  0.39212  0.04072  1.0000
  H   H168      1.0  0.33011  0.27835  0.32133  1.0000
  H   H169      1.0  0.10215  0.37864  0.11550  1.0000
  H   H170      1.0  0.28495  0.28867  0.02033  1.0000
  H   H171      1.0  0.41513  0.25136  0.02112  1.0000
  H   H172      1.0  0.28447  0.29516  0.30726  1.0000
  H   H173      1.0  0.20512  0.28746  0.19201  1.0000
  H   H174      1.0  0.18854  0.28373  0.13623  1.0000
  H   H175      1.0  0.21511  0.31180  0.18609  1.0000
  C   C142      1.0  0.21687  0.29868  0.17891  1.0000
  H   H176      1.0  0.29220  0.48061  0.00852  1.0000
  H   H177      1.0  0.43045  0.27966  0.03955  1.0000
  S   S34       1.0  0.46038  0.33333  0.00047  1.0000
  H   H178      1.0  0.33318  0.30258  0.32379  1.0000
  C   C143      1.0  0.10772  0.45236  0.47894  1.0000
  H   H179      1.0  0.31997  0.28637  0.35736  1.0000
  H   H180      1.0  0.16925  0.38694  0.06015  1.0000
  H   H181      1.0  0.19705  0.30821  0.12984  1.0000
  S   S35       1.0  0.21173  0.34014  0.40233  1.0000
  C   C144      1.0  0.21577  0.48682  0.99950  1.0000
  H   H182      1.0  0.27310  0.34811  0.45947  1.0000
  C   C145      1.0  0.33689  0.36295  0.01272  1.0000
  H   H183      1.0  0.20013  0.32784  0.23961  1.0000
  C   C146      1.0  0.20869  0.34226  0.24091  1.0000
  H   H184      1.0  0.46857  0.24760  0.00348  1.0000
  H   H185      1.0  0.20983  0.34151  0.29872  1.0000
  C   C147      1.0  0.28767  0.38527  0.05056  1.0000
  H   H186      1.0  0.13961  0.44075  0.45591  1.0000
  C   C148      1.0  0.28780  0.48895  0.38348  1.0000
  H   H187      1.0  0.44849  0.27669  0.06481  1.0000
  H   H188      1.0  0.22957  0.29866  0.19142  1.0000
  H   H189      1.0  0.22129  0.41193  0.02576  1.0000
  S   S36       1.0  0.31828  0.24925  0.11287  1.0000
  H   H190      1.0  0.22132  0.48702  0.40840  1.0000
  H   H191      1.0  0.25247  0.26496  0.08767  1.0000
  C   C149      1.0  0.21906  0.45425  0.03913  1.0000
  H   H192      1.0  0.28188  0.28014  0.25401  1.0000
  C   C150      1.0  0.21416  0.34997  0.27448  1.0000
  H   H193      1.0  0.12423  0.31952  0.00557  1.0000
  N   N11       1.0  0.45104  0.27348  0.00816  1.0000
  H   H194      1.0  0.07651  0.42969  0.03836  1.0000
  C   C151      1.0  0.19279  0.47399  0.04644  1.0000
  H   H195      1.0  0.29685  0.38891  0.07364  1.0000
  C   C152      1.0  0.15062  0.34159  0.00517  1.0000
  H   H196      1.0  0.22561  0.46608  0.05527  1.0000
  Fe  Fe17      1.0  0.33539  0.24733  0.37845  1.0000
  H   H197      1.0  0.28259  0.42511  0.36254  1.0000
  C   C153      1.0  0.27012  0.45678  0.39728  1.0000
  H   H198      1.0  0.29196  0.26291  0.34530  1.0000
  C   C154      1.0  0.08907  0.43089  0.02424  1.0000
  C   C155      1.0  0.98689  0.32909  0.47263  1.0000
  C   C156      1.0  0.28740  0.48519  0.34720  1.0000
  C   C157      1.0  0.16571  0.45468  0.47618  1.0000
  S   S37       1.0  0.23116  0.37958  0.31807  1.0000
  S   S38       1.0  0.34728  0.26551  0.47371  1.0000
  H   H199      1.0  0.28768  0.28347  0.18908  1.0000
  S   S39       1.0  0.23518  0.35612  0.47355  1.0000
  C   C158      1.0  0.28545  0.36069  0.46280  1.0000
  H   H200      1.0  0.12877  0.37776  0.44943  1.0000
  C   C159      1.0  0.28478  0.46611  0.00430  1.0000
  H   H201      1.0  0.00152  0.33289  0.47484  1.0000
  H   H202      1.0  0.24644  0.29278  0.09754  1.0000
  C   C160      1.0  0.34322  0.38219  0.01182  1.0000
  C   C161      1.0  0.29895  0.28604  0.20693  1.0000
  C   C162      1.0  0.21401  0.35314  0.20917  1.0000
  C   C163      1.0  0.26760  0.42057  0.36778  1.0000
  H   H203      1.0  0.14748  0.39685  0.42961  1.0000
  Fe  Fe18      1.0  0.22947  0.36686  0.37411  1.0000
  Fe  Fe19      1.0  0.36682  0.26720  0.42810  1.0000
  H   H204      1.0  0.09066  0.49448  0.48800  1.0000
  H   H205      1.0  0.43609  0.28946  0.44627  1.0000
  H   H206      1.0  0.08113  0.36752  0.09296  1.0000
  H   H207      1.0  0.29575  0.41755  0.01578  1.0000
  C   C164      1.0  0.33088  0.39145  0.01248  1.0000
  C   C165      1.0  0.31037  0.28717  0.26785  1.0000
  C   C166      1.0  0.22464  0.43918  0.04295  1.0000
  H   H208      1.0  0.31158  0.32889  0.40905  1.0000
  H   H209      1.0  0.24643  0.41766  0.47908  1.0000
  S   S40       1.0  0.21265  0.38146  0.08709  1.0000
  C   C167      1.0  0.16569  0.42026  0.49903  1.0000
  S   S41       1.0  0.22606  0.38473  0.41850  1.0000
  C   C168      1.0  0.20019  0.29558  0.12454  1.0000
  C   C169      1.0  0.30581  0.36197  0.01440  1.0000
  H   H210      1.0  0.20039  0.29405  0.09501  1.0000
  C   C170      1.0  0.33458  0.24773  0.28324  1.0000
  C   C171      1.0  0.25960  0.44560  0.49666  1.0000
  Fe  Fe20      1.0  0.34779  0.26565  0.12022  1.0000
  C   C172      1.0  0.29408  0.26562  0.31584  1.0000
  C   C173      1.0  0.40694  0.30505  0.02818  1.0000
  C   C174      1.0  0.11971  0.40667  0.45497  1.0000
  C   C175      1.0  0.28819  0.30159  0.07127  1.0000
  S   S42       1.0  0.35091  0.27710  0.38869  1.0000
  H   H211      1.0  0.08894  0.34359  0.06930  1.0000
  H   H212      1.0  0.26522  0.41977  0.39724  1.0000
  N   N12       1.0  0.30663  0.28479  0.30703  1.0000
  H   H213      1.0  0.39865  0.30147  0.05266  1.0000
  C   C176      1.0  0.44527  0.28205  0.03904  1.0000
  C   C177      1.0  0.33205  0.25217  0.21901  1.0000
  C   C178      1.0  0.12474  0.34591  0.49600  1.0000
  H   H214      1.0  0.30677  0.31235  0.31238  1.0000
  C   C179      1.0  0.26955  0.45237  0.36061  1.0000
  H   H215      1.0  0.28877  0.31712  0.11863  1.0000
  H   H216      1.0  0.31542  0.41673  0.03686  1.0000
  Fe  Fe21      1.0  0.21696  0.35713  0.11344  1.0000
  Fe  Fe22      1.0  0.24172  0.38968  0.06649  1.0000
  C   C180      1.0  0.27568  0.42583  0.47720  1.0000
  C   C181      1.0  0.48270  0.25821  0.48131  1.0000
  H   H217      1.0  0.27993  0.45890  0.06064  1.0000
  C   C182      1.0  0.30637  0.41118  0.01410  1.0000
  C   C183      1.0  0.27843  0.46720  0.33572  1.0000
  S   S43       1.0  0.18701  0.35784  0.48855  1.0000
  H   H218      1.0  0.24567  0.31609  0.13539  1.0000
  N   N13       1.0  0.21787  0.29683  0.13956  1.0000
  S   S44       1.0  0.31970  0.29750  0.43315  1.0000
  C   C184      1.0  0.23203  0.31409  0.12469  1.0000
  S   S45       1.0  0.27603  0.40483  0.46040  1.0000
  S   S46       1.0  0.39769  0.27605  0.43286  1.0000
  H   H219      1.0  0.98847  0.35702  0.46473  1.0000
  H   H220      1.0  0.10979  0.35111  0.09317  1.0000
  H   H221      1.0  0.29617  0.36032  0.44324  1.0000
  H   H222      1.0  0.34019  0.29454  0.26773  1.0000
  H   H223      1.0  0.36149  0.26064  0.30351  1.0000
  Fe  Fe23      1.0  0.25098  0.38174  0.44093  1.0000
  C   C185      1.0  0.31661  0.29108  0.19243  1.0000
  H   H224      1.0  0.27080  0.33484  0.09344  1.0000
  H   H225      1.0  0.33671  0.40634  0.01206  1.0000
  H   H226      1.0  0.22896  0.32653  0.13181  1.0000
  H   H227      1.0  0.47703  0.27700  0.03015  1.0000
  C   C186      1.0  0.33121  0.29431  0.21496  1.0000
  S   S47       1.0  0.35731  0.25216  0.07547  1.0000
  H   H228      1.0  0.27959  0.47772  0.43668  1.0000
  C   C187      1.0  0.28203  0.29877  0.03632  1.0000
  C   C188      1.0  0.31171  0.38153  0.01393  1.0000
  H   H229      1.0  0.23401  0.43672  0.34816  1.0000
  C   C189      1.0  0.36135  0.26519  0.24630  1.0000
  H   H230      1.0  0.34491  0.29788  0.20343  1.0000
  H   H231      1.0  0.23798  0.42698  0.38969  1.0000
  H   H232      1.0  0.25270  0.28088  0.44825  1.0000
  Fe  Fe24      1.0  0.23829  0.34025  0.42554  1.0000
  N   N14       1.0  0.25987  0.43314  0.34966  1.0000
  Fe  Fe25      1.0  0.32984  0.27310  0.43329  1.0000
  C   C190      1.0  0.28251  0.32216  0.41619  1.0000
  H   H233      1.0  0.23834  0.39409  0.24613  1.0000
  C   C191      1.0  0.24024  0.42729  0.36020  1.0000
  H   H234      1.0  0.20336  0.47772  0.06708  1.0000
  H   H235      1.0  0.45231  0.29734  0.03835  1.0000
  S   S48       1.0  0.23453  0.37369  0.01654  1.0000
  C   C192      1.0  0.35087  0.26193  0.21553  1.0000
  H   H236      1.0  0.28167  0.37262  0.45501  1.0000
  C   C193      1.0  0.26550  0.29133  0.43911  1.0000
  S   S49       1.0  0.24674  0.36686  0.09772  1.0000
  H   H237      1.0  0.27773  0.39238  0.05383  1.0000
  H   H238      1.0  0.43171  0.32052  0.05456  1.0000
  C   C194      1.0  0.35322  0.25829  0.28011  1.0000
  H   H239      1.0  0.37589  0.27288  0.24391  1.0000
  S   S50       1.0  0.24537  0.31400  0.43273  1.0000
  H   H240      1.0  0.41498  0.25657  0.49638  1.0000
  C   C195      1.0  0.22166  0.27996  0.13137  1.0000
  H   H241      1.0  0.31897  0.29231  0.16361  1.0000
  H   H242      1.0  0.22673  0.49052  0.01926  1.0000
  S   S51       1.0  0.25573  0.36582  0.39462  1.0000
  Fe  Fe26      1.0  0.23756  0.35013  0.04892  1.0000
  C   C196      1.0  0.26116  0.43070  0.31052  1.0000
  H   H243      1.0  0.25399  0.41607  0.30325  1.0000
  C   C197      1.0  0.27133  0.30844  0.02250  1.0000
  C   C198      1.0  0.24049  0.26421  0.10370  1.0000
  S   S52       1.0  0.26123  0.41962  0.06701  1.0000
  H   H244      1.0  0.19779  0.26102  0.16116  1.0000
  C   C199      1.0  0.23695  0.28029  0.10993  1.0000
  C   C200      1.0  0.29258  0.45715  0.49665  1.0000
  C   C201      1.0  0.29847  0.30083  0.42898  1.0000
  H   H245      1.0  0.45509  0.31090  0.49051  1.0000
  C   C202      1.0  0.22494  0.37180  0.21126  1.0000
  C   C203      1.0  0.12180  0.44700  0.01432  1.0000
  Fe  Fe27      1.0  0.31884  0.27290  0.07573  1.0000
  C   C204      1.0  0.27784  0.45375  0.03383  1.0000
  C   C205      1.0  0.21342  0.24636  0.13849  1.0000
  C   C206      1.0  0.42974  0.29585  0.46511  1.0000
  C   C207      1.0  0.42568  0.31590  0.02915  1.0000
  C   C208      1.0  0.20986  0.26242  0.14514  1.0000
  H   H246      1.0  0.12471  0.41284  0.42786  1.0000
  N   N15       1.0  0.19980  0.47034  0.01134  1.0000
  H   H247      1.0  0.26127  0.40611  0.35869  1.0000
  S   S53       1.0  0.14308  0.46413  0.02452  1.0000
  H   H248      1.0  0.16574  0.46813  0.46774  1.0000
  H   H249      1.0  0.26361  0.44628  0.41769  1.0000
  C   C209      1.0  0.26673  0.32117  0.04320  1.0000
  C   C210      1.0  0.22480  0.36873  0.27660  1.0000
  C   C211      1.0  0.16304  0.35345  0.48985  1.0000
  H   H250      1.0  0.31806  0.38217  0.48165  1.0000
  S   S54       1.0  0.16497  0.49274  0.10754  1.0000
  H   H251      1.0  0.23237  0.41307  0.35133  1.0000
  H   H252      1.0  0.22907  0.38034  0.18709  1.0000
  S   S55       1.0  0.34840  0.28974  0.08523  1.0000
  H   H253      1.0  0.23518  0.43961  0.06153  1.0000
  S   S56       1.0  0.32555  0.25896  0.02724  1.0000
  C   C212      1.0  0.27918  0.47477  0.40844  1.0000
  Fe  Fe28      1.0  0.14982  0.49042  0.05654  1.0000
  H   H254      1.0  0.28112  0.27371  0.44811  1.0000
  C   C213      1.0  0.28404  0.31474  0.09161  1.0000
  C   C214      1.0  0.29793  0.29779  0.31929  1.0000
  S   S57       1.0  0.25260  0.33244  0.02466  1.0000
  C   C215      1.0  0.29582  0.28415  0.24405  1.0000
  C   C216      1.0  0.32326  0.28821  0.32805  1.0000
  C   C217      1.0  0.21684  0.42356  0.02282  1.0000
  C   C218      1.0  0.32825  0.29233  0.25210  1.0000
  C   C219      1.0  0.27367  0.32469  0.07751  1.0000
  H   H255      1.0  0.11395  0.41582  0.46924  1.0000
  C   C220      1.0  0.23018  0.37956  0.24482  1.0000
  C   C221      1.0  0.29871  0.31826  0.41721  1.0000
  N   N16       1.0  0.13443  0.40373  0.47546  1.0000
  H   H256      1.0  0.10804  0.39348  0.45128  1.0000
  H   H257      1.0  0.29542  0.29671  0.34887  1.0000
  H   H258      1.0  0.23291  0.31421  0.09491  1.0000
  S   S58       1.0  0.36201  0.26951  0.17330  1.0000
  Fe  Fe29      1.0  0.35512  0.27458  0.03968  1.0000
  C   C222      1.0  0.26844  0.43480  0.02893  1.0000
  H   H259      1.0  0.27559  0.43447  0.30091  1.0000
  C   C223      1.0  0.41084  0.29201  0.46412  1.0000
  H   H260      1.0  0.25461  0.43888  0.29513  1.0000
  C   C224      1.0  0.26586  0.30898  0.42855  1.0000
  H   H261      1.0  0.28292  0.33542  0.40611  1.0000
  H   H262      1.0  0.24354  0.48123  0.44579  1.0000
  H   H263      1.0  0.27872  0.46529  0.30726  1.0000
  C   C225      1.0  0.28163  0.28719  0.43897  1.0000
  S   S59       1.0  0.29925  0.28778  0.09225  1.0000
  H   H264      1.0  0.09391  0.39118  0.08364  1.0000
  C   C226      1.0  0.44056  0.30801  0.49021  1.0000
  C   C227      1.0  0.09171  0.43654  0.47947  1.0000
  H   H265      1.0  0.15704  0.33363  0.01999  1.0000
  C   C228      1.0  0.25931  0.42859  0.48382  1.0000
  H   H266      1.0  0.46977  0.38288  0.02732  1.0000
  H   H267      1.0  0.18808  0.48585  0.04453  1.0000
  H   H268      1.0  0.15007  0.38586  0.47064  1.0000
  H   H269      1.0  0.38832  0.29749  0.48842  1.0000
  S   S60       1.0  0.18475  0.37034  0.00172  1.0000
  C   C229      1.0  0.40283  0.30033  0.48878  1.0000
  C   C230      1.0  0.31821  0.35286  0.01401  1.0000
  H   H270      1.0  0.34647  0.35581  0.01254  1.0000
  C   C231      1.0  0.18065  0.45349  0.49385  1.0000
  H   H271      1.0  0.32372  0.25005  0.19575  1.0000
  H   H272      1.0  0.19219  0.46596  0.49893  1.0000
  H   H273      1.0  0.31326  0.33785  0.01498  1.0000
  C   C232      1.0  0.14048  0.39054  0.45545  1.0000
  C   C233      1.0  0.22876  0.24727  0.11796  1.0000
  Fe  Fe30      1.0  0.13701  0.49522  0.43946  1.0000
  C   C234      1.0  0.24643  0.49495  0.43425  1.0000
  H   H274      1.0  0.20935  0.49389  0.35644  1.0000
  H   H275      1.0  0.30229  0.39191  0.49799  1.0000
  S   S61       1.0  0.10054  0.33999  0.49911  1.0000
  Fe  Fe31      1.0  0.47656  0.34091  0.55078  1.0000
  S   S62       1.0  0.44558  0.33189  0.54690  1.0000
  H   H276      1.0  0.48025  0.37451  0.68439  1.0000
  C   C235      1.0  0.99122  0.31761  0.56294  1.0000
  H   H277      1.0  0.09383  0.31924  0.60762  1.0000
  C   C236      1.0  0.31377  0.48457  0.72014  1.0000
  H   H278      1.0  0.12417  0.44470  0.55872  1.0000
  Fe  Fe32      1.0  0.07981  0.34483  0.94336  1.0000
  S   S63       1.0  0.08958  0.37417  0.92299  1.0000
  H   H279      1.0  0.28805  0.45454  0.86113  1.0000
  Fe  Fe33      1.0  0.03879  0.33795  0.92651  1.0000
  S   S64       1.0  0.04657  0.36750  0.90681  1.0000
  S   S65       1.0  0.01046  0.31466  0.91974  1.0000
  Fe  Fe34      1.0  0.07025  0.36333  0.87820  1.0000
  S   S66       1.0  0.07805  0.37506  0.82152  1.0000
  Fe  Fe35      1.0  0.06532  0.37557  0.95348  1.0000
  H   H280      1.0  0.03031  0.36835  0.83815  1.0000
  S   S67       1.0  0.06217  0.33367  0.89598  1.0000
  S   S68       1.0  0.05581  0.34626  0.97576  1.0000
  S   S69       1.0  0.29315  0.47403  0.93172  1.0000
  Fe  Fe36      1.0  0.04385  0.34524  0.56633  1.0000
  S   S70       1.0  0.05544  0.36374  0.61269  1.0000
  S   S71       1.0  0.01250  0.33705  0.56069  1.0000
  Fe  Fe37      1.0  0.08295  0.34716  0.54208  1.0000
  S   S72       1.0  0.09613  0.36470  0.58757  1.0000
  H   H281      1.0  0.45166  0.36506  0.60222  1.0000
  Fe  Fe38      1.0  0.07237  0.34635  0.62172  1.0000
  S   S73       1.0  0.07550  0.33364  0.67538  1.0000
  Fe  Fe39      1.0  0.07819  0.38067  0.57427  1.0000
  S   S74       1.0  0.06011  0.32706  0.57707  1.0000
  C   C237      1.0  0.07025  0.48876  0.57210  1.0000
  C   C238      1.0  0.10525  0.41961  0.98049  1.0000
  C   C239      1.0  0.12213  0.33945  0.75823  1.0000
  C   C240      1.0  0.46889  0.36834  0.70322  1.0000
  H   H282      1.0  0.05371  0.44523  0.60940  1.0000
  H   H283      1.0  0.31138  0.49367  0.70009  1.0000
  H   H284      1.0  0.45096  0.29432  0.96949  1.0000
  C   C241      1.0  0.02630  0.33886  0.74859  1.0000
  H   H285      1.0  0.32340  0.45242  0.79066  1.0000
  H   H286      1.0  0.16627  0.40728  0.50867  1.0000
  S   S75       1.0  0.47822  0.33589  0.81971  1.0000
  H   H287      1.0  0.11743  0.27826  0.58237  1.0000
  C   C242      1.0  0.40532  0.25338  0.51999  1.0000
  H   H288      1.0  0.13025  0.35721  0.54827  1.0000
  S   S76       1.0  0.09975  0.33281  0.96786  1.0000
  C   C243      1.0  0.28276  0.45953  0.96955  1.0000
  H   H289      1.0  0.48379  0.39361  0.96953  1.0000
  H   H290      1.0  0.11056  0.35039  0.89660  1.0000
  H   H291      1.0  0.18990  0.46623  0.95765  1.0000
  C   C244      1.0  0.27322  0.44059  0.96465  1.0000
  C   C245      1.0  0.12436  0.34268  0.79476  1.0000
  H   H292      1.0  0.27153  0.43537  0.93788  1.0000
  C   C246      1.0  0.07667  0.36291  0.78149  1.0000
  C   C247      1.0  0.07513  0.34439  0.78143  1.0000
  C   C248      1.0  0.07455  0.33551  0.74874  1.0000
  C   C249      1.0  0.07540  0.34500  0.71592  1.0000
  C   C250      1.0  0.07668  0.36341  0.71608  1.0000
  C   C251      1.0  0.07744  0.37233  0.74870  1.0000
  H   H293      1.0  0.07467  0.33700  0.80643  1.0000
  H   H294      1.0  0.07364  0.32128  0.74883  1.0000
  H   H295      1.0  0.07739  0.37089  0.69103  1.0000
  H   H296      1.0  0.07868  0.38667  0.74847  1.0000
  C   C252      1.0  0.43823  0.34750  0.71940  1.0000
  C   C253      1.0  0.08762  0.48953  0.55874  1.0000
  C   C254      1.0  0.30733  0.31453  0.51670  1.0000
  C   C255      1.0  0.32312  0.47312  0.71044  1.0000
  H   H297      1.0  0.98706  0.33699  0.92978  1.0000
  C   C256      1.0  0.44179  0.35122  0.75548  1.0000
  C   C257      1.0  0.99015  0.29933  0.55921  1.0000
  H   H298      1.0  0.99131  0.32469  0.83702  1.0000
  C   C258      1.0  0.40990  0.30385  0.96394  1.0000
  C   C259      1.0  0.42865  0.31461  0.96493  1.0000
  C   C260      1.0  0.41365  0.31247  0.51390  1.0000
  H   H299      1.0  0.12136  0.32627  0.74783  1.0000
  H   H300      1.0  0.40382  0.29933  0.93852  1.0000
  H   H301      1.0  0.43689  0.31823  0.94040  1.0000
  C   C261      1.0  0.02279  0.33407  0.71298  1.0000
  H   H302      1.0  0.99469  0.28363  0.76447  1.0000
  C   C262      1.0  0.14615  0.33219  0.59906  1.0000
  H   H303      1.0  0.18718  0.43646  0.97568  1.0000
  C   C263      1.0  0.30768  0.48457  0.75556  1.0000
  C   C264      1.0  0.09907  0.42654  0.53713  1.0000
  S   S77       1.0  0.06570  0.36386  0.52707  1.0000
  C   C265      1.0  0.02719  0.33296  0.82736  1.0000
  C   C266      1.0  0.12335  0.34366  0.97743  1.0000
  H   H304      1.0  0.30057  0.49382  0.76106  1.0000
  C   C267      1.0  0.45875  0.36345  0.76538  1.0000
  H   H305      1.0  0.46903  0.37681  0.63183  1.0000
  H   H306      1.0  0.39361  0.26030  0.95887  1.0000
  C   C268      1.0  0.02717  0.36313  0.81069  1.0000
  H   H307      1.0  0.31113  0.30245  0.51873  1.0000
  H   H308      1.0  0.40733  0.31893  0.53266  1.0000
  H   H309      1.0  0.00231  0.32409  0.67360  1.0000
  N   N17       1.0  0.12640  0.36231  0.84836  1.0000
  C   C269      1.0  0.12745  0.38098  0.85904  1.0000
  H   H310      1.0  0.48356  0.32879  0.69016  1.0000
  C   C270      1.0  0.12483  0.35958  0.80932  1.0000
  C   C271      1.0  0.29584  0.48629  0.82754  1.0000
  C   C272      1.0  0.12296  0.37304  0.78495  1.0000
  H   H311      1.0  0.04039  0.34418  0.75600  1.0000
  C   C273      1.0  0.12086  0.36969  0.74844  1.0000
  C   C274      1.0  0.12035  0.35292  0.73514  1.0000
  H   H312      1.0  0.13935  0.39202  0.84575  1.0000
  H   H313      1.0  0.12897  0.38273  0.88840  1.0000
  H   H314      1.0  0.11477  0.38352  0.85254  1.0000
  H   H315      1.0  0.25844  0.41385  0.98990  1.0000
  S   S78       1.0  0.48171  0.31749  0.91356  1.0000
  H   H316      1.0  0.07653  0.28362  0.54208  1.0000
  C   C275      1.0  0.07996  0.45786  0.58286  1.0000
  H   H317      1.0  0.11887  0.37990  0.73052  1.0000
  C   C276      1.0  0.47220  0.37212  0.73928  1.0000
  H   H318      1.0  0.08447  0.30809  0.54669  1.0000
  H   H319      1.0  0.11796  0.35015  0.70706  1.0000
  H   H320      1.0  0.48561  0.38108  0.74719  1.0000
  C   C277      1.0  0.13493  0.31727  0.57996  1.0000
  S   S79       1.0  0.09338  0.41172  0.57559  1.0000
  H   H321      1.0  0.27664  0.36976  0.98868  1.0000
  H   H322      1.0  0.43157  0.34419  0.77609  1.0000
  C   C278      1.0  0.09207  0.47359  0.56476  1.0000
  H   H323      1.0  0.42556  0.32589  0.65941  1.0000
  H   H324      1.0  0.26420  0.34998  0.52134  1.0000
  C   C279      1.0  0.10831  0.32232  0.60401  1.0000
  H   H325      1.0  0.31309  0.38178  0.52937  1.0000
  H   H326      1.0  0.04085  0.33654  0.81414  1.0000
  H   H327      1.0  0.14162  0.30996  0.56417  1.0000
  C   C280      1.0  0.00494  0.32756  0.70141  1.0000
  H   H328      1.0  0.47545  0.34898  0.64674  1.0000
  H   H329      1.0  0.10537  0.40979  0.96057  1.0000
  C   C281      1.0  0.13853  0.34216  0.62047  1.0000
  H   H330      1.0  0.12528  0.33165  0.81171  1.0000
  H   H331      1.0  0.26984  0.32532  0.50579  1.0000
  H   H332      1.0  0.45900  0.33668  0.61541  1.0000
  H   H333      1.0  0.99159  0.34767  0.82585  1.0000
  C   C282      1.0  0.05822  0.47294  0.59024  1.0000
  H   H334      1.0  0.44649  0.37712  0.63917  1.0000
  H   H335      1.0  0.31823  0.47983  0.87156  1.0000
  Fe  Fe40      1.0  0.48113  0.33803  0.95423  1.0000
  H   H336      1.0  0.14498  0.36234  0.89007  1.0000
  N   N18       1.0  0.30540  0.47329  0.82063  1.0000
  H   H337      1.0  0.98952  0.28837  0.82860  1.0000
  C   C283      1.0  0.15231  0.36975  0.97425  1.0000
  H   H338      1.0  0.28100  0.36176  0.55305  1.0000
  C   C284      1.0  0.31098  0.47312  0.78257  1.0000
  C   C285      1.0  0.32040  0.46149  0.77165  1.0000
  H   H339      1.0  0.22185  0.48452  0.97371  1.0000
  S   S80       1.0  0.37551  0.28525  0.99267  1.0000
  H   H340      1.0  0.32894  0.46889  0.84206  1.0000
  N   N19       1.0  0.29200  0.36203  0.49973  1.0000
  C   C286      1.0  0.29745  0.34602  0.50748  1.0000
  H   H341      1.0  0.13197  0.46714  0.50721  1.0000
  H   H342      1.0  0.02000  0.31775  0.82636  1.0000
  C   C287      1.0  0.42991  0.33978  0.64594  1.0000
  H   H343      1.0  0.12719  0.36994  0.95205  1.0000
  C   C288      1.0  0.99994  0.33963  0.83493  1.0000
  H   H344      1.0  0.45730  0.32794  0.66051  1.0000
  H   H345      1.0  0.46173  0.36569  0.79344  1.0000
  C   C289      1.0  0.44444  0.27916  0.97485  1.0000
  C   C290      1.0  0.28525  0.38472  0.98650  1.0000
  H   H346      1.0  0.02976  0.33629  0.85596  1.0000
  H   H347      1.0  0.00378  0.34384  0.86285  1.0000
  C   C291      1.0  0.12634  0.39512  0.51064  1.0000
  C   C292      1.0  0.11563  0.31209  0.58120  1.0000
  H   H348      1.0  0.28310  0.48289  0.81231  1.0000
  H   H349      1.0  0.11367  0.34480  0.63999  1.0000
  C   C293      1.0  0.11966  0.33713  0.62315  1.0000
  C   C294      1.0  0.13361  0.36189  0.96650  1.0000
  C   C295      1.0  0.46071  0.34079  0.64372  1.0000
  C   C296      1.0  0.45177  0.35596  0.69209  1.0000
  H   H350      1.0  0.10493  0.47310  0.55521  1.0000
  S   S81       1.0  0.27559  0.48129  0.51741  1.0000
  H   H351      1.0  0.30544  0.46812  0.50132  1.0000
  C   C297      1.0  0.11020  0.34863  0.86715  1.0000
  H   H352      1.0  0.29171  0.48608  0.85629  1.0000
  H   H353      1.0  0.09745  0.35001  0.85758  1.0000
  H   H354      1.0  0.33501  0.33357  0.51519  1.0000
  H   H355      1.0  0.47680  0.27669  0.98164  1.0000
  C   C298      1.0  0.43258  0.31647  0.51468  1.0000
  H   H356      1.0  0.41317  0.25508  0.54486  1.0000
  H   H357      1.0  0.04502  0.47257  0.60014  1.0000
  C   C299      1.0  0.15506  0.35776  0.52089  1.0000
  H   H358      1.0  0.10910  0.33415  0.86297  1.0000
  H   H359      1.0  0.16011  0.38382  0.96548  1.0000
  C   C300      1.0  0.11513  0.44231  0.53649  1.0000
  C   C301      1.0  0.06307  0.45752  0.59555  1.0000
  H   H360      1.0  0.03404  0.33561  0.69417  1.0000
  H   H361      1.0  0.42495  0.33761  0.71375  1.0000
  N   N20       1.0  0.01631  0.34303  0.81112  1.0000
  C   C302      1.0  0.27621  0.45994  0.50317  1.0000
  H   H362      1.0  0.01978  0.37118  0.79747  1.0000
  C   C303      1.0  0.29288  0.45461  0.83279  1.0000
  C   C304      1.0  0.01201  0.33717  0.77392  1.0000
  C   C305      1.0  0.32179  0.47885  0.84285  1.0000
  H   H363      1.0  0.14727  0.35384  0.63492  1.0000
  C   C306      1.0  0.13610  0.35405  0.52398  1.0000
  C   C307      1.0  0.99054  0.32572  0.72551  1.0000
  C   C308      1.0  0.26583  0.42833  0.99412  1.0000
  C   C309      1.0  0.48177  0.33162  0.74736  1.0000
  C   C310      1.0  0.31601  0.34770  0.51010  1.0000
  C   C311      1.0  0.11953  0.45510  0.50740  1.0000
  H   H364      1.0  0.18103  0.48023  0.98398  1.0000
  H   H365      1.0  0.29951  0.44421  0.83176  1.0000
  H   H366      1.0  0.16364  0.36389  0.54291  1.0000
  H   H367      1.0  0.19726  0.41059  0.98350  1.0000
  C   C312      1.0  0.10353  0.27887  0.58095  1.0000
  C   C313      1.0  0.27703  0.36198  0.52476  1.0000
  H   H368      1.0  0.42031  0.34669  0.65393  1.0000
  C   C314      1.0  0.12160  0.43399  0.98855  1.0000
  H   H369      1.0  0.07744  0.29257  0.58552  1.0000
  C   C315      1.0  0.45426  0.36832  0.63097  1.0000
  H   H370      1.0  0.28062  0.44978  0.81606  1.0000
  N   N21       1.0  0.10391  0.29585  0.56174  1.0000
  H   H371      1.0  0.33368  0.45267  0.72842  1.0000
  C   C316      1.0  0.11114  0.29594  0.52461  1.0000
  H   H372      1.0  0.00257  0.29649  0.55603  1.0000
  H   H373      1.0  0.12244  0.38604  0.79347  1.0000
  H   H374      1.0  0.13610  0.39121  0.52682  1.0000
  C   C317      1.0  0.14304  0.35960  0.86102  1.0000
  H   H375      1.0  0.42830  0.33714  0.61675  1.0000
  H   H376      1.0  0.04057  0.36666  0.79620  1.0000
  H   H377      1.0  0.16087  0.33619  0.59678  1.0000
  C   C318      1.0  0.99392  0.33037  0.76133  1.0000
  H   H378      1.0  0.14246  0.34521  0.85796  1.0000
  H   H379      1.0  0.12188  0.40473  0.52676  1.0000
  H   H380      1.0  0.15547  0.36899  0.84615  1.0000
  C   C319      1.0  0.28413  0.32786  0.50965  1.0000
  H   H381      1.0  0.48442  0.29663  0.52599  1.0000
  N   N22       1.0  0.44903  0.35127  0.65395  1.0000
  H   H382      1.0  0.09474  0.26620  0.56758  1.0000
  H   H383      1.0  0.44775  0.27229  0.95128  1.0000
  H   H384      1.0  0.13419  0.43503  0.97476  1.0000
  H   H385      1.0  0.33177  0.49265  0.83383  1.0000
  H   H386      1.0  0.46930  0.31970  0.75103  1.0000
  H   H387      1.0  0.11419  0.38226  0.50764  1.0000
  C   C320      1.0  0.47669  0.27033  0.50064  1.0000
  C   C321      1.0  0.18067  0.43631  0.50516  1.0000
  C   C322      1.0  0.39896  0.29901  0.99551  1.0000
  C   C323      1.0  0.08744  0.42360  0.50834  1.0000
  S   S82       1.0  0.06816  0.39915  0.99103  1.0000
  C   C324      1.0  0.28904  0.31243  0.51462  1.0000
  H   H388      1.0  0.27330  0.37441  0.52028  1.0000
  C   C325      1.0  0.19768  0.43794  0.99470  1.0000
  H   H389      1.0  0.07493  0.41162  0.50873  1.0000
  H   H390      1.0  0.32716  0.36084  0.50786  1.0000
  C   C326      1.0  0.32636  0.46153  0.73610  1.0000
  H   H391      1.0  0.29267  0.38734  0.96008  1.0000
  H   H392      1.0  0.39932  0.26437  0.51957  1.0000
  H   H393      1.0  0.09815  0.27826  0.60896  1.0000
  H   H394      1.0  0.08367  0.44579  0.58686  1.0000
  C   C327      1.0  0.32077  0.33211  0.51451  1.0000
  H   H395      1.0  0.32790  0.47333  0.68295  1.0000
  C   C328      1.0  0.08480  0.29505  0.55904  1.0000
  H   H396      1.0  0.27865  0.29868  0.51512  1.0000
  C   C329      1.0  0.08888  0.41786  0.99851  1.0000
  H   H397      1.0  0.24688  0.44769  0.50159  1.0000
  H   H398      1.0  0.46238  0.26645  0.50799  1.0000
  C   C330      1.0  0.30711  0.38019  0.50245  1.0000
  H   H399      1.0  0.27549  0.39214  0.98630  1.0000
  H   H400      1.0  0.12431  0.29372  0.52343  1.0000
  H   H401      1.0  0.42944  0.27584  0.97609  1.0000
  C   C331      1.0  0.18527  0.46800  0.98518  1.0000
  H   H402      1.0  0.31419  0.41630  0.98844  1.0000
  H   H403      1.0  0.17267  0.45600  0.99282  1.0000
  C   C332      1.0  0.16097  0.35969  0.99361  1.0000
  C   C333      1.0  0.43665  0.32061  0.99760  1.0000
  H   H404      1.0  0.11319  0.30923  0.51033  1.0000
  C   C334      1.0  0.20336  0.42291  0.99885  1.0000
  H   H405      1.0  0.26630  0.30576  0.99573  1.0000
  H   H406      1.0  0.11027  0.49008  0.50194  1.0000
  C   C335      1.0  0.13199  0.33362  0.99687  1.0000
  H   H407      1.0  0.19232  0.43546  0.51898  1.0000
  H   H408      1.0  0.10166  0.28482  0.50855  1.0000
  H   H409      1.0  0.23669  0.51765  0.32694  1.0000
  C   C336      1.0  0.45285  0.73139  0.02515  1.0000
  Fe  Fe41      1.0  0.15792  0.53255  0.05271  1.0000
  S   S83       1.0  0.17430  0.53793  0.10269  1.0000
  C   C337      1.0  0.36937  0.58095  0.47813  1.0000
  Fe  Fe42      1.0  0.18612  0.51770  0.08087  1.0000
  S   S84       1.0  0.21491  0.51837  0.08527  1.0000
  Fe  Fe43      1.0  0.15190  0.51260  0.12560  1.0000
  H   H410      1.0  0.27849  0.53805  0.43639  1.0000
  S   S85       1.0  0.17187  0.51456  0.02898  1.0000
  S   S86       1.0  0.13788  0.51190  0.18011  1.0000
  Fe  Fe44      1.0  0.42491  0.64083  0.05744  1.0000
  S   S87       1.0  0.41470  0.66175  0.08135  1.0000
  S   S88       1.0  0.40270  0.61202  0.05484  1.0000
  Fe  Fe45      1.0  0.46484  0.66842  0.05544  1.0000
  S   S89       1.0  0.45677  0.69076  0.07929  1.0000
  Fe  Fe46      1.0  0.43851  0.66887  0.11761  1.0000
  S   S90       1.0  0.43494  0.67742  0.17470  1.0000
  Fe  Fe47      1.0  0.43375  0.68179  0.04146  1.0000
  H   H411      1.0  0.28999  0.71574  0.41641  1.0000
  S   S91       1.0  0.44780  0.64675  0.09652  1.0000
  H   H412      1.0  0.99319  0.67669  0.04614  1.0000
  Fe  Fe48      1.0  0.42770  0.66089  0.44123  1.0000
  S   S92       1.0  0.43264  0.67969  0.39233  1.0000
  S   S93       1.0  0.39875  0.64381  0.46087  1.0000
  Fe  Fe49      1.0  0.46850  0.67419  0.45737  1.0000
  H   H413      1.0  0.99729  0.73629  0.46504  1.0000
  Fe  Fe50      1.0  0.45275  0.70109  0.42538  1.0000
  S   S94       1.0  0.45728  0.73156  0.42432  1.0000
  Fe  Fe51      1.0  0.45585  0.67020  0.37987  1.0000
  S   S95       1.0  0.46099  0.65920  0.32635  1.0000
  S   S96       1.0  0.44576  0.68333  0.47526  1.0000
  S   S97       1.0  0.44980  0.65016  0.42726  1.0000
  Fe  Fe52      1.0  0.16340  0.52408  0.38654  1.0000
  S   S98       1.0  0.13596  0.52080  0.41147  1.0000
  S   S99       1.0  0.17631  0.53215  0.33038  1.0000
  Fe  Fe53      1.0  0.17710  0.51414  0.45670  1.0000
  C   C338      1.0  0.48643  0.70140  0.20836  1.0000
  C   C339      1.0  0.10459  0.72445  0.18607  1.0000
  H   H414      1.0  0.99822  0.73427  0.30379  1.0000
  Fe  Fe54      1.0  0.15169  0.53593  0.45817  1.0000
  C   C340      1.0  0.22697  0.73923  0.46769  1.0000
  S   S100      1.0  0.16298  0.49730  0.41075  1.0000
  S   S101      1.0  0.17916  0.54130  0.43137  1.0000
  H   H415      1.0  0.19439  0.61418  0.04475  1.0000
  C   C341      1.0  0.15887  0.57715  0.01683  1.0000
  H   H416      1.0  0.29485  0.50286  0.39239  1.0000
  H   H417      1.0  0.30606  0.58818  0.03941  1.0000
  H   H418      1.0  0.38788  0.72291  0.10145  1.0000
  H   H419      1.0  0.12743  0.70658  0.06728  1.0000
  C   C342      1.0  0.20668  0.50506  0.37090  1.0000
  H   H420      1.0  0.32918  0.61484  0.04879  1.0000
  H   H421      1.0  0.30164  0.60655  0.01522  1.0000
  H   H422      1.0  0.24959  0.51623  0.06672  1.0000
  S   S102      1.0  0.14051  0.55468  0.48944  1.0000
  H   H423      1.0  0.11627  0.71151  0.28841  1.0000
  H   H424      1.0  0.11114  0.65567  0.47046  1.0000
  C   C343      1.0  0.38785  0.61951  0.46673  1.0000
  C   C344      1.0  0.09006  0.72915  0.17466  1.0000
  C   C345      1.0  0.07929  0.73402  0.19952  1.0000
  H   H425      1.0  0.18122  0.57991  0.05111  1.0000
  C   C346      1.0  0.39643  0.60724  0.45730  1.0000
  C   C347      1.0  0.23375  0.49855  0.41268  1.0000
  C   C348      1.0  0.44172  0.67149  0.21668  1.0000
  C   C349      1.0  0.44991  0.65833  0.22046  1.0000
  C   C350      1.0  0.45564  0.65465  0.25424  1.0000
  C   C351      1.0  0.45297  0.66383  0.28466  1.0000
  C   C352      1.0  0.44425  0.67656  0.28111  1.0000
  C   C353      1.0  0.43870  0.68037  0.24727  1.0000
  H   H426      1.0  0.45174  0.65092  0.19745  1.0000
  C   C354      1.0  0.35671  0.63073  0.03503  1.0000
  H   H427      1.0  0.44211  0.68374  0.30424  1.0000
  H   H428      1.0  0.43223  0.69046  0.24468  1.0000
  C   C355      1.0  0.23696  0.51666  0.39854  1.0000
  C   C356      1.0  0.22364  0.53974  0.49486  1.0000
  C   C357      1.0  0.26210  0.68216  0.47368  1.0000
  S   S103      1.0  0.44271  0.66060  0.01474  1.0000
  C   C358      1.0  0.38720  0.58804  0.46292  1.0000
  C   C359      1.0  0.98748  0.73555  0.32104  1.0000
  C   C360      1.0  0.26616  0.52696  0.42899  1.0000
  N   N23       1.0  0.12293  0.63467  0.47690  1.0000
  H   H429      1.0  0.36931  0.58066  0.05247  1.0000
  H   H430      1.0  0.22072  0.73507  0.44226  1.0000
  C   C361      1.0  0.14891  0.51694  0.22167  1.0000
  C   C362      1.0  0.11773  0.72570  0.29616  1.0000
  C   C363      1.0  0.14639  0.51725  0.28715  1.0000
  C   C364      1.0  0.16534  0.52580  0.28900  1.0000
  C   C365      1.0  0.17601  0.52985  0.25700  1.0000
  C   C366      1.0  0.16788  0.52535  0.22354  1.0000
  H   H431      1.0  0.12000  0.72628  0.32555  1.0000
  H   H432      1.0  0.43558  0.61971  0.48529  1.0000
  H   H433      1.0  0.19067  0.53650  0.25807  1.0000
  H   H434      1.0  0.17627  0.52852  0.19921  1.0000
  C   C367      1.0  0.25852  0.53138  0.01656  1.0000
  C   C368      1.0  0.12123  0.70565  0.04156  1.0000
  C   C369      1.0  0.99695  0.72347  0.02944  1.0000
  H   H435      1.0  0.13799  0.51407  0.31146  1.0000
  H   H436      1.0  0.29013  0.58280  0.00474  1.0000
  C   C370      1.0  0.23010  0.52787  0.04876  1.0000
  C   C371      1.0  0.24641  0.52444  0.04608  1.0000
  H   H437      1.0  0.45549  0.72297  0.04590  1.0000
  H   H438      1.0  0.00265  0.71694  0.08294  1.0000
  C   C372      1.0  0.21850  0.53570  0.39286  1.0000
  N   N24       1.0  0.22374  0.52112  0.37607  1.0000
  S   S104      1.0  0.05542  0.73603  0.09083  1.0000
  H   H439      1.0  0.25701  0.54481  0.39769  1.0000
  Fe  Fe55      1.0  0.09080  0.74427  0.40986  1.0000
  H   H440      1.0  0.47479  0.69761  0.99982  1.0000
  H   H441      1.0  0.13192  0.57868  0.40530  1.0000
  H   H442      1.0  0.22228  0.53100  0.32239  1.0000
  H   H443      1.0  0.12206  0.60365  0.05972  1.0000
  S   S105      1.0  0.35835  0.55673  0.48541  1.0000
  H   H444      1.0  0.46221  0.64464  0.25680  1.0000
  C   C373      1.0  0.14142  0.64809  0.48365  1.0000
  C   C374      1.0  0.18018  0.60608  0.49146  1.0000
  H   H445      1.0  0.12356  0.50650  0.25252  1.0000
  H   H446      1.0  0.32539  0.57299  0.01130  1.0000
  H   H447      1.0  0.28280  0.68293  0.43410  1.0000
  C   C375      1.0  0.37098  0.63519  0.00960  1.0000
  H   H448      1.0  0.13646  0.74427  0.04621  1.0000
  C   C376      1.0  0.39034  0.59981  0.01814  1.0000
  N   N25       1.0  0.40383  0.62069  0.33640  1.0000
  C   C377      1.0  0.38659  0.60768  0.35332  1.0000
  C   C378      1.0  0.41918  0.61525  0.34772  1.0000
  C   C379      1.0  0.40694  0.63926  0.35062  1.0000
  C   C380      1.0  0.40267  0.62008  0.29693  1.0000
  C   C381      1.0  0.40021  0.60340  0.27919  1.0000
  C   C382      1.0  0.40397  0.63573  0.27502  1.0000
  C   C383      1.0  0.39941  0.60252  0.24192  1.0000
  C   C384      1.0  0.40301  0.63464  0.23781  1.0000
  C   C385      1.0  0.40087  0.61814  0.22127  1.0000
  H   H449      1.0  0.38407  0.59308  0.34689  1.0000
  H   H450      1.0  0.38669  0.60833  0.38307  1.0000
  H   H451      1.0  0.37466  0.61095  0.34438  1.0000
  H   H452      1.0  0.42135  0.61683  0.37696  1.0000
  H   H453      1.0  0.43218  0.62398  0.33358  1.0000
  H   H454      1.0  0.39561  0.64408  0.34428  1.0000
  H   H455      1.0  0.40775  0.63928  0.38033  1.0000
  H   H456      1.0  0.42004  0.64961  0.33976  1.0000
  H   H457      1.0  0.39904  0.59093  0.29402  1.0000
  H   H458      1.0  0.40604  0.64910  0.28578  1.0000
  H   H459      1.0  0.39776  0.58971  0.22886  1.0000
  H   H460      1.0  0.40429  0.64680  0.22151  1.0000
  H   H461      1.0  0.40046  0.61753  0.19233  1.0000
  H   H462      1.0  0.41010  0.61249  0.44563  1.0000
  C   C386      1.0  0.17069  0.58740  0.48386  1.0000
  S   S106      1.0  0.02013  0.73671  0.01508  1.0000
  H   H463      1.0  0.19364  0.61319  0.47952  1.0000
  C   C387      1.0  0.12452  0.61900  0.45699  1.0000
  C   C388      1.0  0.13404  0.62217  0.42332  1.0000
  C   C389      1.0  0.11720  0.60043  0.47041  1.0000
  C   C390      1.0  0.13658  0.60777  0.40486  1.0000
  C   C391      1.0  0.11971  0.58612  0.45156  1.0000
  C   C392      1.0  0.12955  0.58979  0.41912  1.0000
  H   H464      1.0  0.21355  0.54132  0.02419  1.0000
  H   H465      1.0  0.07279  0.71933  0.30410  1.0000
  H   H466      1.0  0.13900  0.69339  0.01636  1.0000
  H   H467      1.0  0.27195  0.50632  0.46030  1.0000
  C   C393      1.0  0.21983  0.52070  0.49440  1.0000
  C   C394      1.0  0.98933  0.72572  0.44742  1.0000
  H   H468      1.0  0.11994  0.72089  0.22934  1.0000
  H   H469      1.0  0.12051  0.65046  0.43019  1.0000
  C   C395      1.0  0.33951  0.61778  0.02772  1.0000
  S   S107      1.0  0.47659  0.69320  0.40894  1.0000
  C   C396      1.0  0.10849  0.72468  0.22244  1.0000
  C   C397      1.0  0.08542  0.71619  0.30678  1.0000
  H   H470      1.0  0.41696  0.60063  0.34210  1.0000
  H   H471      1.0  0.21172  0.71543  0.01779  1.0000
  H   H472      1.0  0.24417  0.54105  0.34145  1.0000
  H   H473      1.0  0.27105  0.52864  0.01457  1.0000
  C   C398      1.0  0.12816  0.71000  0.44034  1.0000
  C   C399      1.0  0.22365  0.72799  0.01581  1.0000
  H   H474      1.0  0.15106  0.63006  0.06516  1.0000
  C   C400      1.0  0.99820  0.72039  0.41916  1.0000
  C   C401      1.0  0.17383  0.61621  0.00959  1.0000
  H   H475      1.0  0.14369  0.69631  0.46849  1.0000
  C   C402      1.0  0.45435  0.74186  0.46439  1.0000
  H   H476      1.0  0.35917  0.63718  0.06079  1.0000
  H   H477      1.0  0.19677  0.50894  0.35479  1.0000
  S   S108      1.0  0.02254  0.73096  0.41048  1.0000
  H   H478      1.0  0.99391  0.70218  0.37485  1.0000
  H   H479      1.0  0.17682  0.58030  0.46609  1.0000
  C   C403      1.0  0.25690  0.71084  0.48010  1.0000
  C   C404      1.0  0.27031  0.71921  0.45355  1.0000
  C   C405      1.0  0.09779  0.72970  0.24855  1.0000
  N   N26       1.0  0.13912  0.56603  0.13908  1.0000
  C   C406      1.0  0.12290  0.56147  0.16358  1.0000
  C   C407      1.0  0.13563  0.55121  0.11284  1.0000
  C   C408      1.0  0.15466  0.56582  0.16073  1.0000
  C   C409      1.0  0.14248  0.58390  0.11995  1.0000
  C   C410      1.0  0.12914  0.58602  0.09714  1.0000
  C   C411      1.0  0.15893  0.59946  0.12268  1.0000
  C   C412      1.0  0.13218  0.60253  0.07787  1.0000
  C   C413      1.0  0.16178  0.61595  0.10339  1.0000
  C   C414      1.0  0.14847  0.61745  0.08098  1.0000
  H   H480      1.0  0.11025  0.55968  0.14900  1.0000
  H   H481      1.0  0.12033  0.54824  0.17891  1.0000
  H   H482      1.0  0.12474  0.57253  0.18320  1.0000
  H   H483      1.0  0.12312  0.54897  0.09754  1.0000
  H   H484      1.0  0.13384  0.53766  0.12603  1.0000
  H   H485      1.0  0.14715  0.55462  0.09292  1.0000
  H   H486      1.0  0.15761  0.57607  0.18224  1.0000
  H   H487      1.0  0.15179  0.55210  0.17432  1.0000
  H   H488      1.0  0.16723  0.56855  0.14372  1.0000
  H   H489      1.0  0.11639  0.57477  0.09336  1.0000
  H   H490      1.0  0.17000  0.59918  0.13888  1.0000
  H   H491      1.0  0.21641  0.67542  0.48090  1.0000
  H   H492      1.0  0.17463  0.62749  0.10478  1.0000
  H   H493      1.0  0.11282  0.51260  0.48557  1.0000
  S   S109      1.0  0.15100  0.50999  0.48738  1.0000
  C   C415      1.0  0.13824  0.51299  0.25365  1.0000
  H   H494      1.0  0.08772  0.71575  0.33606  1.0000
  S   S110      1.0  0.42341  0.70063  0.00896  1.0000
  H   H495      1.0  0.41702  0.72919  0.06771  1.0000
  H   H496      1.0  0.36316  0.62177  0.48865  1.0000
  C   C416      1.0  0.27555  0.69070  0.44714  1.0000
  H   H497      1.0  0.48204  0.66155  0.16673  1.0000
  C   C417      1.0  0.10669  0.71188  0.03723  1.0000
  C   C418      1.0  0.09868  0.71048  0.00394  1.0000
  C   C419      1.0  0.23214  0.52801  0.34019  1.0000
  C   C420      1.0  0.22605  0.53854  0.02216  1.0000
  C   C421      1.0  0.11274  0.71514  0.44123  1.0000
  C   C422      1.0  0.17462  0.58714  0.03484  1.0000
  H   H498      1.0  0.20801  0.53887  0.37734  1.0000
  S   S111      1.0  0.13466  0.50813  0.07658  1.0000
  C   C423      1.0  0.99213  0.71542  0.06386  1.0000
  H   H499      1.0  0.10991  0.59660  0.49586  1.0000
  C   C424      1.0  0.39560  0.73677  0.09119  1.0000
  H   H500      1.0  0.08259  0.70208  0.29670  1.0000
  S   S112      1.0  0.18372  0.64071  0.00624  1.0000
  C   C425      1.0  0.11305  0.64414  0.45557  1.0000
  C   C426      1.0  0.43786  0.72392  0.00354  1.0000
  C   C427      1.0  0.44501  0.73123  0.49425  1.0000
  S   S113      1.0  0.06984  0.74306  0.36928  1.0000
  H   H501      1.0  0.08906  0.71422  0.47240  1.0000
  H   H502      1.0  0.14430  0.61057  0.37964  1.0000
  H   H503      1.0  0.08715  0.72900  0.14644  1.0000
  H   H504      1.0  0.39393  0.57861  0.45582  1.0000
  H   H505      1.0  0.35169  0.56237  0.00288  1.0000
  C   C428      1.0  0.48334  0.67374  0.14924  1.0000
  H   H506      1.0  0.13727  0.71358  0.41701  1.0000
  H   H507      1.0  0.13030  0.73587  0.28305  1.0000
  H   H508      1.0  0.24996  0.71919  0.49175  1.0000
  S   S114      1.0  0.09916  0.72166  0.07383  1.0000
  C   C429      1.0  0.13185  0.70027  0.46951  1.0000
  C   C430      1.0  0.25366  0.53071  0.40714  1.0000
  S   S115      1.0  0.14947  0.55265  0.01865  1.0000
  N   N27       1.0  0.10134  0.72998  0.28732  1.0000
  H   H509      1.0  0.13992  0.63591  0.41137  1.0000
  C   C431      1.0  0.37407  0.58456  0.02509  1.0000
  C   C432      1.0  0.12786  0.69824  0.01272  1.0000
  H   H510      1.0  0.47482  0.71010  0.25412  1.0000
  C   C433      1.0  0.10103  0.71046  0.47148  1.0000
  C   C434      1.0  0.41205  0.74035  0.07231  1.0000
  H   H511      1.0  0.27337  0.73357  0.44553  1.0000
  H   H512      1.0  0.11283  0.72061  0.16637  1.0000
  H   H513      1.0  0.07430  0.73832  0.25403  1.0000
  H   H514      1.0  0.22959  0.72741  0.07176  1.0000
  C   C435      1.0  0.18210  0.60657  0.03102  1.0000
  S   S116      1.0  0.10772  0.72614  0.40317  1.0000
  H   H515      1.0  0.14933  0.65437  0.45871  1.0000
  H   H516      1.0  0.23017  0.54895  0.39491  1.0000
  H   H517      1.0  0.11457  0.57213  0.46277  1.0000
  C   C436      1.0  0.26253  0.50912  0.44250  1.0000
  H   H518      1.0  0.47073  0.67688  0.15348  1.0000
  C   C437      1.0  0.08304  0.73432  0.23590  1.0000
  C   C438      1.0  0.23377  0.73482  0.04634  1.0000
  H   H519      1.0  0.09928  0.63438  0.44880  1.0000
  C   C439      1.0  0.36996  0.61240  0.48143  1.0000
  H   H520      1.0  0.21274  0.53129  0.42038  1.0000
  C   C440      1.0  0.36076  0.59324  0.48715  1.0000
  S   S117      1.0  0.19914  0.50506  0.47864  1.0000
  C   C441      1.0  0.30349  0.59309  0.01266  1.0000
  H   H521      1.0  0.48352  0.66951  0.12111  1.0000
  H   H522      1.0  0.47687  0.70415  0.19095  1.0000
  H   H523      1.0  0.43916  0.71638  0.49292  1.0000
  Fe  Fe56      1.0  0.08276  0.74005  0.06483  1.0000
  H   H524      1.0  0.19964  0.49937  0.39704  1.0000
  H   H525      1.0  0.16213  0.74212  0.02303  1.0000
  C   C442      1.0  0.25237  0.69207  0.49109  1.0000
  C   C443      1.0  0.27964  0.70917  0.43711  1.0000
  H   H526      1.0  0.25951  0.66780  0.47992  1.0000
  H   H527      1.0  0.38440  0.64493  0.01566  1.0000
  C   C444      1.0  0.98736  0.70651  0.39680  1.0000
  S   S118      1.0  0.30373  0.53254  0.49569  1.0000
  H   H528      1.0  0.21360  0.54525  0.48595  1.0000
  C   C445      1.0  0.48493  0.70462  0.24470  1.0000
  C   C446      1.0  0.98706  0.67551  0.02021  1.0000
  H   H529      1.0  0.06802  0.73772  0.19042  1.0000
  H   H530      1.0  0.08741  0.71512  0.00031  1.0000
  H   H531      1.0  0.34702  0.58799  0.49863  1.0000
  H   H532      1.0  0.29418  0.49629  0.32786  1.0000
  H   H533      1.0  0.22055  0.69764  0.49938  1.0000
  H   H534      1.0  0.14068  0.65978  0.49938  1.0000
  C   C447      1.0  0.11983  0.69517  0.49934  1.0000
  H   H535      1.0  0.14955  0.64141  0.49876  1.0000
  C   C448      1.0  0.15329  0.57802  0.49910  1.0000
  H   H536      1.0  0.20377  0.72081  0.49863  1.0000
  Fe  Fe57      1.0  0.32902  0.54502  0.92109  1.0000
  S   S119      1.0  0.30943  0.55562  0.89360  1.0000
  S   S120      1.0  0.35792  0.56649  0.92476  1.0000
  H   H537      1.0  0.45169  0.69695  0.95579  1.0000
  S   S121      1.0  0.27946  0.51383  0.90084  1.0000
  Fe  Fe58      1.0  0.30138  0.53020  0.86088  1.0000
  S   S122      1.0  0.29001  0.52760  0.80469  1.0000
  Fe  Fe59      1.0  0.28908  0.53847  0.93518  1.0000
  S   S123      1.0  0.27015  0.55253  0.95461  1.0000
  S   S124      1.0  0.32251  0.52063  0.88483  1.0000
  S   S125      1.0  0.30892  0.52902  0.96495  1.0000
  Fe  Fe60      1.0  0.15345  0.68133  0.94153  1.0000
  S   S126      1.0  0.17427  0.69788  0.89969  1.0000
  S   S127      1.0  0.12684  0.68645  0.94304  1.0000
  Fe  Fe61      1.0  0.17727  0.66064  0.96775  1.0000
  S   S128      1.0  0.20002  0.67630  0.92860  1.0000
  H   H538      1.0  0.32134  0.59706  0.92827  1.0000
  Fe  Fe62      1.0  0.19431  0.70151  0.94322  1.0000
  S   S129      1.0  0.21627  0.73006  0.94429  1.0000
  Fe  Fe63      1.0  0.17834  0.67145  0.88783  1.0000
  S   S130      1.0  0.18701  0.66280  0.83438  1.0000
  H   H539      1.0  0.40133  0.56313  0.56282  1.0000
  S   S131      1.0  0.15575  0.65419  0.92624  1.0000
  Fe  Fe64      1.0  0.17465  0.65834  0.55441  1.0000
  S   S132      1.0  0.19041  0.67397  0.60062  1.0000
  C   C449      1.0  0.29226  0.56692  0.74247  1.0000
  Fe  Fe65      1.0  0.14906  0.67988  0.55397  1.0000
  S   S133      1.0  0.16296  0.69731  0.59930  1.0000
  H   H540      1.0  0.16422  0.71801  0.66892  1.0000
  Fe  Fe66      1.0  0.18916  0.69906  0.57156  1.0000
  H   H541      1.0  0.20728  0.70251  0.72970  1.0000
  Fe  Fe67      1.0  0.16315  0.67109  0.62535  1.0000
  S   S134      1.0  0.15253  0.66732  0.68330  1.0000
  C   C450      1.0  0.11835  0.51249  0.55701  1.0000
  S   S135      1.0  0.14738  0.65324  0.58150  1.0000
  Fe  Fe68      1.0  0.31720  0.53272  0.59525  1.0000
  S   S136      1.0  0.32678  0.51785  0.55258  1.0000
  S   S137      1.0  0.32912  0.53550  0.65078  1.0000
  Fe  Fe69      1.0  0.29505  0.54552  0.54201  1.0000
  H   H542      1.0  0.40062  0.62640  0.54877  1.0000
  S   S138      1.0  0.27482  0.55970  0.53388  1.0000
  Fe  Fe70      1.0  0.29785  0.50803  0.53347  1.0000
  C   C451      1.0  0.17706  0.74426  0.97445  1.0000
  C   C452      1.0  0.98982  0.68407  0.95752  1.0000
  S   S139      1.0  0.28805  0.52086  0.57926  1.0000
  S   S140      1.0  0.32356  0.55887  0.56183  1.0000
  H   H543      1.0  0.09497  0.69622  0.52295  1.0000
  C   C453      1.0  0.44281  0.73987  0.52574  1.0000
  H   H544      1.0  0.08153  0.51792  0.52050  1.0000
  C   C454      1.0  0.20604  0.70775  0.78461  1.0000
  C   C455      1.0  0.44872  0.62722  0.57107  1.0000
  C   C456      1.0  0.48345  0.73936  0.93424  1.0000
  H   H545      1.0  0.14891  0.61329  0.54748  1.0000
  H   H546      1.0  0.09878  0.61956  0.50918  1.0000
  H   H547      1.0  0.22433  0.65828  0.54997  1.0000
  H   H548      1.0  0.17492  0.63346  0.88702  1.0000
  H   H549      1.0  0.12521  0.50225  0.55685  1.0000
  H   H550      1.0  0.24667  0.55319  0.75925  1.0000
  H   H551      1.0  0.21016  0.71771  0.67579  1.0000
  C   C457      1.0  0.25956  0.55723  0.70657  1.0000
  H   H552      1.0  0.45691  0.72367  0.91450  1.0000
  H   H553      1.0  0.24201  0.70857  0.54792  1.0000
  H   H554      1.0  0.17615  0.62731  0.93299  1.0000
  H   H555      1.0  0.16770  0.55693  0.93849  1.0000
  H   H556      1.0  0.26858  0.57538  0.60252  1.0000
  H   H557      1.0  0.18439  0.73348  0.82352  1.0000
  C   C458      1.0  0.27577  0.56188  0.76186  1.0000
  C   C459      1.0  0.29401  0.56502  0.62916  1.0000
  C   C460      1.0  0.47732  0.70921  0.98126  1.0000
  C   C461      1.0  0.09428  0.52161  0.53575  1.0000
  H   H558      1.0  0.37943  0.62979  0.95747  1.0000
  H   H559      1.0  0.11226  0.64128  0.52647  1.0000
  H   H560      1.0  0.24914  0.53934  0.64343  1.0000
  C   C462      1.0  0.17759  0.66469  0.79248  1.0000
  C   C463      1.0  0.18607  0.66162  0.76093  1.0000
  C   C464      1.0  0.17890  0.66283  0.72714  1.0000
  C   C465      1.0  0.16294  0.66674  0.72470  1.0000
  C   C466      1.0  0.15453  0.66987  0.75623  1.0000
  C   C467      1.0  0.16190  0.66905  0.78990  1.0000
  H   H561      1.0  0.19822  0.65826  0.76266  1.0000
  H   H562      1.0  0.18544  0.66026  0.70315  1.0000
  H   H563      1.0  0.14213  0.67283  0.75466  1.0000
  H   H564      1.0  0.15524  0.67148  0.81389  1.0000
  Fe  Fe71      1.0  0.33175  0.54370  0.51846  1.0000
  C   C468      1.0  0.43443  0.64388  0.53583  1.0000
  H   H565      1.0  0.17810  0.73820  0.76115  1.0000
  C   C469      1.0  0.10509  0.70276  0.97530  1.0000
  H   H566      1.0  0.44876  0.60956  0.51079  1.0000
  H   H567      1.0  0.45205  0.61459  0.57499  1.0000
  H   H568      1.0  0.24657  0.55350  0.69392  1.0000
  C   C470      1.0  0.30123  0.52948  0.76236  1.0000
  C   C471      1.0  0.29062  0.52442  0.73183  1.0000
  C   C472      1.0  0.29892  0.52611  0.69748  1.0000
  C   C473      1.0  0.31794  0.53295  0.69334  1.0000
  C   C474      1.0  0.32852  0.53767  0.72393  1.0000
  C   C475      1.0  0.32024  0.53595  0.75830  1.0000
  H   H569      1.0  0.27590  0.51933  0.73476  1.0000
  C   C476      1.0  0.10441  0.70025  0.50011  1.0000
  H   H570      1.0  0.06558  0.50013  0.56878  1.0000
  H   H571      1.0  0.32856  0.53984  0.78154  1.0000
  C   C477      1.0  0.37009  0.57895  0.96144  1.0000
  C   C478      1.0  0.38647  0.59407  0.95449  1.0000
  C   C479      1.0  0.33619  0.60878  0.99444  1.0000
  H   H572      1.0  0.39144  0.59776  0.92716  1.0000
  H   H573      1.0  0.33023  0.57582  0.96409  1.0000
  C   C480      1.0  0.20239  0.71001  0.74878  1.0000
  C   C481      1.0  0.35116  0.61340  0.96947  1.0000
  C   C482      1.0  0.19224  0.72112  0.73870  1.0000
  C   C483      1.0  0.19253  0.57237  0.96389  1.0000
  C   C484      1.0  0.18601  0.72968  0.76669  1.0000
  N   N28       1.0  0.23783  0.68355  0.51885  1.0000
  H   H574      1.0  0.09865  0.70146  0.94975  1.0000
  H   H575      1.0  0.46198  0.63893  0.56627  1.0000
  C   C485      1.0  0.20635  0.58956  0.96690  1.0000
  H   H576      1.0  0.15101  0.61342  0.97652  1.0000
  C   C486      1.0  0.24978  0.52564  0.51819  1.0000
  C   C487      1.0  0.38528  0.58029  0.56351  1.0000
  H   H577      1.0  0.20220  0.71405  0.83913  1.0000
  H   H578      1.0  0.48436  0.73322  0.50466  1.0000
  Fe  Fe72      1.0  0.30077  0.50534  0.92668  1.0000
  H   H579      1.0  0.23006  0.49903  0.50618  1.0000
  H   H580      1.0  0.18859  0.69834  0.68043  1.0000
  H   H581      1.0  0.20889  0.64086  0.92902  1.0000
  H   H582      1.0  0.42864  0.64800  0.56018  1.0000
  C   C488      1.0  0.23290  0.51373  0.50637  1.0000
  C   C489      1.0  0.32037  0.57632  0.98547  1.0000
  H   H583      1.0  0.43540  0.73156  0.54861  1.0000
  C   C490      1.0  0.25462  0.54232  0.99029  1.0000
  H   H584      1.0  0.44790  0.65506  0.52979  1.0000
  C   C491      1.0  0.99769  0.68494  0.99068  1.0000
  C   C492      1.0  0.40158  0.57715  0.56036  1.0000
  C   C493      1.0  0.27608  0.56172  0.68595  1.0000
  H   H585      1.0  0.21668  0.59129  0.98660  1.0000
  C   C494      1.0  0.15498  0.60621  0.52957  1.0000
  N   N29       1.0  0.43627  0.62564  0.54112  1.0000
  H   H586      1.0  0.26800  0.53161  0.64648  1.0000
  C   C495      1.0  0.29253  0.56680  0.70510  1.0000
  H   H587      1.0  0.30715  0.56509  0.98049  1.0000
  C   C496      1.0  0.26864  0.57515  0.63236  1.0000
  H   H588      1.0  0.12823  0.52525  0.54360  1.0000
  H   H589      1.0  0.29064  0.52203  0.67429  1.0000
  C   C497      1.0  0.19962  0.71623  0.81137  1.0000
  S   S141      1.0  0.17329  0.68662  0.98597  1.0000
  H   H590      1.0  0.24342  0.56639  0.50751  1.0000
  H   H591      1.0  0.27567  0.56124  0.79086  1.0000
  C   C498      1.0  0.14553  0.58750  0.52210  1.0000
  N   N30       1.0  0.27575  0.56117  0.64642  1.0000
  H   H592      1.0  0.27716  0.58924  0.64071  1.0000
  C   C499      1.0  0.46736  0.72385  0.93300  1.0000
  H   H593      1.0  0.25436  0.57236  0.64177  1.0000
  C   C500      1.0  0.15783  0.60621  0.99230  1.0000
  H   H594      1.0  0.19206  0.71618  0.64715  1.0000
  S   S142      1.0  0.21461  0.72480  0.57288  1.0000
  C   C501      1.0  0.24205  0.69437  0.55191  1.0000
  H   H595      1.0  0.37245  0.56878  0.56799  1.0000
  C   C502      1.0  0.26365  0.54265  0.63514  1.0000
  C   C503      1.0  0.11969  0.69661  0.97952  1.0000
  C   C504      1.0  0.15050  0.58679  0.99571  1.0000
  C   C505      1.0  0.24052  0.55169  0.50712  1.0000
  C   C506      1.0  0.38540  0.59820  0.55996  1.0000
  C   C507      1.0  0.44495  0.62194  0.50799  1.0000
  H   H596      1.0  0.26376  0.54159  0.60546  1.0000
  C   C508      1.0  0.25946  0.55717  0.74396  1.0000
  H   H597      1.0  0.29323  0.56437  0.59956  1.0000
  N   N31       1.0  0.10064  0.50584  0.53885  1.0000
  C   C509      1.0  0.41806  0.59191  0.55352  1.0000
  C   C510      1.0  0.25367  0.54466  0.51865  1.0000
  H   H598      1.0  0.11650  0.51570  0.58536  1.0000
  H   H599      1.0  0.09204  0.52657  0.56252  1.0000
  H   H600      1.0  0.99812  0.69174  0.93480  1.0000
  S   S143      1.0  0.18500  0.63908  0.52298  1.0000
  H   H601      1.0  0.45780  0.63368  0.50021  1.0000
  C   C511      1.0  0.16804  0.71783  0.69735  1.0000
  C   C512      1.0  0.17883  0.57017  0.93958  1.0000
  C   C513      1.0  0.18960  0.72716  0.80247  1.0000
  H   H602      1.0  0.30578  0.57015  0.69204  1.0000
  H   H603      1.0  0.21335  0.69880  0.79192  1.0000
  S   S144      1.0  0.12227  0.68061  0.53420  1.0000
  N   N32       1.0  0.18810  0.72390  0.70106  1.0000
  H   H604      1.0  0.30487  0.57011  0.75664  1.0000
  H   H605      1.0  0.20901  0.67728  0.52583  1.0000
  H   H606      1.0  0.30006  0.55475  0.63796  1.0000
  H   H607      1.0  0.34326  0.54282  0.72100  1.0000
  H   H608      1.0  0.31226  0.61279  0.94894  1.0000
  C   C514      1.0  0.40174  0.61304  0.55251  1.0000
  C   C515      1.0  0.19651  0.74377  0.69056  1.0000
  H   H609      1.0  0.37259  0.60048  0.56177  1.0000
  H   H610      1.0  0.20803  0.64712  0.88322  1.0000
  N   N33       1.0  0.19266  0.61841  0.89691  1.0000
  C   C516      1.0  0.20858  0.63575  0.90130  1.0000
  C   C517      1.0  0.19255  0.61352  0.85875  1.0000
  C   C518      1.0  0.17600  0.62244  0.90525  1.0000
  C   C519      1.0  0.19288  0.60282  0.92014  1.0000
  C   C520      1.0  0.20655  0.60465  0.94560  1.0000
  C   C521      1.0  0.17897  0.58510  0.91796  1.0000
  C   C522      1.0  0.31243  0.59855  0.95058  1.0000
  H   H611      1.0  0.35007  0.60636  0.94450  1.0000
  C   C523      1.0  0.17239  0.61558  0.51427  1.0000
  H   H612      1.0  0.22167  0.63388  0.89491  1.0000
  C   C524      1.0  0.19506  0.71353  0.67521  1.0000
  H   H613      1.0  0.13211  0.58034  0.53417  1.0000
  H   H614      1.0  0.20437  0.60943  0.85178  1.0000
  H   H615      1.0  0.19326  0.62537  0.84059  1.0000
  H   H616      1.0  0.17987  0.60200  0.85207  1.0000
  C   C525      1.0  0.11309  0.62914  0.51214  1.0000
  H   H617      1.0  0.23172  0.68794  0.57382  1.0000
  H   H618      1.0  0.16325  0.61025  0.90276  1.0000
  H   H619      1.0  0.21737  0.61764  0.95012  1.0000
  H   H620      1.0  0.16781  0.58274  0.90009  1.0000
  S   S145      1.0  0.17531  0.68388  0.52369  1.0000
  H   H621      1.0  0.40910  0.61601  0.97680  1.0000
  C   C526      1.0  0.43439  0.73515  0.97702  1.0000
  C   C527      1.0  0.22550  0.73606  0.53252  1.0000
  H   H622      1.0  0.42277  0.72943  0.96028  1.0000
  C   C528      1.0  0.41865  0.61032  0.54903  1.0000
  C   C529      1.0  0.22897  0.73751  0.98289  1.0000
  H   H623      1.0  0.16107  0.70346  0.70815  1.0000
  H   H624      1.0  0.30368  0.57914  0.63469  1.0000
  C   C530      1.0  0.23844  0.54598  0.99325  1.0000
  C   C531      1.0  0.36397  0.57422  0.99698  1.0000
  H   H625      1.0  0.25977  0.52001  0.52680  1.0000
  H   H626      1.0  0.43033  0.58874  0.55138  1.0000
  C   C532      1.0  0.46435  0.70878  0.95631  1.0000
  H   H627      1.0  0.23545  0.55454  0.97304  1.0000
  H   H628      1.0  0.18246  0.73385  0.98303  1.0000
  C   C533      1.0  0.36815  0.62665  0.97679  1.0000
  H   H629      1.0  0.16197  0.72668  0.71180  1.0000
  H   H630      1.0  0.12023  0.62260  0.53020  1.0000
  N   N34       1.0  0.31838  0.59453  0.98617  1.0000
  H   H631      1.0  0.30481  0.50075  0.82049  1.0000
  C   C534      1.0  0.39651  0.60449  0.98260  1.0000
  H   H632      1.0  0.13824  0.57917  0.98187  1.0000
  H   H633      1.0  0.29848  0.58875  0.94479  1.0000
  H   H634      1.0  0.25569  0.69564  0.56168  1.0000
  H   H635      1.0  0.24797  0.66304  0.53937  1.0000
  H   H636      1.0  0.44250  0.62957  0.59668  1.0000
  H   H637      1.0  0.10455  0.53366  0.52101  1.0000
  H   H638      1.0  0.19205  0.56086  0.98129  1.0000
  C   C535      1.0  0.23529  0.66413  0.52882  1.0000
  H   H639      1.0  0.21202  0.49926  0.99590  1.0000
  H   H640      1.0  0.01196  0.69340  0.99373  1.0000
  H   H641      1.0  0.40726  0.74572  0.70405  1.0000
  H   H642      1.0  0.23076  0.65488  0.50577  1.0000
  C   C536      1.0  0.22024  0.68353  0.50559  1.0000
  H   H643      1.0  0.42563  0.64384  0.51292  1.0000
  C   C537      1.0  0.10371  0.50055  0.50209  1.0000
  C   C538      1.0  0.21737  0.73108  0.49959  1.0000
  Fe  Fe73      1.0  0.08863  0.77817  0.03282  1.0000
  S   S146      1.0  0.09643  0.76865  0.08514  1.0000
  H   H644      1.0  0.11492  0.75960  0.28534  1.0000
  C   C539      1.0  0.26562  0.79673  0.19364  1.0000
  H   H645      1.0  0.41284  0.80850  0.40612  1.0000
  C   C540      1.0  0.14950  0.87897  0.44225  1.0000
  Fe  Fe74      1.0  0.06842  0.76559  0.10643  1.0000
  S   S147      1.0  0.05676  0.76995  0.16038  1.0000
  H   H646      1.0  0.10743  0.83068  0.31995  1.0000
  S   S148      1.0  0.06137  0.77744  0.05559  1.0000
  H   H647      1.0  0.27568  0.93374  0.04742  1.0000
  Fe  Fe75      1.0  0.30210  0.82280  0.03722  1.0000
  S   S149      1.0  0.28461  0.81221  0.08675  1.0000
  H   H648      1.0  0.29147  0.78272  0.19255  1.0000
  Fe  Fe76      1.0  0.32818  0.80280  0.05635  1.0000
  S   S150      1.0  0.31224  0.79026  0.10754  1.0000
  C   C541      1.0  0.36706  0.79097  0.41776  1.0000
  Fe  Fe77      1.0  0.28707  0.78506  0.07564  1.0000
  C   C542      1.0  0.24464  0.75261  0.46847  1.0000
  Fe  Fe78      1.0  0.31098  0.81835  0.11533  1.0000
  S   S151      1.0  0.31100  0.83147  0.16910  1.0000
  C   C543      1.0  0.39849  0.78637  0.44576  1.0000
  S   S152      1.0  0.32867  0.83154  0.06611  1.0000
  Fe  Fe79      1.0  0.31488  0.80612  0.37355  1.0000
  S   S153      1.0  0.32877  0.82837  0.41216  1.0000
  S   S154      1.0  0.32691  0.80182  0.32005  1.0000
  Fe  Fe80      1.0  0.28342  0.78595  0.42674  1.0000
  H   H649      1.0  0.35082  0.87689  0.47035  1.0000
  S   S155      1.0  0.25662  0.76154  0.42772  1.0000
  Fe  Fe81      1.0  0.30044  0.82785  0.42578  1.0000
  S   S156      1.0  0.29477  0.85436  0.43038  1.0000
  Fe  Fe82      1.0  0.32208  0.80540  0.45367  1.0000
  H   H650      1.0  0.45295  0.78956  0.05195  1.0000
  S   S157      1.0  0.28720  0.80759  0.38341  1.0000
  S   S158      1.0  0.31027  0.78301  0.41434  1.0000
  H   H651      1.0  0.12394  0.82910  0.04103  1.0000
  C   C544      1.0  0.38902  0.75098  0.09646  1.0000
  N   N35       1.0  0.23240  0.80335  0.00140  1.0000
  S   S159      1.0  0.29454  0.80628  0.46980  1.0000
  Fe  Fe83      1.0  0.08913  0.77948  0.44265  1.0000
  S   S160      1.0  0.10654  0.77439  0.39919  1.0000
  H   H652      1.0  0.37274  0.83226  0.03218  1.0000
  Fe  Fe84      1.0  0.08427  0.77358  0.36209  1.0000
  S   S161      1.0  0.09536  0.78911  0.30932  1.0000
  C   C545      1.0  0.28405  0.86152  0.02418  1.0000
  C   C546      1.0  0.37424  0.82631  0.47042  1.0000
  S   S162      1.0  0.06723  0.78045  0.40470  1.0000
  Fe  Fe85      1.0  0.04880  0.74763  0.03989  1.0000
  C   C547      1.0  0.15638  0.83711  0.46770  1.0000
  C   C548      1.0  0.13942  0.82250  0.46357  1.0000
  C   C549      1.0  0.23625  0.83053  0.46311  1.0000
  H   H653      1.0  0.16683  0.84014  0.44670  1.0000
  H   H654      1.0  0.13720  0.81430  0.43999  1.0000
  C   C550      1.0  0.28356  0.85914  0.46832  1.0000
  C   C551      1.0  0.25834  0.76581  0.31400  1.0000
  C   C552      1.0  0.22114  0.84730  0.00053  1.0000
  C   C553      1.0  0.39884  0.76884  0.08283  1.0000
  H   H655      1.0  0.33526  0.83661  0.48742  1.0000
  H   H656      1.0  0.16497  0.79378  0.02208  1.0000
  H   H657      1.0  0.27952  0.88224  0.44203  1.0000
  C   C554      1.0  0.45943  0.76977  0.49784  1.0000
  C   C555      1.0  0.41311  0.76396  0.45208  1.0000
  C   C556      1.0  0.39345  0.83426  0.47077  1.0000
  H   H658      1.0  0.37610  0.74810  0.11084  1.0000
  C   C557      1.0  0.38435  0.80160  0.40387  1.0000
  C   C558      1.0  0.37925  0.82523  0.01505  1.0000
  C   C559      1.0  0.42702  0.79005  0.00794  1.0000
  H   H659      1.0  0.35508  0.79296  0.40751  1.0000
  H   H660      1.0  0.28873  0.78998  0.24937  1.0000
  H   H661      1.0  0.24298  0.75096  0.18307  1.0000
  H   H662      1.0  0.32223  0.85069  0.47751  1.0000
  H   H663      1.0  0.28099  0.95416  0.07358  1.0000
  H   H664      1.0  0.24790  0.76942  0.15070  1.0000
  H   H665      1.0  0.00037  0.79490  0.11055  1.0000
  H   H666      1.0  0.14928  0.85960  0.03368  1.0000
  H   H667      1.0  0.27867  0.77439  0.15409  1.0000
  H   H668      1.0  0.41220  0.76156  0.42283  1.0000
  H   H669      1.0  0.40088  0.84356  0.44910  1.0000
  H   H670      1.0  0.36701  0.82951  0.44858  1.0000
  C   C560      1.0  0.27466  0.77736  0.29763  1.0000
  C   C561      1.0  0.41813  0.80559  0.05550  1.0000
  H   H671      1.0  0.25409  0.80028  0.20471  1.0000
  H   H672      1.0  0.32560  0.88215  0.48440  1.0000
  H   H673      1.0  0.24884  0.79513  0.43637  1.0000
  H   H674      1.0  0.23380  0.76915  0.18880  1.0000
  H   H675      1.0  0.26756  0.80077  0.16467  1.0000
  H   H676      1.0  0.24793  0.95117  0.06145  1.0000
  C   C562      1.0  0.31610  0.82343  0.21070  1.0000
  C   C563      1.0  0.31115  0.83007  0.24247  1.0000
  C   C564      1.0  0.31434  0.82358  0.27615  1.0000
  C   C565      1.0  0.32282  0.81059  0.27836  1.0000
  C   C566      1.0  0.32795  0.80410  0.24659  1.0000
  C   C567      1.0  0.32449  0.81037  0.21290  1.0000
  H   H677      1.0  0.30470  0.84021  0.24104  1.0000
  H   H678      1.0  0.31035  0.82872  0.30036  1.0000
  H   H679      1.0  0.33455  0.79408  0.24807  1.0000
  H   H680      1.0  0.32847  0.80522  0.18869  1.0000
  H   H681      1.0  0.25000  0.79704  0.03916  1.0000
  H   H682      1.0  0.11600  0.76302  0.01010  1.0000
  C   C568      1.0  0.36521  0.77820  0.44559  1.0000
  C   C569      1.0  0.98779  0.75983  0.09050  1.0000
  C   C570      1.0  0.43225  0.79589  0.44416  1.0000
  H   H683      1.0  0.24345  0.84069  0.01806  1.0000
  H   H684      1.0  0.22531  0.77833  0.48239  1.0000
  H   H685      1.0  0.42513  0.76099  0.46147  1.0000
  C   C571      1.0  0.22827  0.79291  0.47698  1.0000
  H   H686      1.0  0.24947  0.97934  0.03026  1.0000
  C   C572      1.0  0.39990  0.79950  0.41767  1.0000
  C   C573      1.0  0.13249  0.83238  0.01692  1.0000
  C   C574      1.0  0.35618  0.87219  0.49438  1.0000
  C   C575      1.0  0.38063  0.77579  0.45927  1.0000
  C   C576      1.0  0.36454  0.81384  0.49776  1.0000
  C   C577      1.0  0.06807  0.77382  0.20142  1.0000
  C   C578      1.0  0.05757  0.76881  0.23350  1.0000
  C   C579      1.0  0.06586  0.77269  0.26681  1.0000
  C   C580      1.0  0.08469  0.78214  0.26823  1.0000
  C   C581      1.0  0.09524  0.78691  0.23619  1.0000
  C   C582      1.0  0.08701  0.78253  0.20288  1.0000
  C   C583      1.0  0.14243  0.75959  0.04596  1.0000
  H   H687      1.0  0.05760  0.76901  0.29131  1.0000
  H   H688      1.0  0.10982  0.79424  0.23708  1.0000
  H   H689      1.0  0.09521  0.78652  0.17836  1.0000
  H   H690      1.0  0.27813  0.80581  0.20659  1.0000
  C   C584      1.0  0.14694  0.84973  0.01265  1.0000
  N   N36       1.0  0.41455  0.78307  0.45988  1.0000
  H   H691      1.0  0.42625  0.81931  0.04276  1.0000
  C   C585      1.0  0.25052  0.94695  0.03425  1.0000
  C   C586      1.0  0.26074  0.77257  0.23874  1.0000
  H   H692      1.0  0.01355  0.75455  0.13214  1.0000
  C   C587      1.0  0.27585  0.78074  0.26067  1.0000
  H   H693      1.0  0.45314  0.81244  0.04938  1.0000
  H   H694      1.0  0.40268  0.84983  0.00183  1.0000
  C   C588      1.0  0.24317  0.75751  0.29334  1.0000
  H   H695      1.0  0.00831  0.78987  0.04688  1.0000
  H   H696      1.0  0.26492  0.89051  0.49529  1.0000
  H   H697      1.0  0.12962  0.86663  0.48450  1.0000
  C   C589      1.0  0.44512  0.79830  0.06034  1.0000
  H   H698      1.0  0.21432  0.85241  0.47251  1.0000
  H   H699      1.0  0.46899  0.76945  0.44343  1.0000
  C   C590      1.0  0.46160  0.76115  0.46634  1.0000
  C   C591      1.0  0.22265  0.82135  0.48987  1.0000
  C   C592      1.0  0.27810  0.77299  0.18382  1.0000
  N   N37       1.0  0.00719  0.77200  0.09258  1.0000
  C   C593      1.0  0.27659  0.87546  0.02576  1.0000
  N   N38       1.0  0.11208  0.83929  0.37464  1.0000
  C   C594      1.0  0.11089  0.82070  0.38718  1.0000
  C   C595      1.0  0.09360  0.84031  0.37772  1.0000
  C   C596      1.0  0.11759  0.84129  0.33605  1.0000
  C   C597      1.0  0.12490  0.85332  0.39712  1.0000
  C   C598      1.0  0.12078  0.85397  0.43412  1.0000
  C   C599      1.0  0.14197  0.86612  0.38369  1.0000
  C   C600      1.0  0.01552  0.78107  0.05777  1.0000
  C   C601      1.0  0.15405  0.87869  0.40613  1.0000
  H   H700      1.0  0.36463  0.86444  0.48385  1.0000
  H   H701      1.0  0.12443  0.81922  0.38516  1.0000
  H   H702      1.0  0.10590  0.81766  0.41544  1.0000
  H   H703      1.0  0.10131  0.80971  0.37120  1.0000
  H   H704      1.0  0.08734  0.83642  0.40506  1.0000
  H   H705      1.0  0.08392  0.83057  0.35955  1.0000
  H   H706      1.0  0.09410  0.85450  0.37100  1.0000
  H   H707      1.0  0.13071  0.83915  0.33137  1.0000
  C   C602      1.0  0.27626  0.97669  0.02299  1.0000
  H   H708      1.0  0.11883  0.85507  0.32479  1.0000
  C   C603      1.0  0.46445  0.74986  0.02008  1.0000
  H   H709      1.0  0.14649  0.86652  0.35614  1.0000
  C   C604      1.0  0.12531  0.81880  0.48956  1.0000
  N   N39       1.0  0.26242  0.77687  0.19975  1.0000
  H   H710      1.0  0.15560  0.76401  0.05985  1.0000
  C   C605      1.0  0.41573  0.77296  0.06351  1.0000
  H   H711      1.0  0.30497  0.98133  0.01146  1.0000
  S   S163      1.0  0.26149  0.75962  0.08294  1.0000
  H   H712      1.0  0.27668  0.88239  0.05059  1.0000
  C   C606      1.0  0.00893  0.78681  0.11826  1.0000
  H   H713      1.0  0.43424  0.81056  0.44960  1.0000
  C   C607      1.0  0.24549  0.82107  0.44409  1.0000
  H   H714      1.0  0.28986  0.85778  0.04767  1.0000
  C   C608      1.0  0.27759  0.87413  0.46667  1.0000
  H   H715      1.0  0.09150  0.75180  0.30007  1.0000
  H   H716      1.0  0.43450  0.76015  0.04388  1.0000
  H   H717      1.0  0.10849  0.84414  0.44675  1.0000
  H   H718      1.0  0.28650  0.78385  0.31368  1.0000
  C   C609      1.0  0.24931  0.75109  0.04406  1.0000
  H   H719      1.0  0.40417  0.80178  0.04498  1.0000
  H   H720      1.0  0.23199  0.75394  0.24190  1.0000
  H   H721      1.0  0.15913  0.88832  0.45982  1.0000
  H   H722      1.0  0.25746  0.76337  0.34280  1.0000
  H   H723      1.0  0.23049  0.74857  0.30632  1.0000
  H   H724      1.0  0.35173  0.77042  0.45703  1.0000
  S   S164      1.0  0.07540  0.74927  0.01221  1.0000
  H   H725      1.0  0.26645  0.77311  0.00893  1.0000
  N   N40       1.0  0.42621  0.79146  0.04733  1.0000
  S   S165      1.0  0.10274  0.80186  0.48406  1.0000
  H   H726      1.0  0.22727  0.86158  0.00832  1.0000
  S   S166      1.0  0.34046  0.80287  0.49810  1.0000
  H   H727      1.0  0.02333  0.79660  0.11952  1.0000
  H   H728      1.0  0.00639  0.75314  0.35744  1.0000
  H   H729      1.0  0.44404  0.79328  0.45572  1.0000
  H   H730      1.0  0.13273  0.76383  0.06250  1.0000
  H   H731      1.0  0.16719  0.88807  0.39573  1.0000
  C   C610      1.0  0.24425  0.76077  0.25622  1.0000
  H   H732      1.0  0.27722  0.75871  0.19088  1.0000
  C   C611      1.0  0.26407  0.98634  0.02753  1.0000
  C   C612      1.0  0.29502  0.98761  0.01696  1.0000
  S   S167      1.0  0.07405  0.74881  0.45587  1.0000
  H   H733      1.0  0.03264  0.76998  0.10755  1.0000
  N   N41       1.0  0.26994  0.95628  0.02232  1.0000
  H   H734      1.0  0.44514  0.79870  0.09004  1.0000
  H   H735      1.0  0.25602  0.82842  0.42416  1.0000
  H   H736      1.0  0.41744  0.80762  0.08477  1.0000
  H   H737      1.0  0.43328  0.79430  0.41480  1.0000
  H   H738      1.0  0.29538  0.95321  0.03603  1.0000
  S   S168      1.0  0.30287  0.79505  0.02437  1.0000
  H   H739      1.0  0.20864  0.78297  0.02736  1.0000
  C   C613      1.0  0.24154  0.80234  0.45103  1.0000
  Fe  Fe86      1.0  0.05347  0.74935  0.41430  1.0000
  H   H740      1.0  0.03005  0.79022  0.06030  1.0000
  C   C614      1.0  0.24597  0.76607  0.17999  1.0000
  H   H741      1.0  0.39275  0.77907  0.08742  1.0000
  H   H742      1.0  0.23658  0.80951  0.05720  1.0000
  H   H743      1.0  0.24645  0.93163  0.03530  1.0000
  S   S169      1.0  0.35011  0.79287  0.03320  1.0000
  H   H744      1.0  0.24109  0.94992  0.01536  1.0000
  H   H745      1.0  0.00480  0.78126  0.14601  1.0000
  H   H746      1.0  0.37841  0.76560  0.48064  1.0000
  C   C615      1.0  0.13284  0.86674  0.45612  1.0000
  H   H747      1.0  0.40090  0.75343  0.46549  1.0000
  C   C616      1.0  0.42199  0.75815  0.05874  1.0000
  H   H748      1.0  0.38569  0.81179  0.38270  1.0000
  H   H749      1.0  0.04291  0.76208  0.23257  1.0000
  C   C617      1.0  0.28101  0.94917  0.04592  1.0000
  H   H750      1.0  0.01554  0.77069  0.03761  1.0000
  H   H751      1.0  0.01752  0.75007  0.08643  1.0000
  C   C618      1.0  0.21947  0.78394  0.00690  1.0000
  H   H752      1.0  0.18909  0.82158  0.47958  1.0000
  H   H753      1.0  0.24026  0.84509  0.45664  1.0000
  H   H754      1.0  0.10796  0.74969  0.32968  1.0000
  H   H755      1.0  0.47588  0.75554  0.03728  1.0000
  C   C619      1.0  0.25462  0.76053  0.01104  1.0000
  C   C620      1.0  0.40312  0.82995  0.49855  1.0000
  H   H756      1.0  0.22639  0.77453  0.01619  1.0000
  N   N42       1.0  0.14474  0.76757  0.00897  1.0000
  C   C621      1.0  0.10408  0.74853  0.30110  1.0000
  S   S170      1.0  0.42737  0.83941  0.49680  1.0000
  H   H757      1.0  0.25647  0.82072  0.02836  1.0000
  C   C622      1.0  0.01807  0.76113  0.10525  1.0000
  C   C623      1.0  0.24425  0.80789  0.03294  1.0000
  C   C624      1.0  0.15094  0.78795  0.01180  1.0000
  H   H758      1.0  0.14170  0.79204  0.03001  1.0000
  C   C625      1.0  0.37100  0.80619  0.01082  1.0000
  C   C626      1.0  0.23027  0.83506  0.00621  1.0000
  C   C627      1.0  0.26929  0.87883  0.49678  1.0000
  C   C628      1.0  0.99215  0.74630  0.35115  1.0000
  C   C629      1.0  0.15988  0.84799  0.49838  1.0000
  C   C630      1.0  0.21894  0.80222  0.49618  1.0000
  H   H759      1.0  0.46531  0.78460  0.49916  1.0000
  C   C631      1.0  0.41524  0.78530  0.49916  1.0000
  H   H760      1.0  0.43285  0.78032  0.63512  1.0000
  C   C632      1.0  0.31020  0.89121  0.56412  1.0000
  Fe  Fe87      1.0  0.23037  0.93510  0.93007  1.0000
  S   S171      1.0  0.25184  0.92464  0.90998  1.0000
  S   S172      1.0  0.23542  0.96623  0.93755  1.0000
  Fe  Fe88      1.0  0.20178  0.89407  0.94329  1.0000
  S   S173      1.0  0.22205  0.88190  0.92305  1.0000
  H   H761      1.0  0.41372  0.77207  0.74439  1.0000
  Fe  Fe89      1.0  0.24264  0.90328  0.95491  1.0000
  H   H762      1.0  0.36676  0.80044  0.54745  1.0000
  Fe  Fe90      1.0  0.22918  0.90430  0.87941  1.0000
  S   S174      1.0  0.23764  0.89929  0.82286  1.0000
  S   S175      1.0  0.20772  0.91554  0.89759  1.0000
  Fe  Fe91      1.0  0.44883  0.82876  0.93580  1.0000
  S   S176      1.0  0.44520  0.80020  0.91748  1.0000
  S   S177      1.0  0.42694  0.83916  0.95689  1.0000
  C   C633      1.0  0.25410  0.98959  0.65026  1.0000
  C   C634      1.0  0.40521  0.82615  0.97652  1.0000
  Fe  Fe92      1.0  0.46552  0.81510  0.87301  1.0000
  S   S178      1.0  0.46683  0.80510  0.81646  1.0000
  Fe  Fe93      1.0  0.46988  0.80374  0.95005  1.0000
  C   C635      1.0  0.27378  0.98002  0.56549  1.0000
  S   S179      1.0  0.46749  0.84347  0.88893  1.0000
  H   H763      1.0  0.48607  0.78143  0.57282  1.0000
  Fe  Fe94      1.0  0.45552  0.83133  0.61607  1.0000
  S   S180      1.0  0.46569  0.85319  0.57204  1.0000
  S   S181      1.0  0.44845  0.83817  0.67209  1.0000
  Fe  Fe95      1.0  0.45493  0.80065  0.56590  1.0000
  H   H764      1.0  0.21925  0.93907  0.63300  1.0000
  S   S182      1.0  0.44652  0.76959  0.56716  1.0000
  H   H765      1.0  0.18537  0.82947  0.52268  1.0000
  Fe  Fe96      1.0  0.44525  0.83263  0.53767  1.0000
  H   H766      1.0  0.13759  0.81473  0.93694  1.0000
  S   S183      1.0  0.17583  0.87711  0.97728  1.0000
  S   S184      1.0  0.43365  0.81205  0.58277  1.0000
  Fe  Fe97      1.0  0.23063  0.92615  0.55505  1.0000
  S   S185      1.0  0.24158  0.91516  0.60174  1.0000
  S   S186      1.0  0.23945  0.95751  0.54081  1.0000
  Fe  Fe98      1.0  0.20077  0.88651  0.54107  1.0000
  S   S187      1.0  0.21000  0.87415  0.58824  1.0000
  C   C636      1.0  0.26719  0.86872  0.52900  1.0000
  Fe  Fe99      1.0  0.21220  0.89972  0.61792  1.0000
  S   S188      1.0  0.20040  0.90115  0.67359  1.0000
  Fe  Fe100     1.0  0.23854  0.89060  0.56763  1.0000
  S   S189      1.0  0.25788  0.87477  0.56815  1.0000
  S   S190      1.0  0.20096  0.91131  0.57222  1.0000
  C   C637      1.0  0.44990  0.75916  0.52756  1.0000
  H   H767      1.0  0.32347  0.84448  0.92932  1.0000
  H   H768      1.0  0.24862  0.76117  0.95519  1.0000
  C   C638      1.0  0.37417  0.80989  0.52596  1.0000
  C   C639      1.0  0.12893  0.82948  0.52051  1.0000
  H   H769      1.0  0.19018  0.74783  0.92238  1.0000
  H   H770      1.0  0.16331  0.84502  0.93014  1.0000
  C   C640      1.0  0.31209  0.77456  0.94791  1.0000
  C   C641      1.0  0.12885  0.81961  0.98960  1.0000
  C   C642      1.0  0.29472  0.77306  0.93767  1.0000
  H   H771      1.0  0.25206  0.79523  0.97213  1.0000
  C   C643      1.0  0.46349  0.81647  0.77726  1.0000
  C   C644      1.0  0.47119  0.81377  0.74459  1.0000
  C   C645      1.0  0.46717  0.82079  0.71224  1.0000
  C   C646      1.0  0.45535  0.83059  0.71229  1.0000
  C   C647      1.0  0.44828  0.83399  0.74515  1.0000
  C   C648      1.0  0.45236  0.82701  0.77755  1.0000
  S   S191      1.0  0.47582  0.78420  0.98880  1.0000
  H   H772      1.0  0.28617  0.95699  0.97443  1.0000
  H   H773      1.0  0.43926  0.84171  0.74546  1.0000
  H   H774      1.0  0.44637  0.82922  0.80255  1.0000
  C   C649      1.0  0.25378  0.98193  0.71341  1.0000
  H   H775      1.0  0.12207  0.74582  0.98743  1.0000
  H   H776      1.0  0.44354  0.76213  0.95082  1.0000
  H   H777      1.0  0.44292  0.79872  0.66489  1.0000
  H   H778      1.0  0.23251  0.83674  0.55300  1.0000
  C   C650      1.0  0.21751  0.83023  0.54954  1.0000
  C   C651      1.0  0.25375  0.98841  0.93674  1.0000
  H   H779      1.0  0.21293  0.77782  0.98181  1.0000
  H   H780      1.0  0.41933  0.79187  0.65486  1.0000
  S   S192      1.0  0.22963  0.90240  0.51947  1.0000
  C   C652      1.0  0.33144  0.87162  0.53552  1.0000
  H   H781      1.0  0.33218  0.86355  0.59194  1.0000
  H   H782      1.0  0.47306  0.81842  0.68727  1.0000
  C   C653      1.0  0.17412  0.76503  0.92836  1.0000
  C   C654      1.0  0.22696  0.89994  0.78179  1.0000
  C   C655      1.0  0.21086  0.90364  0.77998  1.0000
  C   C656      1.0  0.20284  0.90382  0.74669  1.0000
  C   C657      1.0  0.21082  0.90035  0.71492  1.0000
  C   C658      1.0  0.22701  0.89682  0.71671  1.0000
  C   C659      1.0  0.23501  0.89663  0.74995  1.0000
  H   H783      1.0  0.20449  0.90617  0.80424  1.0000
  H   H784      1.0  0.19030  0.90653  0.74562  1.0000
  H   H785      1.0  0.23329  0.89409  0.69253  1.0000
  H   H786      1.0  0.24745  0.89372  0.75109  1.0000
  H   H787      1.0  0.31705  0.83642  0.51747  1.0000
  H   H788      1.0  0.26309  0.95497  0.96708  1.0000
  H   H789      1.0  0.34676  0.85443  0.91572  1.0000
  H   H790      1.0  0.39837  0.75893  0.67477  1.0000
  C   C660      1.0  0.15493  0.84156  0.95449  1.0000
  H   H791      1.0  0.30811  0.89939  0.50981  1.0000
  N   N43       1.0  0.42584  0.77332  0.69141  1.0000
  H   H792      1.0  0.20843  0.93835  0.69164  1.0000
  H   H793      1.0  0.27583  0.96739  0.57277  1.0000
  S   S193      1.0  0.22236  0.91479  0.97687  1.0000
  H   H794      1.0  0.17720  0.77079  0.90131  1.0000
  C   C661      1.0  0.47287  0.75981  0.71755  1.0000
  H   H795      1.0  0.33137  0.83723  0.88845  1.0000
  C   C662      1.0  0.33483  0.84117  0.91653  1.0000
  H   H796      1.0  0.24775  0.94408  0.71098  1.0000
  C   C663      1.0  0.39625  0.83514  0.99791  1.0000
  H   H797      1.0  0.25792  0.94806  0.66643  1.0000
  C   C664      1.0  0.32630  0.79178  0.94722  1.0000
  H   H798      1.0  0.19094  0.75248  0.70676  1.0000
  H   H799      1.0  0.36697  0.83933  0.91916  1.0000
  C   C665      1.0  0.31392  0.89189  0.52747  1.0000
  H   H800      1.0  0.34385  0.82119  0.99139  1.0000
  C   C666      1.0  0.26906  0.88051  0.99544  1.0000
  C   C667      1.0  0.46375  0.76566  0.74424  1.0000
  H   H801      1.0  0.33948  0.84161  0.56394  1.0000
  H   H802      1.0  0.36163  0.81721  0.93906  1.0000
  H   H803      1.0  0.23650  0.92979  0.67572  1.0000
  C   C668      1.0  0.34137  0.83187  0.97445  1.0000
  S   S194      1.0  0.47228  0.83128  0.97144  1.0000
  C   C669      1.0  0.21858  0.95230  0.69696  1.0000
  C   C670      1.0  0.39668  0.80723  0.97134  1.0000
  S   S195      1.0  0.29379  0.83545  0.98853  1.0000
  C   C671      1.0  0.44846  0.77001  0.73627  1.0000
  C   C672      1.0  0.34993  0.85208  0.54634  1.0000
  S   S196      1.0  0.46539  0.81996  0.51831  1.0000
  C   C673      1.0  0.24751  0.97622  0.67874  1.0000
  H   H804      1.0  0.35393  0.81933  0.89478  1.0000
  H   H805      1.0  0.19405  0.74631  0.66204  1.0000
  H   H806      1.0  0.23590  0.80054  0.94483  1.0000
  H   H807      1.0  0.11828  0.82682  0.54103  1.0000
  H   H808      1.0  0.48465  0.75067  0.91595  1.0000
  N   N44       1.0  0.23516  0.95697  0.67328  1.0000
  H   H809      1.0  0.22155  0.95182  0.72575  1.0000
  H   H810      1.0  0.32909  0.83378  0.98622  1.0000
  C   C674      1.0  0.28482  0.99486  0.82173  1.0000
  H   H811      1.0  0.14836  0.85190  0.54887  1.0000
  C   C675      1.0  0.14608  0.84377  0.52512  1.0000
  C   C676      1.0  0.26898  0.87148  0.96347  1.0000
  C   C677      1.0  0.31706  0.88103  0.58680  1.0000
  H   H812      1.0  0.30193  0.81781  0.91866  1.0000
  C   C678      1.0  0.16240  0.77011  0.95093  1.0000
  H   H813      1.0  0.26784  0.93554  0.98364  1.0000
  C   C679      1.0  0.45142  0.76251  0.67447  1.0000
  S   S197      1.0  0.47581  0.81817  0.60280  1.0000
  H   H814      1.0  0.18405  0.81916  0.95884  1.0000
  C   C680      1.0  0.37974  0.79727  0.98870  1.0000
  H   H815      1.0  0.48479  0.75659  0.72388  1.0000
  H   H816      1.0  0.35317  0.84504  0.97714  1.0000
  H   H817      1.0  0.31382  0.88032  0.61524  1.0000
  C   C681      1.0  0.32415  0.88208  0.51323  1.0000
  C   C682      1.0  0.44196  0.76881  0.70089  1.0000
  C   C683      1.0  0.15825  0.85456  0.98139  1.0000
  C   C684      1.0  0.20587  0.81102  0.97807  1.0000
  H   H818      1.0  0.44231  0.77473  0.75829  1.0000
  H   H819      1.0  0.40734  0.78586  0.71260  1.0000
  C   C685      1.0  0.18141  0.75211  0.94011  1.0000
  H   H820      1.0  0.41474  0.74979  0.65792  1.0000
  H   H821      1.0  0.26616  0.76835  0.50234  1.0000
  C   C686      1.0  0.22899  0.95350  0.63598  1.0000
  H   H822      1.0  0.40051  0.81475  0.54835  1.0000
  C   C687      1.0  0.24301  0.74975  0.53336  1.0000
  H   H823      1.0  0.25813  0.97698  0.84134  1.0000
  S   S198      1.0  0.11042  0.79758  0.99270  1.0000
  C   C688      1.0  0.46668  0.75817  0.68275  1.0000
  H   H824      1.0  0.47377  0.75358  0.66200  1.0000
  C   C689      1.0  0.41888  0.78177  0.72095  1.0000
  C   C690      1.0  0.21790  0.85072  0.50062  1.0000
  H   H825      1.0  0.21302  0.81588  0.56068  1.0000
  H   H826      1.0  0.21170  0.96240  0.69293  1.0000
  C   C691      1.0  0.27305  0.85367  0.53058  1.0000
  H   H827      1.0  0.48316  0.88037  0.77242  1.0000
  C   C692      1.0  0.27207  0.99071  0.92978  1.0000
  H   H828      1.0  0.27560  0.97889  0.92354  1.0000
  H   H829      1.0  0.30152  0.89814  0.57481  1.0000
  C   C693      1.0  0.26756  0.99113  0.83737  1.0000
  C   C694      1.0  0.39333  0.81794  0.52646  1.0000
  H   H830      1.0  0.27150  0.84581  0.55543  1.0000
  C   C695      1.0  0.14027  0.82435  0.95846  1.0000
  C   C696      1.0  0.29148  0.78881  0.92677  1.0000
  H   H831      1.0  0.22178  0.96274  0.62715  1.0000
  H   H832      1.0  0.19969  0.79743  0.96750  1.0000
  H   H833      1.0  0.24062  0.95531  0.61691  1.0000
  C   C697      1.0  0.27674  0.85779  0.96170  1.0000
  H   H834      1.0  0.37339  0.78256  0.98504  1.0000
  H   H835      1.0  0.28872  0.98351  0.81318  1.0000
  H   H836      1.0  0.26320  0.87527  0.93997  1.0000
  N   N45       1.0  0.33861  0.82636  0.93681  1.0000
  C   C698      1.0  0.25746  0.97905  0.54975  1.0000
  C   C699      1.0  0.22266  0.81634  0.99607  1.0000
  C   C700      1.0  0.35593  0.82544  0.92170  1.0000
  C   C701      1.0  0.32358  0.80812  0.93576  1.0000
  N   N46       1.0  0.21298  0.83098  0.51143  1.0000
  H   H837      1.0  0.44710  0.76091  0.64710  1.0000
  H   H838      1.0  0.48446  0.87192  0.82980  1.0000
  C   C702      1.0  0.30559  0.80613  0.92599  1.0000
  H   H839      1.0  0.42969  0.79456  0.72992  1.0000
  C   C703      1.0  0.28431  0.85278  0.99200  1.0000
  H   H840      1.0  0.27784  0.78766  0.91964  1.0000
  H   H841      1.0  0.15655  0.77968  0.94019  1.0000
  H   H842      1.0  0.25413  0.81874  0.96429  1.0000
  H   H843      1.0  0.40314  0.80029  0.95394  1.0000
  H   H844      1.0  0.43295  0.80389  0.99423  1.0000
  C   C704      1.0  0.44614  0.75364  0.97162  1.0000
  C   C705      1.0  0.46119  0.76099  0.99324  1.0000
  C   C706      1.0  0.27192  0.95075  0.98531  1.0000
  H   H845      1.0  0.21089  0.83774  0.56663  1.0000
  H   H846      1.0  0.35956  0.86272  0.56304  1.0000
  H   H847      1.0  0.15079  0.79505  0.98585  1.0000
  H   H848      1.0  0.41317  0.78290  0.99754  1.0000
  C   C707      1.0  0.19683  0.82337  0.97263  1.0000
  C   C708      1.0  0.32758  0.87138  0.57291  1.0000
  H   H849      1.0  0.33921  0.79222  0.95727  1.0000
  H   H850      1.0  0.21155  0.74896  0.69385  1.0000
  H   H851      1.0  0.48010  0.80594  0.74420  1.0000
  C   C709      1.0  0.24479  0.94426  0.68209  1.0000
  C   C710      1.0  0.43043  0.78654  0.66029  1.0000
  H   H852      1.0  0.27689  0.85111  0.93668  1.0000
  H   H853      1.0  0.24959  0.97239  0.73620  1.0000
  H   H854      1.0  0.31446  0.76240  0.95767  1.0000
  H   H855      1.0  0.28364  0.75974  0.93907  1.0000
  H   H856      1.0  0.12657  0.76813  0.96669  1.0000
  C   C711      1.0  0.41089  0.75619  0.68163  1.0000
  C   C712      1.0  0.24409  0.80445  0.96922  1.0000
  H   H857      1.0  0.20893  0.79435  0.51633  1.0000
  H   H858      1.0  0.24935  0.75377  0.55875  1.0000
  H   H859      1.0  0.21056  0.85754  0.51754  1.0000
  C   C713      1.0  0.24447  0.75378  0.98061  1.0000
  H   H860      1.0  0.35783  0.84441  0.53328  1.0000
  C   C714      1.0  0.25255  0.75804  0.50144  1.0000
  C   C715      1.0  0.32844  0.84544  0.49960  1.0000
  H   H861      1.0  0.47624  0.87764  0.70956  1.0000
  H   H862      1.0  0.41617  0.79945  0.50602  1.0000
  H   H863      1.0  0.25029  0.98656  0.62290  1.0000
  C   C716      1.0  0.12662  0.76085  0.99256  1.0000
  N   N47       1.0  0.34141  0.86057  0.51957  1.0000
  Fe  Fe101     1.0  0.48487  0.83879  0.55631  1.0000
  C   C717      1.0  0.15776  0.76249  0.98620  1.0000
  H   H864      1.0  0.28542  0.83713  0.50189  1.0000
  H   H865      1.0  0.40312  0.77539  0.51382  1.0000
  H   H866      1.0  0.46869  0.76719  0.77129  1.0000
  H   H867      1.0  0.42733  0.78314  0.51039  1.0000
  C   C718      1.0  0.20437  0.84142  0.98416  1.0000
  H   H868      1.0  0.19740  0.85104  0.97970  1.0000
  H   H869      1.0  0.23258  0.85874  0.50401  1.0000
  S   S199      1.0  0.18115  0.86733  0.50039  1.0000
  H   H870      1.0  0.18757  0.80754  0.51918  1.0000
  C   C719      1.0  0.28101  0.84875  0.50028  1.0000
  C   C720      1.0  0.19294  0.82192  0.50808  1.0000
  S   S200      1.0  0.26018  0.89832  0.99843  1.0000
  H   H871      1.0  0.24277  0.99538  0.52842  1.0000
  H   H872      1.0  0.36543  0.88462  0.50767  1.0000
  C   C721      1.0  0.16538  0.74925  0.99728  1.0000
  H   H873      1.0  0.43560  0.78215  0.99930  1.0000
  Fe  Fe102     1.0  0.72356  0.11680  0.38436  1.0000
  S   S201      1.0  0.74278  0.10241  0.39772  1.0000
  S   S202      1.0  0.71805  0.12481  0.32794  1.0000
  Fe  Fe103     1.0  0.71470  0.12031  0.46333  1.0000
  H   H874      1.0  0.70318  0.18985  0.46239  1.0000
  C   C722      1.0  0.71112  0.02756  0.14027  1.0000
  Fe  Fe104     1.0  0.75328  0.12380  0.44032  1.0000
  S   S203      1.0  0.78424  0.13863  0.44819  1.0000
  Fe  Fe105     1.0  0.72055  0.08538  0.43752  1.0000
  S   S204      1.0  0.71395  0.05376  0.44138  1.0000
  S   S205      1.0  0.73537  0.13922  0.42406  1.0000
  S   S206      1.0  0.70087  0.09919  0.42240  1.0000
  H   H875      1.0  0.57456  0.16374  0.44873  1.0000
  N   N48       1.0  0.69941  0.21592  0.47042  1.0000
  S   S207      1.0  0.50309  0.21500  0.42563  1.0000
  C   C723      1.0  0.69535  0.01591  0.44105  1.0000
  C   C724      1.0  0.49078  0.19654  0.28390  1.0000
  H   H876      1.0  0.54768  0.24023  0.07548  1.0000
  C   C725      1.0  0.56771  0.18721  0.02272  1.0000
  H   H877      1.0  0.84837  0.17383  0.32572  1.0000
  C   C726      1.0  0.68358  0.01798  0.35092  1.0000
  C   C727      1.0  0.54353  0.23879  0.04714  1.0000
  Fe  Fe106     1.0  0.73349  0.10981  0.12028  1.0000
  S   S208      1.0  0.74558  0.09928  0.07397  1.0000
  S   S209      1.0  0.74284  0.10427  0.17558  1.0000
  Fe  Fe107     1.0  0.70930  0.12155  0.07011  1.0000
  S   S210      1.0  0.69209  0.13953  0.06916  1.0000
  Fe  Fe108     1.0  0.71638  0.08567  0.05724  1.0000
  S   S211      1.0  0.70755  0.05528  0.03934  1.0000
  Fe  Fe109     1.0  0.74728  0.12523  0.04302  1.0000
  C   C728      1.0  0.73659  0.05726  0.12628  1.0000
  S   S212      1.0  0.70442  0.09575  0.10412  1.0000
  S   S213      1.0  0.73740  0.13660  0.09057  1.0000
  H   H878      1.0  0.76866  0.14602  0.38235  1.0000
  H   H879      1.0  0.74466  0.23587  0.03991  1.0000
  H   H880      1.0  0.77092  0.11750  0.33437  1.0000
  C   C729      1.0  0.67575  0.15889  0.02974  1.0000
  C   C730      1.0  0.60802  0.24076  0.01749  1.0000
  H   H881      1.0  0.64717  0.01803  0.45231  1.0000
  C   C731      1.0  0.69580  0.01585  0.16106  1.0000
  Fe  Fe110     1.0  0.50975  0.19228  0.06227  1.0000
  S   S214      1.0  0.53533  0.18512  0.05562  1.0000
  S   S215      1.0  0.50818  0.20936  0.10931  1.0000
  C   C732      1.0  0.59052  0.20971  0.42898  1.0000
  C   C733      1.0  0.69049  0.03263  0.04825  1.0000
  H   H882      1.0  0.82170  0.19276  0.40884  1.0000
  H   H883      1.0  0.76792  0.22282  0.02548  1.0000
  C   C734      1.0  0.67643  0.02905  0.07434  1.0000
  H   H884      1.0  0.67515  0.04030  0.08923  1.0000
  C   C735      1.0  0.71875  0.22848  0.46695  1.0000
  C   C736      1.0  0.79856  0.17226  0.02779  1.0000
  C   C737      1.0  0.81499  0.18783  0.02373  1.0000
  H   H885      1.0  0.79367  0.16622  0.05411  1.0000
  H   H886      1.0  0.82253  0.19358  0.04719  1.0000
  H   H887      1.0  0.76193  0.22816  0.47802  1.0000
  H   H888      1.0  0.81716  0.22518  0.03270  1.0000
  H   H889      1.0  0.68633  0.23596  0.47351  1.0000
  H   H890      1.0  0.56780  0.22597  0.06385  1.0000
  C   C738      1.0  0.81990  0.15899  0.46172  1.0000
  H   H891      1.0  0.67951  0.16866  0.05101  1.0000
  C   C739      1.0  0.57532  0.17675  0.43637  1.0000
  C   C740      1.0  0.66176  0.02615  0.31650  1.0000
  C   C741      1.0  0.56547  0.22145  0.49302  1.0000
  H   H892      1.0  0.78525  0.17327  0.48461  1.0000
  H   H893      1.0  0.82251  0.14777  0.44899  1.0000
  Fe  Fe111     1.0  0.49572  0.18802  0.45616  1.0000
  H   H894      1.0  0.72991  0.20768  0.48332  1.0000
  C   C742      1.0  0.69366  0.03335  0.44294  1.0000
  C   C743      1.0  0.67610  0.03389  0.44660  1.0000
  C   C744      1.0  0.66060  0.01731  0.44895  1.0000
  S   S216      1.0  0.49847  0.20755  0.02367  1.0000
  H   H895      1.0  0.67446  0.04710  0.44809  1.0000
  H   H896      1.0  0.52974  0.19550  0.41806  1.0000
  S   S217      1.0  0.71905  0.11065  0.02185  1.0000
  C   C745      1.0  0.72469  0.11839  0.28599  1.0000
  C   C746      1.0  0.73551  0.10756  0.28326  1.0000
  C   C747      1.0  0.74093  0.10336  0.24929  1.0000
  C   C748      1.0  0.73541  0.10971  0.21770  1.0000
  C   C749      1.0  0.72441  0.12033  0.22048  1.0000
  C   C750      1.0  0.71918  0.12471  0.25442  1.0000
  H   H897      1.0  0.73970  0.10244  0.30727  1.0000
  H   H898      1.0  0.74941  0.09511  0.24745  1.0000
  H   H899      1.0  0.72006  0.12533  0.19649  1.0000
  H   H900      1.0  0.71079  0.13307  0.25618  1.0000
  C   C751      1.0  0.80192  0.15846  0.46517  1.0000
  H   H901      1.0  0.51437  0.21442  0.25336  1.0000
  C   C752      1.0  0.80549  0.22998  0.03622  1.0000
  C   C753      1.0  0.72645  0.04834  0.18699  1.0000
  C   C754      1.0  0.69496  0.03661  0.35073  1.0000
  S   S218      1.0  0.73304  0.10540  0.48127  1.0000
  H   H902      1.0  0.55068  0.16451  0.40893  1.0000
  C   C755      1.0  0.67330  0.04473  0.31635  1.0000
  C   C756      1.0  0.57806  0.23453  0.04476  1.0000
  C   C757      1.0  0.56170  0.17737  0.41358  1.0000
  H   H903      1.0  0.71486  0.04309  0.20678  1.0000
  Fe  Fe112     1.0  0.49489  0.22307  0.07144  1.0000
  H   H904      1.0  0.67882  0.13348  0.45272  1.0000
  C   C758      1.0  0.68011  0.14290  0.03187  1.0000
  N   N49       1.0  0.54732  0.19453  0.37406  1.0000
  C   C759      1.0  0.54966  0.21328  0.35981  1.0000
  C   C760      1.0  0.54650  0.18271  0.34301  1.0000
  C   C761      1.0  0.52954  0.18726  0.39406  1.0000
  C   C762      1.0  0.56207  0.19427  0.39776  1.0000
  C   C763      1.0  0.57695  0.21051  0.40619  1.0000
  H   H905      1.0  0.56255  0.21948  0.34351  1.0000
  H   H906      1.0  0.53839  0.21295  0.34196  1.0000
  H   H907      1.0  0.54941  0.22268  0.38171  1.0000
  H   H908      1.0  0.55983  0.18728  0.32791  1.0000
  H   H909      1.0  0.53588  0.18313  0.32407  1.0000
  H   H910      1.0  0.54292  0.16795  0.35114  1.0000
  H   H911      1.0  0.51819  0.18767  0.37724  1.0000
  H   H912      1.0  0.52584  0.17269  0.40359  1.0000
  H   H913      1.0  0.70168  0.20220  0.42206  1.0000
  H   H914      1.0  0.57828  0.22406  0.39618  1.0000
  N   N50       1.0  0.78472  0.14707  0.33438  1.0000
  C   C764      1.0  0.78255  0.14940  0.29545  1.0000
  C   C765      1.0  0.78414  0.12806  0.34195  1.0000
  H   H915      1.0  0.66932  0.05522  0.30329  1.0000
  C   C766      1.0  0.80241  0.16047  0.34572  1.0000
  H   H916      1.0  0.53951  0.21784  0.46996  1.0000
  C   C767      1.0  0.80389  0.17225  0.37506  1.0000
  C   C768      1.0  0.69138  0.01761  0.02871  1.0000
  C   C769      1.0  0.82088  0.18424  0.38583  1.0000
  C   C770      1.0  0.83684  0.18483  0.36806  1.0000
  H   H917      1.0  0.79246  0.14566  0.27872  1.0000
  H   H918      1.0  0.65316  0.00833  0.10147  1.0000
  N   N51       1.0  0.72032  0.04714  0.14960  1.0000
  H   H919      1.0  0.79511  0.12508  0.32711  1.0000
  H   H920      1.0  0.78581  0.12587  0.37105  1.0000
  H   H921      1.0  0.67812  0.11779  0.00594  1.0000
  N   N52       1.0  0.80385  0.24118  0.00478  1.0000
  H   H922      1.0  0.71971  0.16564  0.02236  1.0000
  H   H923      1.0  0.84996  0.19392  0.37704  1.0000
  H   H924      1.0  0.70882  0.01522  0.43840  1.0000
  H   H925      1.0  0.79218  0.17212  0.39091  1.0000
  C   C771      1.0  0.58971  0.19289  0.44403  1.0000
  C   C772      1.0  0.55172  0.19122  0.01958  1.0000
  C   C773      1.0  0.83589  0.17348  0.33925  1.0000
  H   H926      1.0  0.76829  0.16306  0.34895  1.0000
  H   H927      1.0  0.73416  0.06295  0.19407  1.0000
  H   H928      1.0  0.68175  0.18997  0.44962  1.0000
  C   C774      1.0  0.70735  0.05691  0.14635  1.0000
  H   H929      1.0  0.70291  0.05683  0.11831  1.0000
  H   H930      1.0  0.69055  0.02098  0.18372  1.0000
  C   C775      1.0  0.68982  0.04996  0.33364  1.0000
  H   H931      1.0  0.65528  0.14785  0.45022  1.0000
  C   C776      1.0  0.83463  0.17375  0.47466  1.0000
  H   H932      1.0  0.54012  0.22414  0.03977  1.0000
  S   S219      1.0  0.64452  0.17045  0.49875  1.0000
  H   H933      1.0  0.73282  0.05804  0.09792  1.0000
  C   C777      1.0  0.69649  0.19884  0.45024  1.0000
  C   C778      1.0  0.54722  0.21129  0.48488  1.0000
  C   C779      1.0  0.68654  0.99748  0.15221  1.0000
  H   H934      1.0  0.67209  0.21419  0.45817  1.0000
  H   H935      1.0  0.74334  0.07183  0.13441  1.0000
  C   C780      1.0  0.73294  0.22189  0.47480  1.0000
  H   H936      1.0  0.76876  0.14040  0.28679  1.0000
  C   C781      1.0  0.79900  0.17338  0.48166  1.0000
  C   C782      1.0  0.66229  0.99989  0.44716  1.0000
  H   H937      1.0  0.72753  0.02765  0.09174  1.0000
  H   H938      1.0  0.74415  0.17273  0.01784  1.0000
  H   H939      1.0  0.62029  0.23751  0.01497  1.0000
  H   H940      1.0  0.56951  0.17998  0.04650  1.0000
  H   H941      1.0  0.63939  0.99694  0.38223  1.0000
  C   C783      1.0  0.71658  0.01970  0.11012  1.0000
  H   H942      1.0  0.69857  0.06442  0.33418  1.0000
  H   H943      1.0  0.78420  0.16392  0.28837  1.0000
  H   H944      1.0  0.81896  0.15258  0.30633  1.0000
  Fe  Fe113     1.0  0.48715  0.19760  0.38117  1.0000
  C   C784      1.0  0.83196  0.18859  0.49142  1.0000
  H   H945      1.0  0.60000  0.19248  0.46247  1.0000
  H   H946      1.0  0.64892  0.02285  0.30338  1.0000
  H   H947      1.0  0.68836  0.00849  0.36516  1.0000
  C   C785      1.0  0.68643  0.22427  0.45692  1.0000
  H   H948      1.0  0.74702  0.05071  0.12740  1.0000
  C   C786      1.0  0.77174  0.23765  0.02320  1.0000
  C   C787      1.0  0.49364  0.19804  0.21838  1.0000
  S   S220      1.0  0.50086  0.20424  0.32557  1.0000
  H   H949      1.0  0.73553  0.04037  0.19103  1.0000
  H   H950      1.0  0.68973  0.22920  0.42859  1.0000
  H   H951      1.0  0.69487  0.05062  0.16363  1.0000
  C   C788      1.0  0.66648  0.01218  0.33402  1.0000
  H   H952      1.0  0.70769  0.04081  0.36477  1.0000
  C   C789      1.0  0.76870  0.14900  0.35318  1.0000
  H   H953      1.0  0.75560  0.13906  0.34360  1.0000
  C   C790      1.0  0.81897  0.16142  0.32823  1.0000
  C   C791      1.0  0.50087  0.20397  0.25205  1.0000
  H   H954      1.0  0.59598  0.22029  0.05924  1.0000
  H   H955      1.0  0.50159  0.20391  0.19418  1.0000
  C   C792      1.0  0.66382  0.01081  0.08108  1.0000
  H   H956      1.0  0.80785  0.23815  0.06092  1.0000
  C   C793      1.0  0.67985  0.99934  0.44301  1.0000
  H   H957      1.0  0.71365  0.07157  0.15404  1.0000
  C   C794      1.0  0.66415  0.15029  0.47274  1.0000
  C   C795      1.0  0.67752  0.14219  0.47400  1.0000
  H   H958      1.0  0.84829  0.17360  0.47167  1.0000
  C   C796      1.0  0.67867  0.99939  0.03524  1.0000
  C   C797      1.0  0.75830  0.24497  0.03136  1.0000
  C   C798      1.0  0.70733  0.00125  0.10178  1.0000
  C   C799      1.0  0.59431  0.23108  0.04246  1.0000
  H   H959      1.0  0.79325  0.21724  0.04106  1.0000
  S   S221      1.0  0.51575  0.17959  0.48878  1.0000
  H   H960      1.0  0.53062  0.24157  0.04651  1.0000
  C   C800      1.0  0.66480  0.99577  0.06173  1.0000
  C   C801      1.0  0.81397  0.18839  0.49476  1.0000
  H   H961      1.0  0.60144  0.22228  0.43614  1.0000
  H   H962      1.0  0.62936  0.99971  0.34102  1.0000
  H   H963      1.0  0.57164  0.23580  0.48441  1.0000
  C   C802      1.0  0.53902  0.19280  0.49645  1.0000
  H   H964      1.0  0.70204  0.02006  0.00831  1.0000
  H   H965      1.0  0.72978  0.14955  0.00954  1.0000
  C   C803      1.0  0.67498  0.13024  0.00442  1.0000
  C   C804      1.0  0.73106  0.16420  0.00594  1.0000
  C   C805      1.0  0.75131  0.23353  0.47219  1.0000
  S   S222      1.0  0.76815  0.14417  0.00076  1.0000
  C   C806      1.0  0.66661  0.16240  0.00021  1.0000
  Fe  Fe114     1.0  0.63442  0.20256  0.61225  1.0000
  S   S223      1.0  0.61588  0.18845  0.56775  1.0000
  S   S224      1.0  0.62692  0.18965  0.66861  1.0000
  H   H966      1.0  0.66342  0.17482  0.99886  1.0000
  C   C807      1.0  0.66130  0.14969  0.97291  1.0000
  H   H967      1.0  0.55752  0.24071  0.56414  1.0000
  Fe  Fe115     1.0  0.62002  0.21701  0.54697  1.0000
  H   H968      1.0  0.56914  0.19138  0.77675  1.0000
  Fe  Fe116     1.0  0.64183  0.19172  0.53677  1.0000
  H   H969      1.0  0.74267  0.14977  0.95111  1.0000
  S   S225      1.0  0.63682  0.23110  0.59361  1.0000
  S   S226      1.0  0.65985  0.20336  0.58248  1.0000
  C   C808      1.0  0.54825  0.22753  0.57462  1.0000
  N   N53       1.0  0.64029  0.14444  0.62291  1.0000
  H   H970      1.0  0.62605  0.21911  0.82466  1.0000
  H   H971      1.0  0.57956  0.18253  0.82694  1.0000
  C   C809      1.0  0.64972  0.11599  0.54777  1.0000
  Fe  Fe117     1.0  0.86620  0.23455  0.53371  1.0000
  H   H972      1.0  0.69515  0.15787  0.55421  1.0000
  C   C810      1.0  0.59337  0.19228  0.83316  1.0000
  Fe  Fe118     1.0  0.65402  0.21224  0.87039  1.0000
  S   S227      1.0  0.62920  0.18774  0.88694  1.0000
  S   S228      1.0  0.66451  0.22357  0.81398  1.0000
  Fe  Fe119     1.0  0.66417  0.22153  0.94869  1.0000
  S   S229      1.0  0.63973  0.19791  0.97106  1.0000
  H   H973      1.0  0.56866  0.20830  0.82698  1.0000
  Fe  Fe120     1.0  0.64694  0.18160  0.92820  1.0000
  S   S230      1.0  0.64978  0.15374  0.93543  1.0000
  Fe  Fe121     1.0  0.62410  0.20617  0.92850  1.0000
  S   S231      1.0  0.59680  0.21040  0.93074  1.0000
  S   S232      1.0  0.67209  0.20467  0.90827  1.0000
  S   S233      1.0  0.64821  0.23126  0.90947  1.0000
  C   C811      1.0  0.51843  0.20386  0.58616  1.0000
  H   H974      1.0  0.54325  0.17021  0.52430  1.0000
  H   H975      1.0  0.67994  0.20222  0.51275  1.0000
  H   H976      1.0  0.49887  0.22735  0.59576  1.0000
  H   H977      1.0  0.70333  0.03062  0.52674  1.0000
  C   C812      1.0  0.52666  0.19250  0.60190  1.0000
  C   C813      1.0  0.79855  0.22914  0.97356  1.0000
  H   H978      1.0  0.78231  0.13635  0.54223  1.0000
  H   H979      1.0  0.63620  0.16001  0.57774  1.0000
  C   C814      1.0  0.66249  0.10987  0.56334  1.0000
  H   H980      1.0  0.70108  0.15970  0.96761  1.0000
  C   C815      1.0  0.81191  0.18808  0.95979  1.0000
  C   C816      1.0  0.79567  0.17231  0.96380  1.0000
  H   H981      1.0  0.81695  0.19392  0.93343  1.0000
  H   H982      1.0  0.78848  0.16615  0.94025  1.0000
  C   C817      1.0  0.57952  0.20236  0.96503  1.0000
  C   C818      1.0  0.56335  0.20601  0.96152  1.0000
  H   H983      1.0  0.79639  0.17946  0.61761  1.0000
  H   H984      1.0  0.56156  0.21324  0.93778  1.0000
  S   S234      1.0  0.85183  0.20644  0.50763  1.0000
  S   S235      1.0  0.84250  0.21600  0.98662  1.0000
  C   C819      1.0  0.61464  0.22343  0.83364  1.0000
  H   H985      1.0  0.81473  0.14061  0.53303  1.0000
  N   N54       1.0  0.73053  0.16933  0.96769  1.0000
  N   N55       1.0  0.51996  0.23327  0.55429  1.0000
  C   C820      1.0  0.68860  0.14473  0.50357  1.0000
  N   N56       1.0  0.59700  0.21135  0.81931  1.0000
  H   H986      1.0  0.87977  0.24029  0.67794  1.0000
  H   H987      1.0  0.49504  0.21130  0.53966  1.0000
  H   H988      1.0  0.72418  0.22832  0.84782  1.0000
  C   C821      1.0  0.78761  0.15761  0.58108  1.0000
  H   H989      1.0  0.70830  0.18602  0.99708  1.0000
  H   H990      1.0  0.62306  0.23120  0.70423  1.0000
  H   H991      1.0  0.85674  0.19334  0.57832  1.0000
  S   S236      1.0  0.88273  0.23731  0.58357  1.0000
  C   C822      1.0  0.58257  0.21764  0.83377  1.0000
  C   C823      1.0  0.68669  0.15598  0.53114  1.0000
  C   C824      1.0  0.81978  0.17410  0.59492  1.0000
  C   C825      1.0  0.74745  0.20247  0.94474  1.0000
  C   C826      1.0  0.73270  0.18904  0.96438  1.0000
  H   H992      1.0  0.66131  0.12361  0.95429  1.0000
  H   H993      1.0  0.51833  0.17877  0.61196  1.0000
  C   C827      1.0  0.65999  0.12521  0.61778  1.0000
  H   H994      1.0  0.88808  0.23315  0.73865  1.0000
  C   C828      1.0  0.82440  0.16261  0.57036  1.0000
  C   C829      1.0  0.64223  0.12702  0.56678  1.0000
  H   H995      1.0  0.50372  0.19849  0.58528  1.0000
  C   C830      1.0  0.63794  0.19910  0.70855  1.0000
  C   C831      1.0  0.65273  0.21591  0.70846  1.0000
  C   C832      1.0  0.66075  0.22314  0.74088  1.0000
  C   C833      1.0  0.65415  0.21367  0.77375  1.0000
  C   C834      1.0  0.63947  0.19678  0.77381  1.0000
  C   C835      1.0  0.63142  0.18958  0.74141  1.0000
  H   H996      1.0  0.65789  0.22342  0.68344  1.0000
  C   C836      1.0  0.50695  0.22267  0.52742  1.0000
  H   H997      1.0  0.63440  0.18922  0.79878  1.0000
  H   H998      1.0  0.61998  0.17658  0.74184  1.0000
  H   H999      1.0  0.59408  0.19171  0.86287  1.0000
  C   C837      1.0  0.69504  0.01606  0.53027  1.0000
  H   H1000     1.0  0.84343  0.21845  0.61806  1.0000
  C   C838      1.0  0.83277  0.20697  0.60473  1.0000
  H   H1001     1.0  0.66981  0.02078  0.53255  1.0000
  H   H1002     1.0  0.81947  0.20800  0.61252  1.0000
  H   H1003     1.0  0.76028  0.23103  0.92730  1.0000
  C   C839      1.0  0.67356  0.16434  0.52954  1.0000
  H   H1004     1.0  0.77332  0.15577  0.58465  1.0000
  H   H1005     1.0  0.67207  0.17275  0.55108  1.0000
  C   C840      1.0  0.80094  0.17115  0.59972  1.0000
  C   C841      1.0  0.85264  0.18980  0.60705  1.0000
  H   H1006     1.0  0.63735  0.12901  0.67289  1.0000
  C   C842      1.0  0.67613  0.01048  0.53359  1.0000
  H   H1007     1.0  0.59383  0.18969  0.99857  1.0000
  H   H1008     1.0  0.83481  0.20967  0.57529  1.0000
  Fe  Fe122     1.0  0.85799  0.23749  0.94201  1.0000
  H   H1009     1.0  0.61611  0.14073  0.59292  1.0000
  H   H1010     1.0  0.78592  0.21690  0.97909  1.0000
  H   H1011     1.0  0.82986  0.17148  0.66204  1.0000
  H   H1012     1.0  0.83833  0.16413  0.56387  1.0000
  S   S237      1.0  0.64467  0.21928  0.51250  1.0000
  H   H1013     1.0  0.61797  0.23818  0.82568  1.0000
  C   C843      1.0  0.62862  0.15189  0.60176  1.0000
  H   H1014     1.0  0.55196  0.18963  0.61553  1.0000
  C   C844      1.0  0.66752  0.11435  0.59836  1.0000
  C   C845      1.0  0.62921  0.13401  0.65429  1.0000
  H   H1015     1.0  0.57108  0.22071  0.59176  1.0000
  C   C846      1.0  0.72142  0.21382  0.97868  1.0000
  C   C847      1.0  0.54557  0.19860  0.60407  1.0000
  H   H1016     1.0  0.66883  0.10200  0.54788  1.0000
  H   H1017     1.0  0.58450  0.23174  0.82323  1.0000
  C   C848      1.0  0.58116  0.20028  0.76189  1.0000
  H   H1018     1.0  0.57560  0.18805  0.53772  1.0000
  C   C849      1.0  0.64741  0.13224  0.60231  1.0000
  H   H1019     1.0  0.60350  0.18674  0.82178  1.0000
  H   H1020     1.0  0.75864  0.17225  0.95856  1.0000
  C   C850      1.0  0.71272  0.15767  0.95352  1.0000
  C   C851      1.0  0.74489  0.16476  0.94801  1.0000
  H   H1021     1.0  0.67756  0.10961  0.61019  1.0000
  H   H1022     1.0  0.71031  0.14266  0.95671  1.0000
  S   S238      1.0  0.84333  0.24208  0.89413  1.0000
  H   H1023     1.0  0.62377  0.16128  0.61770  1.0000
  H   H1024     1.0  0.80940  0.22376  0.96565  1.0000
  C   C852      1.0  0.52899  0.22161  0.57135  1.0000
  H   H1025     1.0  0.85437  0.17657  0.61423  1.0000
  H   H1026     1.0  0.64616  0.11279  0.52022  1.0000
  H   H1027     1.0  0.66431  0.12828  0.64485  1.0000
  S   S239      1.0  0.87648  0.23860  0.80924  1.0000
  C   C853      1.0  0.54945  0.18450  0.51531  1.0000
  C   C854      1.0  0.70322  0.00289  0.52996  1.0000
  H   H1028     1.0  0.62344  0.14277  0.67014  1.0000
  H   H1029     1.0  0.51372  0.21636  0.50802  1.0000
  H   H1030     1.0  0.74505  0.16778  0.91882  1.0000
  C   C855      1.0  0.57585  0.21319  0.51220  1.0000
  C   C856      1.0  0.59585  0.21114  0.70391  1.0000
  H   H1031     1.0  0.54918  0.23610  0.97502  1.0000
  H   H1032     1.0  0.65082  0.17060  0.64916  1.0000
  H   H1033     1.0  0.86270  0.20070  0.62264  1.0000
  C   C857      1.0  0.81092  0.14898  0.55221  1.0000
  H   H1034     1.0  0.81155  0.19967  0.50759  1.0000
  C   C858      1.0  0.82997  0.18537  0.65373  1.0000
  H   H1035     1.0  0.61760  0.12173  0.64581  1.0000
  H   H1036     1.0  0.70039  0.22377  0.85069  1.0000
  H   H1037     1.0  0.66513  0.16789  0.61332  1.0000
  C   C859      1.0  0.58078  0.19998  0.72455  1.0000
  H   H1038     1.0  0.58265  0.21809  0.86355  1.0000
  H   H1039     1.0  0.61438  0.22282  0.86338  1.0000
  H   H1040     1.0  0.66380  0.15639  0.65590  1.0000
  H   H1041     1.0  0.63290  0.13174  0.55242  1.0000
  H   H1042     1.0  0.71270  0.22475  0.89102  1.0000
  C   C860      1.0  0.79260  0.14656  0.55736  1.0000
  H   H1043     1.0  0.50106  0.23148  0.51203  1.0000
  H   H1044     1.0  0.75797  0.19899  0.93109  1.0000
  C   C861      1.0  0.65568  0.16045  0.63582  1.0000
  Fe  Fe123     1.0  0.66105  0.23094  0.56026  1.0000
  H   H1045     1.0  0.71178  0.16086  0.92469  1.0000
  H   H1046     1.0  0.62454  0.23195  0.76866  1.0000
  S   S240      1.0  0.68670  0.23675  0.98572  1.0000
  C   C862      1.0  0.66545  0.13356  0.97522  1.0000
  C   C863      1.0  0.73590  0.22660  0.95909  1.0000
  N   N57       1.0  0.83364  0.18874  0.61462  1.0000
  H   H1047     1.0  0.81666  0.18610  0.66243  1.0000
  H   H1048     1.0  0.84051  0.19585  0.66935  1.0000
  S   S241      1.0  0.59857  0.22686  0.52281  1.0000
  C   C864      1.0  0.59683  0.21164  0.77972  1.0000
  C   C865      1.0  0.56780  0.19458  0.52297  1.0000
  H   H1049     1.0  0.70254  0.20273  0.51993  1.0000
  S   S242      1.0  0.88423  0.24159  0.91010  1.0000
  C   C866      1.0  0.71353  0.23121  0.86386  1.0000
  H   H1050     1.0  0.56884  0.19089  0.71151  1.0000
  C   C867      1.0  0.74894  0.22098  0.94226  1.0000
  C   C868      1.0  0.61189  0.22303  0.75780  1.0000
  S   S243      1.0  0.70391  0.13299  0.50872  1.0000
  C   C869      1.0  0.54947  0.20037  0.98854  1.0000
  C   C870      1.0  0.87029  0.24432  0.76658  1.0000
  H   H1051     1.0  0.53701  0.20304  0.98539  1.0000
  H   H1052     1.0  0.71794  0.00733  0.52661  1.0000
  C   C871      1.0  0.55631  0.21613  0.59078  1.0000
  C   C872      1.0  0.58154  0.19272  0.99559  1.0000
  H   H1053     1.0  0.67209  0.23621  0.74046  1.0000
  H   H1054     1.0  0.59577  0.21057  0.67497  1.0000
  C   C873      1.0  0.87827  0.23985  0.73580  1.0000
  C   C874      1.0  0.82184  0.19592  0.98976  1.0000
  C   C875      1.0  0.61125  0.22278  0.72049  1.0000
  C   C876      1.0  0.71982  0.19536  0.98143  1.0000
  C   C877      1.0  0.69466  0.21079  0.50867  1.0000
  H   H1055     1.0  0.69747  0.22330  0.52499  1.0000
  C   C878      1.0  0.50968  0.23927  0.58200  1.0000
  C   C879      1.0  0.87356  0.24386  0.70135  1.0000
  H   H1056     1.0  0.71129  0.21817  0.99195  1.0000
  H   H1057     1.0  0.79643  0.23693  0.94985  1.0000
  C   C880      1.0  0.78882  0.16421  0.99778  1.0000
  H   H1058     1.0  0.68797  0.24557  0.86933  1.0000
  H   H1059     1.0  0.73707  0.24092  0.95744  1.0000
  H   H1060     1.0  0.50223  0.24412  0.99895  1.0000
  C   C881      1.0  0.66201  0.16123  0.50064  1.0000
  Fe  Fe124     1.0  0.78809  0.31970  0.42034  1.0000
  S   S244      1.0  0.76716  0.31559  0.37811  1.0000
  S   S245      1.0  0.79669  0.29524  0.43055  1.0000
  Fe  Fe125     1.0  0.78581  0.35673  0.44189  1.0000
  S   S246      1.0  0.76442  0.35497  0.40211  1.0000
  H   H1061     1.0  0.50157  0.37039  0.03626  1.0000
  Fe  Fe126     1.0  0.75175  0.32496  0.41990  1.0000
  S   S247      1.0  0.72121  0.30903  0.42499  1.0000
  Fe  Fe127     1.0  0.78161  0.34560  0.36381  1.0000
  S   S248      1.0  0.78838  0.35984  0.30861  1.0000
  S   S249      1.0  0.77179  0.32743  0.46286  1.0000
  S   S250      1.0  0.80402  0.34908  0.40275  1.0000
  H   H1062     1.0  0.68765  0.46690  0.34169  1.0000
  H   H1063     1.0  0.82623  0.32673  0.27140  1.0000
  H   H1064     1.0  0.56216  0.41678  0.37729  1.0000
  Fe  Fe128     1.0  0.63186  0.48493  0.36881  1.0000
  H   H1065     1.0  0.80962  0.26769  0.45748  1.0000
  S   S251      1.0  0.62064  0.47180  0.31640  1.0000
  Fe  Fe129     1.0  0.62610  0.47384  0.44856  1.0000
  H   H1066     1.0  0.53421  0.35557  0.41325  1.0000
  S   S252      1.0  0.64065  0.46580  0.40329  1.0000
  Fe  Fe130     1.0  0.77904  0.37064  0.05239  1.0000
  S   S253      1.0  0.75189  0.35024  0.07255  1.0000
  S   S254      1.0  0.78075  0.40047  0.05341  1.0000
  Fe  Fe131     1.0  0.79461  0.34002  0.04230  1.0000
  S   S255      1.0  0.76830  0.31774  0.06023  1.0000
  C   C882      1.0  0.71616  0.47786  0.01553  1.0000
  Fe  Fe132     1.0  0.75490  0.33323  0.02683  1.0000
  C   C883      1.0  0.50834  0.26727  0.03341  1.0000
  Fe  Fe133     1.0  0.76785  0.33684  0.10442  1.0000
  S   S256      1.0  0.76042  0.32303  0.15990  1.0000
  H   H1067     1.0  0.90454  0.29458  0.44785  1.0000
  S   S257      1.0  0.79475  0.35853  0.08809  1.0000
  C   C884      1.0  0.77978  0.27568  0.01742  1.0000
  H   H1068     1.0  0.71672  0.25798  0.02626  1.0000
  C   C885      1.0  0.65899  0.45720  0.29879  1.0000
  Fe  Fe134     1.0  0.65954  0.47911  0.05826  1.0000
  H   H1069     1.0  0.51513  0.29305  0.06036  1.0000
  S   S258      1.0  0.68620  0.47431  0.05810  1.0000
  Fe  Fe135     1.0  0.61798  0.46270  0.05413  1.0000
  S   S259      1.0  0.59535  0.43421  0.05060  1.0000
  S   S260      1.0  0.63729  0.46501  0.09931  1.0000
  S   S261      1.0  0.64060  0.47486  0.01257  1.0000
  H   H1070     1.0  0.70454  0.47867  0.30796  1.0000
  H   H1071     1.0  0.62852  0.42933  0.01549  1.0000
  C   C886      1.0  0.82374  0.31981  0.00007  1.0000
  H   H1072     1.0  0.50585  0.25430  0.45598  1.0000
  H   H1073     1.0  0.85814  0.32859  0.47455  1.0000
  C   C887      1.0  0.73312  0.38672  0.02680  1.0000
  C   C888      1.0  0.56390  0.35134  0.43840  1.0000
  C   C889      1.0  0.57512  0.24799  0.02194  1.0000
  H   H1074     1.0  0.57987  0.45034  0.44724  1.0000
  C   C890      1.0  0.71302  0.26754  0.00967  1.0000
  H   H1075     1.0  0.92525  0.30169  0.42048  1.0000
  S   S262      1.0  0.78137  0.35425  0.00492  1.0000
  C   C891      1.0  0.51496  0.40842  0.03635  1.0000
  S   S263      1.0  0.61520  0.49001  0.06553  1.0000
  H   H1076     1.0  0.73815  0.29989  0.48735  1.0000
  H   H1077     1.0  0.52798  0.28461  0.47415  1.0000
  H   H1078     1.0  0.77567  0.43479  0.04133  1.0000
  H   H1079     1.0  0.71431  0.25406  0.45203  1.0000
  C   C892      1.0  0.70722  0.49555  0.44703  1.0000
  S   S264      1.0  0.78872  0.45836  0.47352  1.0000
  S   S265      1.0  0.61563  0.49143  0.41367  1.0000
  C   C893      1.0  0.57519  0.43972  0.46815  1.0000
  C   C894      1.0  0.69074  0.46780  0.31226  1.0000
  H   H1080     1.0  0.65885  0.48443  0.24094  1.0000
  H   H1081     1.0  0.80649  0.27837  0.00088  1.0000
  H   H1082     1.0  0.92634  0.34042  0.48098  1.0000
  H   H1083     1.0  0.78494  0.40643  0.37616  1.0000
  H   H1084     1.0  0.72765  0.48646  0.42329  1.0000
  C   C895      1.0  0.78934  0.43582  0.47886  1.0000
  C   C896      1.0  0.83786  0.31279  0.00177  1.0000
  C   C897      1.0  0.62506  0.48242  0.27309  1.0000
  C   C898      1.0  0.61989  0.47123  0.24318  1.0000
  C   C899      1.0  0.62373  0.47897  0.20818  1.0000
  S   S266      1.0  0.50276  0.25401  0.07346  1.0000
  H   H1085     1.0  0.61296  0.45648  0.24708  1.0000
  H   H1086     1.0  0.61971  0.47019  0.18541  1.0000
  C   C900      1.0  0.51997  0.40289  0.06967  1.0000
  H   H1087     1.0  0.68882  0.47891  0.14827  1.0000
  H   H1088     1.0  0.94829  0.29137  0.48148  1.0000
  C   C901      1.0  0.97544  0.31065  0.47659  1.0000
  N   N58       1.0  0.55590  0.36484  0.45087  1.0000
  H   H1089     1.0  0.83966  0.42016  0.33615  1.0000
  H   H1090     1.0  0.80551  0.39130  0.40429  1.0000
  H   H1091     1.0  0.90672  0.32414  0.46227  1.0000
  H   H1092     1.0  0.82719  0.26498  0.01851  1.0000
  H   H1093     1.0  0.65502  0.45552  0.32782  1.0000
  H   H1094     1.0  0.79239  0.41903  0.33456  1.0000
  C   C902      1.0  0.79332  0.26850  0.00934  1.0000
  H   H1095     1.0  0.57824  0.35495  0.44659  1.0000
  H   H1096     1.0  0.55023  0.45045  0.02784  1.0000
  C   C903      1.0  0.78130  0.34914  0.26732  1.0000
  C   C904      1.0  0.78585  0.35996  0.23547  1.0000
  C   C905      1.0  0.77989  0.35212  0.20226  1.0000
  C   C906      1.0  0.76915  0.33337  0.20067  1.0000
  C   C907      1.0  0.76471  0.32252  0.23250  1.0000
  C   C908      1.0  0.77094  0.33031  0.26562  1.0000
  H   H1097     1.0  0.79389  0.37455  0.23649  1.0000
  H   H1098     1.0  0.78331  0.36065  0.17802  1.0000
  H   H1099     1.0  0.75634  0.30803  0.23151  1.0000
  H   H1100     1.0  0.76770  0.32179  0.28981  1.0000
  C   C909      1.0  0.92194  0.32894  0.46191  1.0000
  C   C910      1.0  0.78302  0.40521  0.45424  1.0000
  C   C911      1.0  0.69771  0.47152  0.19848  1.0000
  S   S267      1.0  0.79795  0.38022  0.48006  1.0000
  C   C912      1.0  0.83112  0.31433  0.45538  1.0000
  H   H1101     1.0  0.54847  0.27365  0.03558  1.0000
  C   C913      1.0  0.81743  0.29717  0.45035  1.0000
  C   C914      1.0  0.50119  0.26343  0.47148  1.0000
  C   C915      1.0  0.53623  0.35759  0.44239  1.0000
  C   C916      1.0  0.69487  0.46986  0.23572  1.0000
  C   C917      1.0  0.82508  0.41670  0.32953  1.0000
  H   H1102     1.0  0.75191  0.26960  0.03491  1.0000
  H   H1103     1.0  0.59202  0.38638  0.45907  1.0000
  H   H1104     1.0  0.74561  0.39809  0.03513  1.0000
  H   H1105     1.0  0.74726  0.49325  0.47614  1.0000
  C   C918      1.0  0.71245  0.29343  0.46189  1.0000
  C   C919      1.0  0.75607  0.25208  0.46220  1.0000
  H   H1106     1.0  0.72237  0.47583  0.03996  1.0000
  H   H1107     1.0  0.81999  0.47304  0.38868  1.0000
  C   C920      1.0  0.56821  0.40526  0.02128  1.0000
  C   C921      1.0  0.55055  0.41326  0.49626  1.0000
  C   C922      1.0  0.72408  0.24758  0.45737  1.0000
  H   H1108     1.0  0.82851  0.39714  0.38623  1.0000
  C   C923      1.0  0.69844  0.47818  0.01686  1.0000
  C   C924      1.0  0.78821  0.29452  0.23962  1.0000
  H   H1109     1.0  0.77661  0.39513  0.43457  1.0000
  H   H1110     1.0  0.82121  0.40475  0.31141  1.0000
  C   C925      1.0  0.79330  0.40095  0.48059  1.0000
  C   C926      1.0  0.81908  0.42852  0.38589  1.0000
  H   H1111     1.0  0.52880  0.34390  0.45597  1.0000
  H   H1112     1.0  0.74631  0.27362  0.44749  1.0000
  Fe  Fe136     1.0  0.63605  0.49304  0.10773  1.0000
  C   C927      1.0  0.56131  0.27064  0.03422  1.0000
  H   H1113     1.0  0.77395  0.42611  0.43173  1.0000
  C   C928      1.0  0.74250  0.25909  0.45491  1.0000
  C   C929      1.0  0.72366  0.49228  0.44661  1.0000
  C   C930      1.0  0.81736  0.44538  0.37476  1.0000
  H   H1114     1.0  0.82415  0.42863  0.31391  1.0000
  C   C931      1.0  0.52624  0.42605  0.02187  1.0000
  H   H1115     1.0  0.67486  0.48900  0.33609  1.0000
  H   H1116     1.0  0.55612  0.33719  0.44976  1.0000
  H   H1117     1.0  0.60659  0.49023  0.49677  1.0000
  C   C932      1.0  0.58693  0.41839  0.40230  1.0000
  C   C933      1.0  0.56623  0.38330  0.43427  1.0000
  C   C934      1.0  0.58501  0.39245  0.44119  1.0000
  H   H1118     1.0  0.69124  0.45416  0.30521  1.0000
  C   C935      1.0  0.59510  0.40980  0.42569  1.0000
  C   C936      1.0  0.67586  0.48961  0.30632  1.0000
  H   H1119     1.0  0.84603  0.31494  0.02530  1.0000
  N   N59       1.0  0.67684  0.47233  0.29181  1.0000
  H   H1120     1.0  0.56717  0.27274  0.06129  1.0000
  N   N60       1.0  0.81326  0.41241  0.36242  1.0000
  C   C937      1.0  0.72380  0.29161  0.48874  1.0000
  H   H1121     1.0  0.51213  0.38965  0.08224  1.0000
  H   H1122     1.0  0.73447  0.29161  0.02831  1.0000
  C   C938      1.0  0.67285  0.48249  0.19298  1.0000
  C   C939      1.0  0.68081  0.47454  0.25269  1.0000
  S   S268      1.0  0.61048  0.45358  0.49347  1.0000
  C   C940      1.0  0.50131  0.37823  0.01128  1.0000
  S   S269      1.0  0.81927  0.33146  0.03718  1.0000
  C   C941      1.0  0.55826  0.39257  0.41057  1.0000
  N   N61       1.0  0.92832  0.31378  0.47230  1.0000
  C   C942      1.0  0.57861  0.42429  0.01835  1.0000
  N   N62       1.0  0.72000  0.31971  0.31491  1.0000
  C   C943      1.0  0.72430  0.30295  0.32271  1.0000
  C   C944      1.0  0.73337  0.33525  0.33366  1.0000
  C   C945      1.0  0.70162  0.31686  0.33046  1.0000
  C   C946      1.0  0.72026  0.32298  0.27573  1.0000
  C   C947      1.0  0.73186  0.33966  0.25815  1.0000
  C   C948      1.0  0.70876  0.30910  0.25383  1.0000
  C   C949      1.0  0.73207  0.34200  0.22097  1.0000
  C   C950      1.0  0.70924  0.31154  0.21664  1.0000
  C   C951      1.0  0.72096  0.32792  0.20025  1.0000
  H   H1123     1.0  0.73750  0.30403  0.30961  1.0000
  H   H1124     1.0  0.72538  0.30073  0.35196  1.0000
  H   H1125     1.0  0.71366  0.29015  0.31354  1.0000
  H   H1126     1.0  0.74764  0.33777  0.32428  1.0000
  H   H1127     1.0  0.73273  0.33237  0.36299  1.0000
  H   H1128     1.0  0.73060  0.34824  0.33018  1.0000
  H   H1129     1.0  0.69088  0.30450  0.32001  1.0000
  H   H1130     1.0  0.70111  0.31477  0.36015  1.0000
  H   H1131     1.0  0.69770  0.32902  0.32460  1.0000
  H   H1132     1.0  0.74136  0.35092  0.27225  1.0000
  H   H1133     1.0  0.69951  0.29612  0.26527  1.0000
  C   C952      1.0  0.96052  0.33790  0.46606  1.0000
  H   H1134     1.0  0.70072  0.30058  0.20029  1.0000
  H   H1135     1.0  0.72178  0.32956  0.17133  1.0000
  H   H1136     1.0  0.65919  0.44380  0.28931  1.0000
  C   C953      1.0  0.79405  0.40811  0.35213  1.0000
  S   S270      1.0  0.52754  0.39754  0.49581  1.0000
  H   H1137     1.0  0.78294  0.29048  0.01523  1.0000
  C   C954      1.0  0.68670  0.47779  0.17716  1.0000
  C   C955      1.0  0.54154  0.43726  0.03973  1.0000
  S   S271      1.0  0.69342  0.49032  0.40920  1.0000
  H   H1138     1.0  0.70843  0.46782  0.18593  1.0000
  N   N63       1.0  0.49888  0.39593  0.01794  1.0000
  C   C956      1.0  0.80061  0.30477  0.26419  1.0000
  Fe  Fe137     1.0  0.66493  0.49094  0.41491  1.0000
  C   C957      1.0  0.82927  0.45960  0.43029  1.0000
  H   H1139     1.0  0.52931  0.36701  0.45172  1.0000
  C   C958      1.0  0.84755  0.31527  0.47091  1.0000
  H   H1140     1.0  0.70379  0.46480  0.25054  1.0000
  C   C959      1.0  0.83168  0.44349  0.44159  1.0000
  C   C960      1.0  0.56858  0.40979  0.39475  1.0000
  H   H1141     1.0  0.77031  0.26110  0.46023  1.0000
  C   C961      1.0  0.81430  0.39542  0.37947  1.0000
  C   C962      1.0  0.78137  0.42268  0.45297  1.0000
  H   H1142     1.0  0.74149  0.35454  0.20793  1.0000
  H   H1143     1.0  0.98126  0.30019  0.48187  1.0000
  H   H1144     1.0  0.95573  0.34916  0.46240  1.0000
  H   H1145     1.0  0.80961  0.38353  0.36142  1.0000
  H   H1146     1.0  0.82817  0.41586  0.43126  1.0000
  H   H1147     1.0  0.60924  0.41685  0.43242  1.0000
  C   C963      1.0  0.85029  0.29910  0.48186  1.0000
  C   C964      1.0  0.69376  0.28253  0.46427  1.0000
  C   C965      1.0  0.51405  0.28655  0.03477  1.0000
  H   H1148     1.0  0.54767  0.42843  0.44941  1.0000
  H   H1149     1.0  0.78875  0.39509  0.33711  1.0000
  C   C966      1.0  0.83650  0.28195  0.47723  1.0000
  H   H1150     1.0  0.92693  0.33446  0.43441  1.0000
  C   C967      1.0  0.66992  0.48088  0.23009  1.0000
  H   H1151     1.0  0.83668  0.44261  0.46807  1.0000
  C   C968      1.0  0.82017  0.28101  0.46136  1.0000
  H   H1152     1.0  0.68528  0.43857  0.00686  1.0000
  C   C969      1.0  0.78721  0.41648  0.01663  1.0000
  H   H1153     1.0  0.65786  0.43608  0.04311  1.0000
  C   C970      1.0  0.78976  0.24923  0.01242  1.0000
  H   H1154     1.0  0.68484  0.28391  0.44374  1.0000
  C   C971      1.0  0.51367  0.28059  0.48167  1.0000
  C   C972      1.0  0.65674  0.43357  0.01466  1.0000
  H   H1155     1.0  0.77553  0.28395  0.24913  1.0000
  C   C973      1.0  0.58732  0.43828  0.49373  1.0000
  H   H1156     1.0  0.55852  0.43972  0.08502  1.0000
  C   C974      1.0  0.55691  0.42728  0.46948  1.0000
  C   C975      1.0  0.97946  0.34266  0.46721  1.0000
  H   H1157     1.0  0.54399  0.38703  0.40438  1.0000
  H   H1158     1.0  0.82911  0.32686  0.44704  1.0000
  H   H1159     1.0  0.73294  0.37378  0.04037  1.0000
  H   H1160     1.0  0.66361  0.49232  0.29766  1.0000
  C   C976      1.0  0.51805  0.29746  0.00309  1.0000
  H   H1161     1.0  0.81191  0.44683  0.34915  1.0000
  H   H1162     1.0  0.79761  0.30213  0.29266  1.0000
  N   N64       1.0  0.81248  0.31656  0.15099  1.0000
  C   C977      1.0  0.79820  0.30477  0.12748  1.0000
  C   C978      1.0  0.81457  0.33600  0.14322  1.0000
  C   C979      1.0  0.82984  0.31419  0.14083  1.0000
  C   C980      1.0  0.80819  0.31218  0.18965  1.0000
  C   C981      1.0  0.82057  0.32226  0.21548  1.0000
  C   C982      1.0  0.79178  0.29820  0.20288  1.0000
  C   C983      1.0  0.81674  0.31863  0.25215  1.0000
  H   H1163     1.0  0.66421  0.48730  0.17638  1.0000
  C   C984      1.0  0.54623  0.43125  0.07203  1.0000
  H   H1164     1.0  0.78491  0.30654  0.13243  1.0000
  H   H1165     1.0  0.80184  0.30845  0.09865  1.0000
  H   H1166     1.0  0.79619  0.28992  0.13115  1.0000
  H   H1167     1.0  0.81767  0.33973  0.11426  1.0000
  H   H1168     1.0  0.82587  0.34602  0.15777  1.0000
  H   H1169     1.0  0.80184  0.33839  0.15087  1.0000
  H   H1170     1.0  0.82913  0.29992  0.14754  1.0000
  H   H1171     1.0  0.83306  0.31680  0.11152  1.0000
  H   H1172     1.0  0.84172  0.32395  0.15447  1.0000
  H   H1173     1.0  0.83323  0.33322  0.20751  1.0000
  H   H1174     1.0  0.78127  0.29016  0.18547  1.0000
  H   H1175     1.0  0.59473  0.43198  0.39075  1.0000
  C   C985      1.0  0.82664  0.42810  0.41994  1.0000
  H   H1176     1.0  0.57094  0.28122  0.01564  1.0000
  C   C986      1.0  0.82220  0.46058  0.39689  1.0000
  H   H1177     1.0  0.57021  0.39717  0.04353  1.0000
  H   H1178     1.0  0.53929  0.40944  0.11198  1.0000
  H   H1179     1.0  0.64776  0.45980  0.28491  1.0000
  C   C987      1.0  0.78280  0.43246  0.01795  1.0000
  C   C988      1.0  0.91962  0.29821  0.44837  1.0000
  N   N65       1.0  0.55785  0.25157  0.02256  1.0000
  H   H1180     1.0  0.67203  0.26185  0.49520  1.0000
  C   C989      1.0  0.53544  0.41413  0.08703  1.0000
  H   H1181     1.0  0.56379  0.35062  0.40872  1.0000
  H   H1182     1.0  0.72120  0.38953  0.03787  1.0000
  C   C990      1.0  0.72310  0.28656  0.01084  1.0000
  H   H1183     1.0  0.52235  0.31233  0.00427  1.0000
  C   C991      1.0  0.95652  0.30574  0.47597  1.0000
  C   C992      1.0  0.94843  0.31920  0.47054  1.0000
  H   H1184     1.0  0.83230  0.47114  0.44799  1.0000
  C   C993      1.0  0.76232  0.26395  0.02848  1.0000
  H   H1185     1.0  0.92152  0.28530  0.45718  1.0000
  C   C994      1.0  0.68648  0.27001  0.49337  1.0000
  C   C995      1.0  0.55692  0.36564  0.49033  1.0000
  H   H1186     1.0  0.83851  0.26941  0.48538  1.0000
  C   C996      1.0  0.50690  0.25896  0.00030  1.0000
  C   C997      1.0  0.71843  0.29899  0.98941  1.0000
  H   H1187     1.0  0.58348  0.44929  0.98724  1.0000
  S   S272      1.0  0.89035  0.28183  0.57962  1.0000
  Fe  Fe138     1.0  0.50594  0.35294  0.60717  1.0000
  S   S273      1.0  0.51441  0.36172  0.66404  1.0000
  H   H1188     1.0  0.86059  0.48244  0.81166  1.0000
  Fe  Fe139     1.0  0.51073  0.33196  0.54170  1.0000
  H   H1189     1.0  0.50281  0.24827  0.57023  1.0000
  H   H1190     1.0  0.62658  0.48486  0.53662  1.0000
  Fe  Fe140     1.0  0.51393  0.37190  0.53203  1.0000
  H   H1191     1.0  0.91715  0.29908  0.84145  1.0000
  S   S274      1.0  0.52877  0.35825  0.56589  1.0000
  H   H1192     1.0  0.93956  0.30208  0.85376  1.0000
  S   S275      1.0  0.76885  0.47332  0.55940  1.0000
  S   S276      1.0  0.68953  0.25269  0.55718  1.0000
  C   C998      1.0  0.81395  0.26131  0.59586  1.0000
  C   C999      1.0  0.95906  0.31763  0.92919  1.0000
  C   C1000     1.0  0.83062  0.48256  0.69782  1.0000
  C   C1001     1.0  0.73413  0.26056  0.88510  1.0000
  H   H1193     1.0  0.95330  0.32824  0.93235  1.0000
  N   N66       1.0  0.73548  0.48481  0.65863  1.0000
  H   H1194     1.0  0.68164  0.26814  0.94912  1.0000
  S   S277      1.0  0.51016  0.34403  0.97032  1.0000
  S   S278      1.0  0.87972  0.27875  0.87337  1.0000
  Fe  Fe141     1.0  0.51121  0.32534  0.92619  1.0000
  C   C1002     1.0  0.70065  0.25306  0.88374  1.0000
  S   S279      1.0  0.52245  0.30250  0.93011  1.0000
  H   H1195     1.0  0.76382  0.43788  0.91400  1.0000
  H   H1196     1.0  0.59241  0.40466  0.95054  1.0000
  H   H1197     1.0  0.92804  0.31898  0.52845  1.0000
  Fe  Fe142     1.0  0.51793  0.36648  0.92747  1.0000
  S   S280      1.0  0.53705  0.39658  0.93264  1.0000
  S   S281      1.0  0.52139  0.34811  0.88401  1.0000
  H   H1198     1.0  0.55789  0.40156  0.54338  1.0000
  H   H1199     1.0  0.77973  0.28426  0.93499  1.0000
  C   C1003     1.0  0.57579  0.43460  0.98959  1.0000
  C   C1004     1.0  0.98616  0.30921  0.92358  1.0000
  C   C1005     1.0  0.86054  0.25210  0.69736  1.0000
  H   H1200     1.0  0.74155  0.45248  0.92963  1.0000
  Fe  Fe143     1.0  0.79330  0.48255  0.91579  1.0000
  S   S282      1.0  0.80365  0.45891  0.92253  1.0000
  S   S283      1.0  0.77409  0.47982  0.87074  1.0000
  C   C1006     1.0  0.51359  0.36261  0.73747  1.0000
  C   C1007     1.0  0.85259  0.25660  0.72812  1.0000
  H   H1201     1.0  0.49325  0.41653  0.98576  1.0000
  H   H1202     1.0  0.52579  0.37483  0.73377  1.0000
  C   C1008     1.0  0.75079  0.25903  0.87308  1.0000
  S   S284      1.0  0.83434  0.28687  0.90705  1.0000
  C   C1009     1.0  0.55278  0.40680  0.96636  1.0000
  C   C1010     1.0  0.56298  0.42587  0.96373  1.0000
  C   C1011     1.0  0.83114  0.30022  0.94256  1.0000
  H   H1203     1.0  0.56094  0.43396  0.94149  1.0000
  C   C1012     1.0  0.51686  0.28914  0.97000  1.0000
  C   C1013     1.0  0.76718  0.27776  0.92110  1.0000
  H   H1204     1.0  0.93029  0.26874  0.86455  1.0000
  C   C1014     1.0  0.71875  0.25929  0.82928  1.0000
  C   C1015     1.0  0.94719  0.29906  0.92696  1.0000
  C   C1016     1.0  0.95504  0.28559  0.92322  1.0000
  H   H1205     1.0  0.61640  0.26166  0.97569  1.0000
  S   S285      1.0  0.93502  0.26897  0.55767  1.0000
  H   H1206     1.0  0.94631  0.27122  0.92201  1.0000
  C   C1017     1.0  0.92174  0.26637  0.84062  1.0000
  Fe  Fe144     1.0  0.86997  0.24846  0.86314  1.0000
  C   C1018     1.0  0.79704  0.44276  0.95906  1.0000
  C   C1019     1.0  0.80141  0.42676  0.95771  1.0000
  C   C1020     1.0  0.62041  0.41973  0.90577  1.0000
  H   H1207     1.0  0.80875  0.42455  0.93452  1.0000
  Fe  Fe145     1.0  0.90387  0.26313  0.55736  1.0000
  H   H1208     1.0  0.85133  0.25641  0.78605  1.0000
  Fe  Fe146     1.0  0.89357  0.27206  0.92104  1.0000
  N   N67       1.0  0.73298  0.38532  0.98731  1.0000
  S   S286      1.0  0.86867  0.26756  0.95754  1.0000
  C   C1021     1.0  0.72288  0.41239  0.97892  1.0000
  C   C1022     1.0  0.50604  0.35700  0.77226  1.0000
  C   C1023     1.0  0.96729  0.28019  0.75041  1.0000
  H   H1209     1.0  0.76078  0.40799  0.93931  1.0000
  C   C1024     1.0  0.53301  0.25010  0.53566  1.0000
  C   C1025     1.0  0.71655  0.27913  0.51779  1.0000
  H   H1210     1.0  0.75144  0.28835  0.95602  1.0000
  H   H1211     1.0  0.77937  0.46375  0.72580  1.0000
  C   C1026     1.0  0.50771  0.29250  0.50176  1.0000
  H   H1212     1.0  0.81310  0.25668  0.56774  1.0000
  C   C1027     1.0  0.81344  0.31718  0.96931  1.0000
  C   C1028     1.0  0.60599  0.40757  0.96254  1.0000
  C   C1029     1.0  0.97832  0.32267  0.92767  1.0000
  C   C1030     1.0  0.95014  0.27971  0.76259  1.0000
  S   S287      1.0  0.49212  0.36848  0.57455  1.0000
  H   H1213     1.0  0.69845  0.24712  0.91154  1.0000
  H   H1214     1.0  0.98004  0.28002  0.91833  1.0000
  C   C1031     1.0  0.58964  0.25804  0.99763  1.0000
  H   H1215     1.0  0.60937  0.39487  0.96092  1.0000
  H   H1216     1.0  0.72693  0.45664  0.67835  1.0000
  H   H1217     1.0  0.70163  0.26770  0.88445  1.0000
  C   C1032     1.0  0.71773  0.48224  0.95095  1.0000
  H   H1218     1.0  0.54917  0.35197  0.50353  1.0000
  C   C1033     1.0  0.73977  0.43890  0.94074  1.0000
  H   H1219     1.0  0.55105  0.37567  0.50064  1.0000
  H   H1220     1.0  0.73946  0.47969  0.98194  1.0000
  C   C1034     1.0  0.97472  0.32081  0.56693  1.0000
  H   H1221     1.0  0.72318  0.27399  0.92600  1.0000
  C   C1035     1.0  0.97293  0.28472  0.55827  1.0000
  C   C1036     1.0  0.84687  0.47716  0.82532  1.0000
  C   C1037     1.0  0.95643  0.28797  0.56158  1.0000
  C   C1038     1.0  0.48916  0.28744  0.51085  1.0000
  C   C1039     1.0  0.95754  0.30616  0.56681  1.0000
  H   H1222     1.0  0.61348  0.44295  0.97689  1.0000
  C   C1040     1.0  0.79125  0.48841  0.69254  1.0000
  H   H1223     1.0  0.78192  0.27025  0.61300  1.0000
  C   C1041     1.0  0.76704  0.26748  0.89097  1.0000
  H   H1224     1.0  0.62432  0.40754  0.90092  1.0000
  C   C1042     1.0  0.82531  0.46684  0.72012  1.0000
  H   H1225     1.0  0.51238  0.36492  0.79499  1.0000
  N   N68       1.0  0.92874  0.28165  0.81342  1.0000
  H   H1226     1.0  0.51892  0.24725  0.60284  1.0000
  H   H1227     1.0  0.84880  0.47848  0.85471  1.0000
  H   H1228     1.0  0.78326  0.48034  0.78277  1.0000
  C   C1043     1.0  0.50526  0.35283  0.70742  1.0000
  C   C1044     1.0  0.72586  0.48007  0.98269  1.0000
  H   H1229     1.0  0.71689  0.49396  0.62909  1.0000
  C   C1045     1.0  0.73493  0.27157  0.91537  1.0000
  H   H1230     1.0  0.84767  0.28644  0.59634  1.0000
  C   C1046     1.0  0.79642  0.41361  0.98625  1.0000
  H   H1231     1.0  0.80950  0.30586  0.91658  1.0000
  C   C1047     1.0  0.58089  0.42447  0.52089  1.0000
  H   H1232     1.0  0.54225  0.25967  0.55461  1.0000
  H   H1233     1.0  0.76701  0.29842  0.52721  1.0000
  H   H1234     1.0  0.69362  0.48412  0.92776  1.0000
  C   C1048     1.0  0.96157  0.28584  0.82234  1.0000
  H   H1235     1.0  0.69970  0.30187  0.95065  1.0000
  S   S288      1.0  0.81400  0.49246  0.55517  1.0000
  H   H1236     1.0  0.74100  0.46154  0.63785  1.0000
  H   H1237     1.0  0.81953  0.45334  0.70857  1.0000
  H   H1238     1.0  0.82430  0.25695  0.60926  1.0000
  C   C1049     1.0  0.71632  0.49421  0.70485  1.0000
  H   H1239     1.0  0.84249  0.26295  0.72535  1.0000
  H   H1240     1.0  0.80801  0.48644  0.82107  1.0000
  C   C1050     1.0  0.78558  0.47865  0.72541  1.0000
  N   N69       1.0  0.71703  0.25126  0.86607  1.0000
  H   H1241     1.0  0.82235  0.45587  0.77333  1.0000
  C   C1051     1.0  0.73284  0.49200  0.69388  1.0000
  H   H1242     1.0  0.79911  0.31179  0.50538  1.0000
  H   H1243     1.0  0.62978  0.43185  0.88984  1.0000
  H   H1244     1.0  0.52585  0.25827  0.52219  1.0000
  H   H1245     1.0  0.82883  0.48125  0.66921  1.0000
  H   H1246     1.0  0.72544  0.27790  0.53849  1.0000
  H   H1247     1.0  0.79997  0.40141  0.98498  1.0000
  S   S289      1.0  0.87097  0.30086  0.50175  1.0000
  H   H1248     1.0  0.72169  0.27442  0.82976  1.0000
  H   H1249     1.0  0.72986  0.25719  0.81317  1.0000
  C   C1052     1.0  0.98147  0.28340  0.77404  1.0000
  N   N70       1.0  0.83536  0.48734  0.81233  1.0000
  C   C1053     1.0  0.72513  0.42983  0.96428  1.0000
  C   C1054     1.0  0.78791  0.48804  0.75781  1.0000
  C   C1055     1.0  0.60575  0.25430  0.99528  1.0000
  C   C1056     1.0  0.93053  0.29927  0.83052  1.0000
  H   H1250     1.0  0.76108  0.38736  0.98475  1.0000
  H   H1251     1.0  0.60254  0.43867  0.93499  1.0000
  H   H1252     1.0  0.60218  0.49501  0.59393  1.0000
  H   H1253     1.0  0.60661  0.41656  0.89458  1.0000
  C   C1057     1.0  0.65436  0.42878  0.94092  1.0000
  H   H1254     1.0  0.92485  0.29556  0.51841  1.0000
  H   H1255     1.0  0.70718  0.47031  0.64672  1.0000
  C   C1058     1.0  0.73543  0.40358  0.97066  1.0000
  H   H1256     1.0  0.75864  0.27778  0.58102  1.0000
  C   C1059     1.0  0.85758  0.25292  0.76259  1.0000
  C   C1060     1.0  0.61550  0.44021  0.94836  1.0000
  C   C1061     1.0  0.75121  0.27995  0.93304  1.0000
  H   H1257     1.0  0.95994  0.28786  0.85048  1.0000
  C   C1062     1.0  0.51147  0.26990  0.96868  1.0000
  C   C1063     1.0  0.79882  0.43120  0.50636  1.0000
  H   H1258     1.0  0.65454  0.42750  0.91227  1.0000
  C   C1064     1.0  0.78758  0.44549  0.98922  1.0000
  H   H1259     1.0  0.94518  0.30900  0.57058  1.0000
  C   C1065     1.0  0.97429  0.29065  0.92124  1.0000
  C   C1066     1.0  0.84153  0.30299  0.97321  1.0000
  H   H1260     1.0  0.71331  0.35741  0.98835  1.0000
  Fe  Fe147     1.0  0.79123  0.47906  0.51731  1.0000
  Fe  Fe148     1.0  0.79124  0.48849  0.59623  1.0000
  H   H1261     1.0  0.93970  0.27687  0.74295  1.0000
  H   H1262     1.0  0.62639  0.45279  0.93667  1.0000
  S   S290      1.0  0.88851  0.25870  0.50583  1.0000
  C   C1067     1.0  0.75026  0.41326  0.94661  1.0000
  C   C1068     1.0  0.70000  0.48250  0.95225  1.0000
  H   H1263     1.0  0.96954  0.27788  0.72248  1.0000
  N   N71       1.0  0.81874  0.28159  0.59686  1.0000
  H   H1264     1.0  0.93605  0.31118  0.81122  1.0000
  C   C1069     1.0  0.83755  0.29046  0.58123  1.0000
  C   C1070     1.0  0.81921  0.28700  0.63473  1.0000
  C   C1071     1.0  0.80487  0.28672  0.57779  1.0000
  C   C1072     1.0  0.80915  0.29861  0.54684  1.0000
  C   C1073     1.0  0.78625  0.27939  0.58971  1.0000
  C   C1074     1.0  0.79558  0.30277  0.52908  1.0000
  C   C1075     1.0  0.77279  0.28358  0.57161  1.0000
  C   C1076     1.0  0.77745  0.29522  0.54131  1.0000
  H   H1265     1.0  0.97668  0.32069  0.71626  1.0000
  H   H1266     1.0  0.50769  0.40598  0.96389  1.0000
  C   C1077     1.0  0.56263  0.41203  0.52220  1.0000
  H   H1267     1.0  0.80270  0.32274  0.96750  1.0000
  C   C1078     1.0  0.91474  0.27836  0.78575  1.0000
  H   H1268     1.0  0.83849  0.28627  0.55325  1.0000
  H   H1269     1.0  0.80612  0.27965  0.64966  1.0000
  H   H1270     1.0  0.82992  0.28375  0.64949  1.0000
  H   H1271     1.0  0.82222  0.30211  0.63656  1.0000
  H   H1272     1.0  0.82283  0.30481  0.53548  1.0000
  H   H1273     1.0  0.80068  0.25352  0.60978  1.0000
  C   C1079     1.0  0.69047  0.48072  0.98515  1.0000
  C   C1080     1.0  0.81698  0.47901  0.82971  1.0000
  H   H1274     1.0  0.98216  0.32857  0.77854  1.0000
  H   H1275     1.0  0.74785  0.37626  0.94714  1.0000
  H   H1276     1.0  0.90140  0.27793  0.79745  1.0000
  Fe  Fe149     1.0  0.86851  0.25611  0.60236  1.0000
  C   C1081     1.0  0.55037  0.24961  0.98616  1.0000
  C   C1082     1.0  0.70342  0.29229  0.96717  1.0000
  H   H1277     1.0  0.68336  0.43461  0.94146  1.0000
  C   C1083     1.0  0.67109  0.43276  0.95741  1.0000
  H   H1278     1.0  0.71565  0.43654  0.97145  1.0000
  C   C1084     1.0  0.71970  0.48114  0.63496  1.0000
  S   S291      1.0  0.72916  0.48433  0.90920  1.0000
  C   C1085     1.0  0.49582  0.40346  0.98285  1.0000
  S   S292      1.0  0.78823  0.47592  0.65263  1.0000
  C   C1086     1.0  0.69320  0.27322  0.96621  1.0000
  H   H1279     1.0  0.59403  0.48077  0.55639  1.0000
  C   C1087     1.0  0.69812  0.26081  0.98729  1.0000
  C   C1088     1.0  0.83386  0.48602  0.77301  1.0000
  C   C1089     1.0  0.67224  0.43502  0.99421  1.0000
  H   H1280     1.0  0.85241  0.29763  0.97488  1.0000
  H   H1281     1.0  0.90669  0.30384  0.51244  1.0000
  H   H1282     1.0  0.75142  0.25141  0.84957  1.0000
  H   H1283     1.0  0.55887  0.26062  0.96699  1.0000
  C   C1090     1.0  0.82691  0.46847  0.75715  1.0000
  Fe  Fe150     1.0  0.85453  0.27200  0.90888  1.0000
  S   S293      1.0  0.92286  0.29372  0.92754  1.0000
  H   H1284     1.0  0.84226  0.30580  0.58147  1.0000
  S   S294      1.0  0.48873  0.36168  0.91398  1.0000
  H   H1285     1.0  0.72238  0.47612  0.60844  1.0000
  H   H1286     1.0  0.70471  0.49087  0.68793  1.0000
  C   C1091     1.0  0.94677  0.28252  0.79914  1.0000
  C   C1092     1.0  0.81727  0.30757  0.94057  1.0000
  H   H1287     1.0  0.77968  0.26627  0.88126  1.0000
  H   H1288     1.0  0.97525  0.33481  0.56998  1.0000
  S   S295      1.0  0.49700  0.34576  0.50533  1.0000
  H   H1289     1.0  0.51430  0.38066  0.99593  1.0000
  C   C1093     1.0  0.80097  0.41393  0.50692  1.0000
  H   H1290     1.0  0.92084  0.25293  0.82930  1.0000
  H   H1291     1.0  0.78412  0.45773  0.99059  1.0000
  C   C1094     1.0  0.74741  0.37812  0.97650  1.0000
  C   C1095     1.0  0.73868  0.46726  0.66384  1.0000
  H   H1292     1.0  0.75103  0.46907  0.67947  1.0000
  S   S296      1.0  0.52366  0.31341  0.51606  1.0000
  H   H1293     1.0  0.91181  0.26473  0.77329  1.0000
  H   H1294     1.0  0.91887  0.28945  0.76454  1.0000
  H   H1295     1.0  0.51049  0.26343  0.94307  1.0000
  H   H1296     1.0  0.59010  0.42336  0.54106  1.0000
  N   N72       1.0  0.62042  0.42363  0.94448  1.0000
  C   C1096     1.0  0.75224  0.43061  0.93184  1.0000
  C   C1097     1.0  0.63821  0.42701  0.96111  1.0000
  H   H1297     1.0  0.90781  0.26465  0.85071  1.0000
  H   H1298     1.0  0.71443  0.37049  0.94763  1.0000
  Fe  Fe151     1.0  0.49170  0.34155  0.87381  1.0000
  C   C1098     1.0  0.69788  0.26829  0.52027  1.0000
  Fe  Fe152     1.0  0.87391  0.27604  0.52987  1.0000
  H   H1299     1.0  0.52384  0.43133  0.99635  1.0000
  H   H1300     1.0  0.81761  0.47967  0.85931  1.0000
  H   H1301     1.0  0.80510  0.44119  0.52636  1.0000
  H   H1302     1.0  0.81008  0.46421  0.82368  1.0000
  H   H1303     1.0  0.67681  0.48089  0.98581  1.0000
  H   H1304     1.0  0.80886  0.41073  0.52756  1.0000
  H   H1305     1.0  0.97240  0.27078  0.55447  1.0000
  H   H1306     1.0  0.84066  0.46210  0.82088  1.0000
  S   S297      1.0  0.48920  0.32515  0.58598  1.0000
  S   S298      1.0  0.85317  0.25616  0.65463  1.0000
  C   C1099     1.0  0.48984  0.34170  0.77731  1.0000
  S   S299      1.0  0.85092  0.25192  0.55420  1.0000
  C   C1100     1.0  0.92170  0.30778  0.50948  1.0000
  C   C1101     1.0  0.71524  0.37147  0.97723  1.0000
  H   H1307     1.0  0.74511  0.36436  0.98937  1.0000
  S   S300      1.0  0.77750  0.49332  0.95451  1.0000
  Fe  Fe153     1.0  0.75984  0.49289  0.90808  1.0000
  C   C1102     1.0  0.97861  0.28619  0.80998  1.0000
  C   C1103     1.0  0.48964  0.33692  0.71271  1.0000
  S   S301      1.0  0.73138  0.32285  0.98926  1.0000
  H   H1308     1.0  0.75334  0.49371  0.61203  1.0000
  C   C1104     1.0  0.55542  0.39653  0.99539  1.0000
  H   H1309     1.0  0.58850  0.26863  0.97978  1.0000
  H   H1310     1.0  0.48998  0.36884  0.99567  1.0000
  H   H1311     1.0  0.70343  0.37482  0.98724  1.0000
  H   H1312     1.0  0.82250  0.26318  0.97122  1.0000
  H   H1313     1.0  0.53656  0.25042  0.98618  1.0000
  H   H1314     1.0  0.60395  0.40979  0.99129  1.0000
  H   H1315     1.0  0.54772  0.38185  0.99780  1.0000
  C   C1105     1.0  0.63998  0.42968  0.99849  1.0000
  H   H1316     1.0  0.83262  0.24871  0.99204  1.0000
  H   H1317     1.0  0.70591  0.25286  0.81447  1.0000
  H   H1318     1.0  0.76000  0.49563  0.71225  1.0000
  C   C1106     1.0  0.59939  0.49540  0.56502  1.0000
  H   H1319     1.0  0.54135  0.24648  0.51472  1.0000
  C   C1107     1.0  0.82226  0.25522  0.99638  1.0000
  H   H1320     1.0  0.71138  0.40597  0.99722  1.0000
  H   H1321     1.0  0.57106  0.36982  0.49981  1.0000
  H   H1322     1.0  0.50331  0.72394  0.00186  1.0000
  S   S302      1.0  0.64357  0.54367  0.43720  1.0000
  C   C1108     1.0  0.53736  0.70752  0.46934  1.0000
  H   H1323     1.0  0.63796  0.51025  0.29050  1.0000
  N   N73       1.0  0.85063  0.58379  0.11510  1.0000
  Fe  Fe154     1.0  0.87915  0.66812  0.36069  1.0000
  S   S303      1.0  0.88574  0.68816  0.40581  1.0000
  S   S304      1.0  0.88121  0.68129  0.30479  1.0000
  Fe  Fe155     1.0  0.87699  0.63620  0.41126  1.0000
  S   S305      1.0  0.88454  0.65430  0.45878  1.0000
  C   C1109     1.0  0.81474  0.60050  0.45366  1.0000
  Fe  Fe156     1.0  0.86386  0.66585  0.43831  1.0000
  C   C1110     1.0  0.85440  0.59613  0.47903  1.0000
  Fe  Fe157     1.0  0.90590  0.67515  0.42211  1.0000
  S   S306      1.0  0.93484  0.69429  0.43876  1.0000
  S   S307      1.0  0.85567  0.64690  0.39187  1.0000
  S   S308      1.0  0.89989  0.65585  0.37614  1.0000
  H   H1324     1.0  0.54420  0.71375  0.44429  1.0000
  C   C1111     1.0  0.63250  0.49804  0.20280  1.0000
  S   S309      1.0  0.65996  0.50732  0.07012  1.0000
  Fe  Fe158     1.0  0.87207  0.65174  0.10231  1.0000
  S   S310      1.0  0.88324  0.68150  0.08384  1.0000
  S   S311      1.0  0.86150  0.63933  0.15780  1.0000
  Fe  Fe159     1.0  0.87682  0.63824  0.02758  1.0000
  C   C1112     1.0  0.98288  0.72081  0.00503  1.0000
  Fe  Fe160     1.0  0.90534  0.67469  0.05390  1.0000
  S   S312      1.0  0.93636  0.68911  0.06314  1.0000
  Fe  Fe161     1.0  0.86573  0.67150  0.03551  1.0000
  H   H1325     1.0  0.93498  0.73614  0.28784  1.0000
  S   S313      1.0  0.89465  0.64522  0.07518  1.0000
  S   S314      1.0  0.85319  0.64222  0.05630  1.0000
  H   H1326     1.0  0.65434  0.58224  0.45160  1.0000
  H   H1327     1.0  0.66331  0.53495  0.49581  1.0000
  C   C1113     1.0  0.79161  0.66103  0.45409  1.0000
  H   H1328     1.0  0.82807  0.68455  0.25878  1.0000
  H   H1329     1.0  0.49205  0.74360  0.46127  1.0000
  C   C1114     1.0  0.91235  0.61251  0.48001  1.0000
  H   H1330     1.0  0.80875  0.70009  0.16215  1.0000
  S   S315      1.0  0.84428  0.66973  0.48153  1.0000
  C   C1115     1.0  0.96847  0.66527  0.01688  1.0000
  H   H1331     1.0  0.93916  0.71642  0.27107  1.0000
  H   H1332     1.0  0.49381  0.70157  0.29754  1.0000
  S   S316      1.0  0.57050  0.72521  0.49830  1.0000
  C   C1116     1.0  0.66035  0.57612  0.47153  1.0000
  H   H1333     1.0  0.95603  0.67227  0.47941  1.0000
  H   H1334     1.0  0.84195  0.66950  0.10234  1.0000
  C   C1117     1.0  0.92116  0.63005  0.49502  1.0000
  C   C1118     1.0  0.95959  0.70237  0.04911  1.0000
  H   H1335     1.0  0.91673  0.60916  0.45435  1.0000
  H   H1336     1.0  0.82920  0.58989  0.14300  1.0000
  C   C1119     1.0  0.97364  0.70507  0.07357  1.0000
  H   H1337     1.0  0.83815  0.54329  0.46402  1.0000
  C   C1120     1.0  0.51880  0.69612  0.46966  1.0000
  C   C1121     1.0  0.96913  0.72603  0.31378  1.0000
  H   H1338     1.0  0.94836  0.62432  0.45632  1.0000
  Fe  Fe162     1.0  0.63951  0.50241  0.02735  1.0000
  N   N74       1.0  0.93552  0.71650  0.32869  1.0000
  C   C1122     1.0  0.82048  0.66597  0.48271  1.0000
  H   H1339     1.0  0.84534  0.70177  0.10328  1.0000
  H   H1340     1.0  0.87651  0.59366  0.14108  1.0000
  H   H1341     1.0  0.51153  0.69358  0.44498  1.0000
  H   H1342     1.0  0.82585  0.70850  0.10889  1.0000
  H   H1343     1.0  0.57896  0.69084  0.47557  1.0000
  H   H1344     1.0  0.66706  0.58946  0.05088  1.0000
  Fe  Fe163     1.0  0.64206  0.51458  0.42546  1.0000
  C   C1123     1.0  0.75400  0.60756  0.46504  1.0000
  C   C1124     1.0  0.95925  0.70389  0.43027  1.0000
  C   C1125     1.0  0.97012  0.71755  0.45287  1.0000
  H   H1345     1.0  0.52976  0.74004  0.46462  1.0000
  H   H1346     1.0  0.83702  0.66111  0.16169  1.0000
  C   C1126     1.0  0.96812  0.69833  0.40224  1.0000
  H   H1347     1.0  0.73469  0.54335  0.42932  1.0000
  H   H1348     1.0  0.86552  0.56889  0.14079  1.0000
  H   H1349     1.0  0.96025  0.68779  0.38458  1.0000
  C   C1127     1.0  0.87664  0.66916  0.26426  1.0000
  C   C1128     1.0  0.86754  0.65001  0.26387  1.0000
  C   C1129     1.0  0.86328  0.64105  0.23105  1.0000
  C   C1130     1.0  0.86832  0.65106  0.19830  1.0000
  C   C1131     1.0  0.87774  0.67016  0.19868  1.0000
  C   C1132     1.0  0.88173  0.67915  0.23150  1.0000
  H   H1350     1.0  0.86347  0.64215  0.28885  1.0000
  H   H1351     1.0  0.85591  0.62630  0.23110  1.0000
  H   H1352     1.0  0.88160  0.67806  0.17373  1.0000
  H   H1353     1.0  0.88867  0.69398  0.23148  1.0000
  C   C1133     1.0  0.83044  0.69751  0.09877  1.0000
  H   H1354     1.0  0.51183  0.71853  0.14123  1.0000
  C   C1134     1.0  0.51605  0.68500  0.14628  1.0000
  H   H1355     1.0  0.91778  0.68804  0.32514  1.0000
  C   C1135     1.0  0.85176  0.57074  0.44058  1.0000
  H   H1356     1.0  0.89066  0.58582  0.48512  1.0000
  C   C1136     1.0  0.49564  0.69984  0.26920  1.0000
  H   H1357     1.0  0.82479  0.66471  0.06994  1.0000
  C   C1137     1.0  0.50050  0.70576  0.13392  1.0000
  C   C1138     1.0  0.84642  0.56220  0.06406  1.0000
  H   H1358     1.0  0.92035  0.65282  0.44149  1.0000
  C   C1139     1.0  0.49602  0.73714  0.48491  1.0000
  H   H1359     1.0  0.60592  0.66150  0.47195  1.0000
  H   H1360     1.0  0.92340  0.71577  0.38141  1.0000
  H   H1361     1.0  0.69840  0.57046  0.02415  1.0000
  H   H1362     1.0  0.90790  0.71256  0.34599  1.0000
  H   H1363     1.0  0.68975  0.50594  0.47781  1.0000
  C   C1140     1.0  0.82699  0.66556  0.09926  1.0000
  H   H1364     1.0  0.64430  0.52402  0.22880  1.0000
  C   C1141     1.0  0.72702  0.55241  0.43216  1.0000
  H   H1365     1.0  0.73867  0.62954  0.43835  1.0000
  C   C1142     1.0  0.73567  0.57073  0.44222  1.0000
  H   H1366     1.0  0.92803  0.63585  0.42258  1.0000
  H   H1367     1.0  0.51671  0.68298  0.11689  1.0000
  S   S317      1.0  0.49592  0.67643  0.05045  1.0000
  S   S318      1.0  0.87120  0.60533  0.41164  1.0000
  C   C1143     1.0  0.81550  0.69187  0.17504  1.0000
  C   C1144     1.0  0.58765  0.68244  0.48031  1.0000
  C   C1145     1.0  0.84244  0.55797  0.46824  1.0000
  H   H1368     1.0  0.85076  0.59900  0.16298  1.0000
  C   C1146     1.0  0.73200  0.61484  0.43077  1.0000
  C   C1147     1.0  0.66378  0.55947  0.12144  1.0000
  C   C1148     1.0  0.81046  0.54175  0.08608  1.0000
  S   S319      1.0  0.84834  0.68756  0.01486  1.0000
  H   H1369     1.0  0.97021  0.69902  0.10029  1.0000
  C   C1149     1.0  0.83306  0.67171  0.21140  1.0000
  H   H1370     1.0  0.81989  0.65139  0.11091  1.0000
  H   H1371     1.0  0.79860  0.67197  0.07769  1.0000
  H   H1372     1.0  0.48755  0.70843  0.13552  1.0000
  C   C1150     1.0  0.89747  0.59895  0.49752  1.0000
  C   C1151     1.0  0.63755  0.50925  0.23271  1.0000
  C   C1152     1.0  0.83118  0.67017  0.17440  1.0000
  H   H1373     1.0  0.62949  0.57530  0.11795  1.0000
  C   C1153     1.0  0.82634  0.68331  0.23014  1.0000
  C   C1154     1.0  0.82093  0.55672  0.10604  1.0000
  C   C1155     1.0  0.82222  0.68019  0.15503  1.0000
  H   H1374     1.0  0.83994  0.66396  0.22568  1.0000
  H   H1375     1.0  0.82409  0.60116  0.43135  1.0000
  C   C1156     1.0  0.81756  0.69336  0.21202  1.0000
  C   C1157     1.0  0.96010  0.73804  0.36727  1.0000
  H   H1376     1.0  0.51981  0.68295  0.21372  1.0000
  C   C1158     1.0  0.81792  0.53697  0.05546  1.0000
  C   C1159     1.0  0.70843  0.54558  0.42563  1.0000
  C   C1160     1.0  0.52987  0.69819  0.02267  1.0000
  S   S320      1.0  0.63739  0.50848  0.15935  1.0000
  H   H1377     1.0  0.94108  0.69230  0.31321  1.0000
  H   H1378     1.0  0.71070  0.60299  0.48845  1.0000
  N   N75       1.0  0.63817  0.55874  0.08174  1.0000
  C   C1161     1.0  0.63355  0.53884  0.07499  1.0000
  C   C1162     1.0  0.62609  0.56055  0.11128  1.0000
  C   C1163     1.0  0.63410  0.56744  0.04892  1.0000
  C   C1164     1.0  0.65745  0.56707  0.09207  1.0000
  H   H1379     1.0  0.69821  0.60180  0.06913  1.0000
  H   H1380     1.0  0.68644  0.56063  0.15372  1.0000
  H   H1381     1.0  0.84146  0.54357  0.02026  1.0000
  H   H1382     1.0  0.68817  0.50178  0.29814  1.0000
  H   H1383     1.0  0.69824  0.58333  0.44305  1.0000
  H   H1384     1.0  0.61985  0.53245  0.06340  1.0000
  H   H1385     1.0  0.64363  0.53682  0.05590  1.0000
  H   H1386     1.0  0.63335  0.53059  0.09969  1.0000
  H   H1387     1.0  0.65473  0.54759  0.13672  1.0000
  H   H1388     1.0  0.61146  0.55476  0.10423  1.0000
  H   H1389     1.0  0.96099  0.65889  0.04119  1.0000
  H   H1390     1.0  0.64273  0.56637  0.02565  1.0000
  H   H1391     1.0  0.61967  0.56057  0.04116  1.0000
  H   H1392     1.0  0.63627  0.58225  0.05258  1.0000
  C   C1165     1.0  0.92227  0.72026  0.35336  1.0000
  H   H1393     1.0  0.68392  0.55163  0.42386  1.0000
  S   S321      1.0  0.65722  0.50960  0.37737  1.0000
  H   H1394     1.0  0.75990  0.62209  0.47383  1.0000
  H   H1395     1.0  0.80957  0.57914  0.00844  1.0000
  H   H1396     1.0  0.70178  0.53140  0.41777  1.0000
  N   N76       1.0  0.73419  0.60194  0.45849  1.0000
  H   H1397     1.0  0.86285  0.61322  0.10571  1.0000
  C   C1166     1.0  0.73480  0.49615  0.47652  1.0000
  C   C1167     1.0  0.70677  0.57519  0.43995  1.0000
  C   C1168     1.0  0.83846  0.59467  0.00173  1.0000
  C   C1169     1.0  0.80167  0.61602  0.49498  1.0000
  H   H1398     1.0  0.77906  0.54709  0.47702  1.0000
  N   N77       1.0  0.49995  0.68971  0.15688  1.0000
  C   C1170     1.0  0.68195  0.56689  0.13149  1.0000
  H   H1399     1.0  0.79481  0.68426  0.11462  1.0000
  H   H1400     1.0  0.83809  0.57471  0.16747  1.0000
  H   H1401     1.0  0.71744  0.61275  0.42665  1.0000
  H   H1402     1.0  0.55685  0.71505  0.00163  1.0000
  H   H1403     1.0  0.81240  0.70244  0.22671  1.0000
  C   C1171     1.0  0.49925  0.69386  0.19522  1.0000
  C   C1172     1.0  0.83931  0.56744  0.09553  1.0000
  C   C1173     1.0  0.63398  0.50148  0.26772  1.0000
  H   H1404     1.0  0.84202  0.60213  0.08291  1.0000
  H   H1405     1.0  0.62731  0.55301  0.13612  1.0000
  H   H1406     1.0  0.94347  0.65914  0.42542  1.0000
  C   C1174     1.0  0.93208  0.69647  0.33165  1.0000
  H   H1407     1.0  0.96460  0.64727  0.45955  1.0000
  C   C1175     1.0  0.85798  0.58986  0.44596  1.0000
  H   H1408     1.0  0.51620  0.68813  0.27668  1.0000
  H   H1409     1.0  0.96625  0.71753  0.29058  1.0000
  C   C1176     1.0  0.67382  0.54981  0.00584  1.0000
  H   H1410     1.0  0.79223  0.66042  0.12082  1.0000
  C   C1177     1.0  0.96442  0.71034  0.01465  1.0000
  H   H1411     1.0  0.81696  0.66382  0.42597  1.0000
  C   C1178     1.0  0.65747  0.55720  0.47051  1.0000
  C   C1179     1.0  0.95048  0.73651  0.08841  1.0000
  H   H1412     1.0  0.87675  0.58181  0.10109  1.0000
  H   H1413     1.0  0.91582  0.63573  0.00744  1.0000
  C   C1180     1.0  0.86807  0.58190  0.12491  1.0000
  H   H1414     1.0  0.62610  0.64520  0.48649  1.0000
  H   H1415     1.0  0.96365  0.72202  0.47477  1.0000
  H   H1416     1.0  0.49729  0.72401  0.47616  1.0000
  H   H1417     1.0  0.82874  0.69744  0.06933  1.0000
  N   N78       1.0  0.82015  0.67914  0.11578  1.0000
  C   C1181     1.0  0.93056  0.64360  0.01189  1.0000
  H   H1418     1.0  0.82098  0.62986  0.45243  1.0000
  C   C1182     1.0  0.85478  0.60050  0.09174  1.0000
  C   C1183     1.0  0.68852  0.59011  0.08418  1.0000
  C   C1184     1.0  0.72569  0.58265  0.44686  1.0000
  C   C1185     1.0  0.80507  0.58358  0.47123  1.0000
  H   H1419     1.0  0.59723  0.68531  0.45666  1.0000
  S   S322      1.0  0.78927  0.50618  0.49868  1.0000
  H   H1420     1.0  0.95240  0.73115  0.14427  1.0000
  H   H1421     1.0  0.62066  0.70901  0.48974  1.0000
  H   H1422     1.0  0.93432  0.69241  0.35931  1.0000
  H   H1423     1.0  0.81420  0.55976  0.12918  1.0000
  H   H1424     1.0  0.80962  0.52571  0.03941  1.0000
  H   H1425     1.0  0.86287  0.60006  0.06724  1.0000
  C   C1186     1.0  0.84168  0.58683  0.14858  1.0000
  H   H1426     1.0  0.85998  0.57012  0.05344  1.0000
  S   S323      1.0  0.75915  0.65815  0.48812  1.0000
  C   C1187     1.0  0.83590  0.54706  0.04468  1.0000
  C   C1188     1.0  0.51152  0.68829  0.01494  1.0000
  C   C1189     1.0  0.81031  0.66348  0.45177  1.0000
  H   H1427     1.0  0.93645  0.63348  0.02205  1.0000
  H   H1428     1.0  0.93640  0.72715  0.08731  1.0000
  C   C1190     1.0  0.51008  0.68924  0.22093  1.0000
  C   C1191     1.0  0.69838  0.55699  0.42918  1.0000
  C   C1192     1.0  0.80061  0.67373  0.10703  1.0000
  H   H1429     1.0  0.78405  0.65957  0.42984  1.0000
  H   H1430     1.0  0.91681  0.71395  0.28599  1.0000
  C   C1193     1.0  0.69431  0.58216  0.11282  1.0000
  C   C1194     1.0  0.93204  0.64804  0.43984  1.0000
  H   H1431     1.0  0.85447  0.56576  0.41508  1.0000
  H   H1432     1.0  0.79635  0.53396  0.09395  1.0000
  H   H1433     1.0  0.67466  0.53919  0.02391  1.0000
  C   C1195     1.0  0.70221  0.50312  0.47731  1.0000
  N   N79       1.0  0.93712  0.64405  0.47614  1.0000
  C   C1196     1.0  0.67038  0.58278  0.07386  1.0000
  C   C1197     1.0  0.93154  0.72101  0.29181  1.0000
  H   H1434     1.0  0.75656  0.59888  0.48666  1.0000
  H   H1435     1.0  0.93376  0.66828  0.49749  1.0000
  C   C1198     1.0  0.68733  0.56758  0.00584  1.0000
  H   H1436     1.0  0.53418  0.69855  0.04994  1.0000
  C   C1199     1.0  0.50819  0.69219  0.25735  1.0000
  H   H1437     1.0  0.85913  0.61080  0.48357  1.0000
  C   C1200     1.0  0.95215  0.63686  0.47269  1.0000
  H   H1438     1.0  0.51545  0.67170  0.15892  1.0000
  H   H1439     1.0  0.75015  0.57519  0.44615  1.0000
  H   H1440     1.0  0.70844  0.58779  0.12036  1.0000
  H   H1441     1.0  0.52903  0.69615  0.15305  1.0000
  H   H1442     1.0  0.73813  0.61317  0.40457  1.0000
  C   C1201     1.0  0.81307  0.61669  0.46553  1.0000
  H   H1443     1.0  0.62282  0.51301  0.48740  1.0000
  H   H1444     1.0  0.50245  0.70344  0.10505  1.0000
  C   C1202     1.0  0.95484  0.72706  0.33657  1.0000
  H   H1445     1.0  0.80755  0.57172  0.46123  1.0000
  H   H1446     1.0  0.66382  0.69904  0.49123  1.0000
  H   H1447     1.0  0.57845  0.66767  0.48082  1.0000
  C   C1203     1.0  0.78269  0.66076  0.48732  1.0000
  H   H1448     1.0  0.76191  0.60696  0.44034  1.0000
  C   C1204     1.0  0.61183  0.66366  0.49796  1.0000
  C   C1205     1.0  0.72507  0.60428  0.49222  1.0000
  H   H1449     1.0  0.93096  0.65346  0.03333  1.0000
  H   H1450     1.0  0.83802  0.60586  0.01790  1.0000
  S   S324      1.0  0.88879  0.66724  0.00400  1.0000
  C   C1206     1.0  0.95956  0.73872  0.12044  1.0000
  H   H1451     1.0  0.95033  0.73912  0.38702  1.0000
  C   C1207     1.0  0.66531  0.54943  0.49639  1.0000
  H   H1452     1.0  0.92422  0.73517  0.35282  1.0000
  H   H1453     1.0  0.81671  0.71325  0.49571  1.0000
  S   S325      1.0  0.65146  0.49748  0.46345  1.0000
  C   C1208     1.0  0.67079  0.58716  0.49841  1.0000
  C   C1209     1.0  0.94432  0.66189  0.49467  1.0000
  C   C1210     1.0  0.95972  0.74574  0.05741  1.0000
  H   H1454     1.0  0.95271  0.74350  0.03233  1.0000
  H   H1455     1.0  0.95597  0.63313  0.49942  1.0000
  H   H1456     1.0  0.67275  0.60166  0.49916  1.0000
  Fe  Fe164     1.0  0.70042  0.66202  0.54562  1.0000
  S   S326      1.0  0.69257  0.64247  0.59368  1.0000
  C   C1211     1.0  0.70592  0.55787  0.92046  1.0000
  Fe  Fe165     1.0  0.73671  0.65486  0.53125  1.0000
  S   S327      1.0  0.73140  0.63559  0.57917  1.0000
  C   C1212     1.0  0.49355  0.72450  0.98245  1.0000
  Fe  Fe166     1.0  0.70247  0.62370  0.56065  1.0000
  Fe  Fe167     1.0  0.72201  0.65592  0.60799  1.0000
  S   S328      1.0  0.73104  0.66875  0.66186  1.0000
  S   S329      1.0  0.72953  0.67642  0.56108  1.0000
  Fe  Fe168     1.0  0.81026  0.51918  0.53946  1.0000
  S   S330      1.0  0.78929  0.51586  0.58349  1.0000
  H   H1457     1.0  0.63423  0.74524  0.66087  1.0000
  Fe  Fe169     1.0  0.70532  0.66250  0.91285  1.0000
  S   S331      1.0  0.69586  0.63254  0.89734  1.0000
  S   S332      1.0  0.68765  0.67979  0.89879  1.0000
  Fe  Fe170     1.0  0.74390  0.66265  0.93162  1.0000
  S   S333      1.0  0.73701  0.63327  0.91585  1.0000
  S   S334      1.0  0.77095  0.68259  0.95295  1.0000
  Fe  Fe171     1.0  0.72319  0.64030  0.86850  1.0000
  S   S335      1.0  0.72492  0.62799  0.81425  1.0000
  Fe  Fe172     1.0  0.71028  0.62778  0.94565  1.0000
  H   H1458     1.0  0.49238  0.67969  0.97278  1.0000
  S   S336      1.0  0.73216  0.67024  0.88161  1.0000
  S   S337      1.0  0.71769  0.65709  0.96383  1.0000
  H   H1459     1.0  0.94567  0.63014  0.95824  1.0000
  Fe  Fe173     1.0  0.79520  0.52169  0.93271  1.0000
  H   H1460     1.0  0.64217  0.55143  0.62760  1.0000
  S   S338      1.0  0.77631  0.52169  0.88859  1.0000
  N   N80       1.0  0.72758  0.54398  0.94834  1.0000
  S   S339      1.0  0.60546  0.73097  0.89113  1.0000
  C   C1213     1.0  0.71342  0.50713  0.50709  1.0000
  C   C1214     1.0  0.51792  0.74051  0.53083  1.0000
  C   C1215     1.0  0.91403  0.63317  0.52857  1.0000
  H   H1461     1.0  0.66595  0.71120  0.99440  1.0000
  S   S340      1.0  0.59792  0.73019  0.59200  1.0000
  C   C1216     1.0  0.51918  0.69703  0.95206  1.0000
  H   H1462     1.0  0.85751  0.51376  0.81267  1.0000
  H   H1463     1.0  0.75023  0.51207  0.63632  1.0000
  H   H1464     1.0  0.80526  0.68253  0.65044  1.0000
  H   H1465     1.0  0.75538  0.73835  0.96639  1.0000
  H   H1466     1.0  0.76716  0.69757  0.66475  1.0000
  S   S341      1.0  0.74316  0.50833  0.54507  1.0000
  H   H1467     1.0  0.80696  0.70602  0.65899  1.0000
  C   C1217     1.0  0.54711  0.71095  0.50101  1.0000
  H   H1468     1.0  0.68120  0.55418  0.54390  1.0000
  H   H1469     1.0  0.78011  0.66258  0.61354  1.0000
  H   H1470     1.0  0.78412  0.59968  0.53662  1.0000
  Fe  Fe174     1.0  0.76859  0.50115  0.54371  1.0000
  C   C1218     1.0  0.78469  0.54848  0.50425  1.0000
  C   C1219     1.0  0.75460  0.73500  0.93764  1.0000
  H   H1471     1.0  0.94310  0.64558  0.92423  1.0000
  H   H1472     1.0  0.61796  0.53940  0.50583  1.0000
  H   H1473     1.0  0.52866  0.74217  0.92811  1.0000
  C   C1220     1.0  0.74710  0.49694  0.71865  1.0000
  C   C1221     1.0  0.66670  0.70853  0.59233  1.0000
  C   C1222     1.0  0.67457  0.69233  0.91757  1.0000
  C   C1223     1.0  0.66389  0.69865  0.89480  1.0000
  C   C1224     1.0  0.65401  0.70943  0.90767  1.0000
  C   C1225     1.0  0.65476  0.71421  0.94364  1.0000
  C   C1226     1.0  0.66523  0.70765  0.96654  1.0000
  C   C1227     1.0  0.67503  0.69678  0.95370  1.0000
  C   C1228     1.0  0.67820  0.57925  0.52484  1.0000
  C   C1229     1.0  0.73827  0.57138  0.90525  1.0000
  C   C1230     1.0  0.82242  0.56495  0.97460  1.0000
  H   H1474     1.0  0.68310  0.69208  0.97169  1.0000
  C   C1231     1.0  0.62242  0.52599  0.55530  1.0000
  H   H1475     1.0  0.79892  0.54872  0.50233  1.0000
  H   H1476     1.0  0.78168  0.71673  0.63702  1.0000
  C   C1232     1.0  0.67548  0.56039  0.52358  1.0000
  H   H1477     1.0  0.80068  0.62868  0.50456  1.0000
  H   H1478     1.0  0.91958  0.64611  0.54194  1.0000
  C   C1233     1.0  0.49719  0.74004  0.95886  1.0000
  H   H1479     1.0  0.98632  0.72684  0.97830  1.0000
  H   H1480     1.0  0.70938  0.51290  0.53043  1.0000
  C   C1234     1.0  0.84546  0.58337  0.50691  1.0000
  C   C1235     1.0  0.80186  0.51702  0.72479  1.0000
  H   H1481     1.0  0.80360  0.51535  0.66723  1.0000
  H   H1482     1.0  0.80839  0.53191  0.72443  1.0000
  H   H1483     1.0  0.63281  0.49681  0.57692  1.0000
  C   C1236     1.0  0.80541  0.69903  0.97737  1.0000
  H   H1484     1.0  0.84089  0.51216  0.69502  1.0000
  N   N81       1.0  0.78369  0.56500  0.52205  1.0000
  S   S342      1.0  0.83048  0.54890  0.53902  1.0000
  C   C1237     1.0  0.67369  0.69287  0.54129  1.0000
  C   C1238     1.0  0.65741  0.71707  0.57068  1.0000
  C   C1239     1.0  0.79192  0.68201  0.97002  1.0000
  H   H1485     1.0  0.70173  0.50263  0.74643  1.0000
  H   H1486     1.0  0.79061  0.57733  0.57360  1.0000
  H   H1487     1.0  0.93715  0.67360  0.94124  1.0000
  C   C1240     1.0  0.72821  0.65691  0.70399  1.0000
  C   C1241     1.0  0.73095  0.66714  0.73533  1.0000
  C   C1242     1.0  0.72955  0.65843  0.76930  1.0000
  C   C1243     1.0  0.72573  0.63941  0.77224  1.0000
  C   C1244     1.0  0.72307  0.62920  0.74086  1.0000
  C   C1245     1.0  0.72414  0.63785  0.70692  1.0000
  H   H1488     1.0  0.73411  0.68188  0.73339  1.0000
  H   H1489     1.0  0.73167  0.66647  0.79317  1.0000
  H   H1490     1.0  0.72014  0.61449  0.74285  1.0000
  H   H1491     1.0  0.72204  0.62980  0.68307  1.0000
  H   H1492     1.0  0.96580  0.67369  0.92756  1.0000
  C   C1246     1.0  0.62915  0.53020  0.59021  1.0000
  C   C1247     1.0  0.62893  0.66808  0.56352  1.0000
  S   S343      1.0  0.81257  0.51098  0.89752  1.0000
  C   C1248     1.0  0.73592  0.53300  0.92701  1.0000
  H   H1493     1.0  0.72672  0.52547  0.90571  1.0000
  C   C1249     1.0  0.97128  0.67375  0.95377  1.0000
  C   C1250     1.0  0.58371  0.68523  0.54325  1.0000
  C   C1251     1.0  0.63194  0.65634  0.53863  1.0000
  H   H1494     1.0  0.73882  0.52247  0.94393  1.0000
  C   C1252     1.0  0.79207  0.59925  0.51295  1.0000
  H   H1495     1.0  0.50670  0.73550  0.55144  1.0000
  H   H1496     1.0  0.58828  0.50099  0.56229  1.0000
  H   H1497     1.0  0.75415  0.56244  0.96416  1.0000
  S   S344      1.0  0.68253  0.67687  0.52179  1.0000
  H   H1498     1.0  0.60471  0.70916  0.72537  1.0000
  C   C1253     1.0  0.50990  0.68750  0.50156  1.0000
  H   H1499     1.0  0.73196  0.61819  0.50336  1.0000
  C   C1254     1.0  0.82231  0.70012  0.99064  1.0000
  H   H1500     1.0  0.71435  0.52074  0.98487  1.0000
  H   H1501     1.0  0.54559  0.70501  0.55769  1.0000
  C   C1255     1.0  0.61766  0.67793  0.55562  1.0000
  H   H1502     1.0  0.87930  0.59182  0.54379  1.0000
  S   S345      1.0  0.70249  0.60436  0.98775  1.0000
  C   C1256     1.0  0.93809  0.63931  0.95121  1.0000
  H   H1503     1.0  0.62501  0.69709  0.68950  1.0000
  S   S346      1.0  0.70808  0.64200  0.51148  1.0000
  N   N82       1.0  0.73613  0.72241  0.92810  1.0000
  H   H1504     1.0  0.64831  0.74460  0.81976  1.0000
  C   C1257     1.0  0.72268  0.73152  0.93355  1.0000
  H   H1505     1.0  0.76166  0.57259  0.54426  1.0000
  C   C1258     1.0  0.82106  0.70839  0.55096  1.0000
  C   C1259     1.0  0.72377  0.55760  0.92466  1.0000
  H   H1506     1.0  0.78337  0.70485  0.50480  1.0000
  C   C1260     1.0  0.79269  0.66263  0.51836  1.0000
  C   C1261     1.0  0.79568  0.66584  0.97684  1.0000
  H   H1507     1.0  0.64344  0.50786  0.53539  1.0000
  C   C1262     1.0  0.83897  0.56566  0.95872  1.0000
  H   H1508     1.0  0.74301  0.54401  0.99537  1.0000
  H   H1509     1.0  0.83559  0.71165  0.54651  1.0000
  H   H1510     1.0  0.72440  0.70629  0.88245  1.0000
  H   H1511     1.0  0.78564  0.55295  0.57353  1.0000
  H   H1512     1.0  0.51494  0.69641  0.92468  1.0000
  C   C1263     1.0  0.95999  0.66403  0.98336  1.0000
  Fe  Fe175     1.0  0.79214  0.50871  0.85479  1.0000
  H   H1513     1.0  0.78607  0.66233  0.54411  1.0000
  S   S347      1.0  0.64388  0.72916  0.96094  1.0000
  H   H1514     1.0  0.62908  0.51944  0.60898  1.0000
  H   H1515     1.0  0.84470  0.50711  0.85412  1.0000
  C   C1264     1.0  0.79332  0.58244  0.50147  1.0000
  H   H1516     1.0  0.75221  0.57209  0.90704  1.0000
  H   H1517     1.0  0.83929  0.55450  0.94224  1.0000
  H   H1518     1.0  0.71688  0.69590  0.94567  1.0000
  C   C1265     1.0  0.65793  0.71108  0.77632  1.0000
  H   H1519     1.0  0.73100  0.70851  0.98022  1.0000
  C   C1266     1.0  0.84354  0.50662  0.82452  1.0000
  H   H1520     1.0  0.64333  0.57712  0.58648  1.0000
  C   C1267     1.0  0.82229  0.57955  0.99606  1.0000
  C   C1268     1.0  0.51970  0.69071  0.53329  1.0000
  H   H1521     1.0  0.84338  0.58838  0.53279  1.0000
  H   H1522     1.0  0.70436  0.53806  0.98489  1.0000
  H   H1523     1.0  0.86801  0.58090  0.95316  1.0000
  C   C1269     1.0  0.63177  0.71134  0.67802  1.0000
  C   C1270     1.0  0.60867  0.67597  0.52263  1.0000
  H   H1524     1.0  0.74917  0.54166  0.91386  1.0000
  H   H1525     1.0  0.76506  0.72864  0.93266  1.0000
  H   H1526     1.0  0.66323  0.69512  0.86694  1.0000
  C   C1271     1.0  0.63707  0.56295  0.57829  1.0000
  C   C1272     1.0  0.65671  0.71376  0.53402  1.0000
  C   C1273     1.0  0.79171  0.70467  0.52741  1.0000
  C   C1274     1.0  0.81296  0.70265  0.58500  1.0000
  C   C1275     1.0  0.81283  0.66694  0.99059  1.0000
  C   C1276     1.0  0.67479  0.69654  0.57781  1.0000
  H   H1527     1.0  0.68930  0.57134  0.89585  1.0000
  H   H1528     1.0  0.64727  0.55721  0.94153  1.0000
  C   C1277     1.0  0.63028  0.49876  0.54835  1.0000
  H   H1529     1.0  0.66372  0.72220  0.82878  1.0000
  C   C1278     1.0  0.85509  0.59519  0.98667  1.0000
  H   H1530     1.0  0.65072  0.70234  0.72383  1.0000
  C   C1279     1.0  0.70296  0.57120  0.89840  1.0000
  H   H1531     1.0  0.72820  0.73688  0.98998  1.0000
  H   H1532     1.0  0.51295  0.68405  0.55810  1.0000
  C   C1280     1.0  0.73513  0.58470  0.88346  1.0000
  C   C1281     1.0  0.85525  0.58063  0.96505  1.0000
  S   S348      1.0  0.69062  0.59227  0.56025  1.0000
  C   C1282     1.0  0.53820  0.70257  0.53314  1.0000
  S   S349      1.0  0.87598  0.61333  0.99559  1.0000
  C   C1283     1.0  0.61213  0.72279  0.71178  1.0000
  C   C1284     1.0  0.64974  0.71181  0.74378  1.0000
  C   C1285     1.0  0.62267  0.54109  0.53290  1.0000
  C   C1286     1.0  0.67203  0.57790  0.95954  1.0000
  C   C1287     1.0  0.54279  0.70754  0.99530  1.0000
  C   C1288     1.0  0.73748  0.71691  0.89065  1.0000
  C   C1289     1.0  0.65918  0.54599  0.98300  1.0000
  H   H1533     1.0  0.76886  0.69494  0.56361  1.0000
  C   C1290     1.0  0.64077  0.74387  0.68634  1.0000
  H   H1534     1.0  0.57470  0.69306  0.53680  1.0000
  H   H1535     1.0  0.91641  0.65848  0.96234  1.0000
  C   C1291     1.0  0.62988  0.55925  0.54444  1.0000
  Fe  Fe176     1.0  0.58355  0.73605  0.92519  1.0000
  C   C1292     1.0  0.79200  0.56604  0.55746  1.0000
  S   S350      1.0  0.64671  0.73135  0.59112  1.0000
  H   H1536     1.0  0.82197  0.70195  0.60582  1.0000
  C   C1293     1.0  0.78349  0.69892  0.56127  1.0000
  H   H1537     1.0  0.83492  0.51481  0.81763  1.0000
  C   C1294     1.0  0.79735  0.69162  0.65548  1.0000
  C   C1295     1.0  0.63653  0.54844  0.60128  1.0000
  S   S351      1.0  0.80178  0.54569  0.97073  1.0000
  H   H1538     1.0  0.89378  0.62214  0.57127  1.0000
  H   H1539     1.0  0.71125  0.72790  0.87991  1.0000
  N   N83       1.0  0.61586  0.50666  0.54342  1.0000
  H   H1540     1.0  0.76122  0.66962  0.60475  1.0000
  H   H1541     1.0  0.60485  0.72369  0.68699  1.0000
  H   H1542     1.0  0.74039  0.69793  0.94723  1.0000
  H   H1543     1.0  0.67111  0.58875  0.94201  1.0000
  H   H1544     1.0  0.57487  0.67048  0.54794  1.0000
  C   C1296     1.0  0.64065  0.72442  0.73781  1.0000
  C   C1297     1.0  0.79383  0.69771  0.59116  1.0000
  C   C1298     1.0  0.72963  0.50348  0.50693  1.0000
  C   C1299     1.0  0.79916  0.50768  0.69231  1.0000
  N   N84       1.0  0.78457  0.69075  0.62633  1.0000
  C   C1300     1.0  0.50629  0.68766  0.97939  1.0000
  S   S352      1.0  0.55300  0.71877  0.92413  1.0000
  H   H1545     1.0  0.76158  0.69963  0.61990  1.0000
  C   C1301     1.0  0.77244  0.67118  0.62339  1.0000
  S   S353      1.0  0.80113  0.51974  0.79779  1.0000
  H   H1546     1.0  0.74639  0.59531  0.86928  1.0000
  C   C1302     1.0  0.79641  0.50728  0.75771  1.0000
  H   H1547     1.0  0.78989  0.68674  0.68167  1.0000
  H   H1548     1.0  0.53112  0.73989  0.97508  1.0000
  H   H1549     1.0  0.76569  0.66508  0.64962  1.0000
  H   H1550     1.0  0.84361  0.51573  0.75894  1.0000
  C   C1303     1.0  0.71104  0.53079  0.96733  1.0000
  C   C1304     1.0  0.71440  0.50098  0.73854  1.0000
  C   C1305     1.0  0.64067  0.73637  0.76606  1.0000
  C   C1306     1.0  0.74052  0.55382  0.97590  1.0000
  C   C1307     1.0  0.64881  0.73547  0.79847  1.0000
  H   H1551     1.0  0.64593  0.71417  0.88974  1.0000
  C   C1308     1.0  0.89914  0.61946  0.54588  1.0000
  C   C1309     1.0  0.53752  0.70694  0.95975  1.0000
  H   H1552     1.0  0.80285  0.71163  0.97235  1.0000
  C   C1310     1.0  0.81046  0.70936  0.52224  1.0000
  H   H1553     1.0  0.68172  0.69000  0.59494  1.0000
  H   H1554     1.0  0.69399  0.54813  0.93424  1.0000
  H   H1555     1.0  0.61675  0.68774  0.57495  1.0000
  C   C1311     1.0  0.68638  0.58178  0.98314  1.0000
  H   H1556     1.0  0.81919  0.66737  0.54014  1.0000
  C   C1312     1.0  0.72040  0.73836  0.96755  1.0000
  H   H1557     1.0  0.74807  0.71061  0.88719  1.0000
  H   H1558     1.0  0.63615  0.67026  0.58835  1.0000
  H   H1559     1.0  0.94935  0.66022  0.52156  1.0000
  C   C1313     1.0  0.73090  0.70551  0.95134  1.0000
  C   C1314     1.0  0.71752  0.58463  0.88012  1.0000
  C   C1315     1.0  0.65852  0.56002  0.95939  1.0000
  C   C1316     1.0  0.65742  0.72285  0.80361  1.0000
  H   H1560     1.0  0.63053  0.57061  0.52647  1.0000
  C   C1317     1.0  0.77338  0.70171  0.63733  1.0000
  H   H1561     1.0  0.61060  0.73345  0.72943  1.0000
  C   C1318     1.0  0.81151  0.66553  0.51599  1.0000
  H   H1562     1.0  0.66767  0.71116  0.62059  1.0000
  N   N85       1.0  0.63154  0.72546  0.70404  1.0000
  H   H1563     1.0  0.83246  0.71354  0.99556  1.0000
  H   H1564     1.0  0.70090  0.52241  0.94824  1.0000
  H   H1565     1.0  0.74124  0.72896  0.87158  1.0000
  C   C1319     1.0  0.82633  0.68423  0.99730  1.0000
  H   H1566     1.0  0.66468  0.70127  0.78053  1.0000
  H   H1567     1.0  0.71517  0.59511  0.86348  1.0000
  H   H1568     1.0  0.76456  0.50030  0.65285  1.0000
  H   H1569     1.0  0.58992  0.69066  0.56895  1.0000
  H   H1570     1.0  0.73519  0.56310  0.99110  1.0000
  C   C1320     1.0  0.89094  0.60237  0.53048  1.0000
  H   H1571     1.0  0.77672  0.53557  0.51961  1.0000
  H   H1572     1.0  0.95394  0.70864  0.99543  1.0000
  C   C1321     1.0  0.71121  0.73345  0.90611  1.0000
  C   C1322     1.0  0.66467  0.70165  0.51953  1.0000
  S   S354      1.0  0.64106  0.52423  0.98469  1.0000
  C   C1323     1.0  0.74506  0.50368  0.75217  1.0000
  N   N86       1.0  0.94033  0.65341  0.97869  1.0000
  H   H1573     1.0  0.78546  0.65255  0.97134  1.0000
  H   H1574     1.0  0.62443  0.71230  0.65339  1.0000
  C   C1324     1.0  0.93117  0.66609  0.96677  1.0000
  H   H1575     1.0  0.64594  0.71333  0.66880  1.0000
  H   H1576     1.0  0.92346  0.63040  0.94847  1.0000
  H   H1577     1.0  0.80687  0.56863  0.55447  1.0000
  H   H1578     1.0  0.75627  0.50739  0.77049  1.0000
  Fe  Fe177     1.0  0.58976  0.74064  0.54135  1.0000
  H   H1579     1.0  0.64144  0.64946  0.54419  1.0000
  H   H1580     1.0  0.75645  0.54851  0.54176  1.0000
  C   C1325     1.0  0.62337  0.65408  0.50599  1.0000
  C   C1326     1.0  0.83741  0.49998  0.71245  1.0000
  H   H1581     1.0  0.72720  0.51090  0.78821  1.0000
  S   S355      1.0  0.48677  0.67233  0.50234  1.0000
  H   H1582     1.0  0.60216  0.71597  0.50321  1.0000
  H   H1583     1.0  0.72482  0.59377  0.51312  1.0000
  H   H1584     1.0  0.61668  0.71216  0.53608  1.0000
  Fe  Fe178     1.0  0.62371  0.74160  0.93766  1.0000
  C   C1327     1.0  0.61098  0.50484  0.50519  1.0000
  H   H1585     1.0  0.57238  0.74349  0.74290  1.0000
  H   H1586     1.0  0.68950  0.74273  0.89153  1.0000
  H   H1587     1.0  0.52071  0.72806  0.52278  1.0000
  C   C1328     1.0  0.83891  0.50180  0.74947  1.0000
  C   C1329     1.0  0.76402  0.56198  0.52755  1.0000
  C   C1330     1.0  0.69855  0.74196  0.91240  1.0000
  H   H1588     1.0  0.81563  0.65447  0.99544  1.0000
  C   C1331     1.0  0.75159  0.49835  0.63933  1.0000
  S   S356      1.0  0.60112  0.74485  0.97288  1.0000
  C   C1332     1.0  0.60978  0.70694  0.51075  1.0000
  H   H1589     1.0  0.75738  0.56170  0.50159  1.0000
  H   H1590     1.0  0.65021  0.72064  0.51674  1.0000
  C   C1333     1.0  0.83966  0.56425  0.50182  1.0000
  N   N87       1.0  0.59757  0.68731  0.51418  1.0000
  H   H1591     1.0  0.93222  0.67666  0.98715  1.0000
  C   C1334     1.0  0.72872  0.50568  0.76213  1.0000
  H   H1592     1.0  0.59941  0.50943  0.49973  1.0000
  Fe  Fe179     1.0  0.63636  0.94119  0.06359  1.0000
  S   S357      1.0  0.61153  0.92842  0.10042  1.0000
  S   S358      1.0  0.64882  0.97282  0.07263  1.0000
  Fe  Fe180     1.0  0.63233  0.90231  0.03672  1.0000
  S   S359      1.0  0.60796  0.88793  0.07247  1.0000
  H   H1593     1.0  0.53507  0.89996  0.15714  1.0000
  Fe  Fe181     1.0  0.59812  0.91033  0.05517  1.0000
  C   C1335     1.0  0.64915  0.98610  0.29854  1.0000
  Fe  Fe182     1.0  0.62302  0.90689  0.11508  1.0000
  S   S360      1.0  0.61967  0.89208  0.16950  1.0000
  S   S361      1.0  0.64854  0.92002  0.08079  1.0000
  H   H1594     1.0  0.58667  0.89822  0.21610  1.0000
  Fe  Fe183     1.0  0.63291  0.94862  0.43705  1.0000
  S   S362      1.0  0.61371  0.93973  0.39164  1.0000
  S   S363      1.0  0.64210  0.97939  0.45168  1.0000
  Fe  Fe184     1.0  0.63136  0.90833  0.44970  1.0000
  S   S364      1.0  0.61342  0.89757  0.40288  1.0000
  C   C1336     1.0  0.52023  0.78458  0.49427  1.0000
  Fe  Fe185     1.0  0.63102  0.92394  0.37340  1.0000
  S   S365      1.0  0.64224  0.93279  0.31653  1.0000
  Fe  Fe186     1.0  0.59757  0.91430  0.42463  1.0000
  S   S366      1.0  0.56653  0.90168  0.42360  1.0000
  S   S367      1.0  0.65072  0.93338  0.41833  1.0000
  S   S368      1.0  0.61489  0.92444  0.47203  1.0000
  H   H1595     1.0  0.57310  0.88172  0.16521  1.0000
  H   H1596     1.0  0.54137  0.76246  0.48138  1.0000
  C   C1337     1.0  0.55108  0.91372  0.22073  1.0000
  C   C1338     1.0  0.63464  0.85685  0.46777  1.0000
  C   C1339     1.0  0.52202  0.86848  0.48226  1.0000
  H   H1597     1.0  0.63769  0.86364  0.44162  1.0000
  H   H1598     1.0  0.68466  0.97617  0.11500  1.0000
  C   C1340     1.0  0.62519  0.90379  0.21020  1.0000
  C   C1341     1.0  0.61971  0.89370  0.24277  1.0000
  C   C1342     1.0  0.62426  0.90246  0.27569  1.0000
  C   C1343     1.0  0.63465  0.92134  0.27621  1.0000
  C   C1344     1.0  0.63999  0.93144  0.24362  1.0000
  C   C1345     1.0  0.63512  0.92276  0.21075  1.0000
  H   H1599     1.0  0.61202  0.87901  0.24258  1.0000
  H   H1600     1.0  0.62020  0.89453  0.30058  1.0000
  H   H1601     1.0  0.64812  0.94602  0.24375  1.0000
  H   H1602     1.0  0.63944  0.93067  0.18586  1.0000
  H   H1603     1.0  0.58041  0.83324  0.42043  1.0000
  C   C1346     1.0  0.97849  0.74755  0.37415  1.0000
  H   H1604     1.0  0.58305  0.93219  0.15488  1.0000
  H   H1605     1.0  0.58763  0.87708  0.46563  1.0000
  C   C1347     1.0  0.97813  0.75712  0.05815  1.0000
  C   C1348     1.0  0.57627  0.90589  0.26314  1.0000
  H   H1606     1.0  0.64179  0.99366  0.28383  1.0000
  S   S369      1.0  0.62188  0.92434  0.01665  1.0000
  C   C1349     1.0  0.56358  0.91237  0.27881  1.0000
  C   C1350     1.0  0.57632  0.89557  0.15212  1.0000
  H   H1607     1.0  0.55964  0.93020  0.15248  1.0000
  C   C1351     1.0  0.53356  0.87942  0.45444  1.0000
  H   H1608     1.0  0.54137  0.91738  0.20534  1.0000
  C   C1352     1.0  0.53544  0.88088  0.02001  1.0000
  H   H1609     1.0  0.62664  0.97714  0.35747  1.0000
  H   H1610     1.0  0.59127  0.81975  0.46826  1.0000
  H   H1611     1.0  0.64021  0.97118  0.29876  1.0000
  H   H1612     1.0  0.55986  0.85863  0.43343  1.0000
  H   H1613     1.0  0.58812  0.85786  0.41467  1.0000
  H   H1614     1.0  0.54130  0.92153  0.26991  1.0000
  H   H1615     1.0  0.65069  0.96539  0.35445  1.0000
  C   C1353     1.0  0.57635  0.90313  0.22633  1.0000
  C   C1354     1.0  0.56929  0.92306  0.14654  1.0000
  H   H1616     1.0  0.54988  0.83406  0.44188  1.0000
  C   C1355     1.0  0.54516  0.89318  0.15302  1.0000
  H   H1617     1.0  0.62659  0.80037  0.04634  1.0000
  C   C1356     1.0  0.56362  0.90684  0.20393  1.0000
  H   H1618     1.0  0.52478  0.75894  0.44657  1.0000
  H   H1619     1.0  0.66351  0.98326  0.38212  1.0000
  C   C1357     1.0  0.55103  0.91630  0.25763  1.0000
  H   H1620     1.0  0.98440  0.75144  0.14705  1.0000
  C   C1358     1.0  0.55203  0.88978  0.46026  1.0000
  H   H1621     1.0  0.68089  0.83047  0.07912  1.0000
  H   H1622     1.0  0.66177  0.98753  0.28266  1.0000
  H   H1623     1.0  0.59071  0.90415  0.15729  1.0000
  H   H1624     1.0  0.53998  0.87955  0.16756  1.0000
  N   N88       1.0  0.65358  0.99275  0.33532  1.0000
  C   C1359     1.0  0.52795  0.75312  0.47187  1.0000
  N   N89       1.0  0.57565  0.84730  0.46657  1.0000
  H   H1625     1.0  0.50485  0.76876  0.00233  1.0000
  H   H1626     1.0  0.52823  0.87959  0.42810  1.0000
  S   S370      1.0  0.56721  0.90144  0.05204  1.0000
  H   H1627     1.0  0.56359  0.91446  0.30741  1.0000
  H   H1628     1.0  0.54938  0.84995  0.47566  1.0000
  C   C1360     1.0  0.58671  0.84645  0.43437  1.0000
  H   H1629     1.0  0.54520  0.89055  0.12377  1.0000
  H   H1630     1.0  0.58623  0.90313  0.27961  1.0000
  H   H1631     1.0  0.57576  0.89354  0.12273  1.0000
  H   H1632     1.0  0.50795  0.86029  0.47722  1.0000
  C   C1361     1.0  0.63221  0.83797  0.47171  1.0000
  H   H1633     1.0  0.56997  0.92208  0.11687  1.0000
  H   H1634     1.0  0.70569  0.75139  0.99995  1.0000
  N   N90       1.0  0.56366  0.90461  0.16469  1.0000
  H   H1635     1.0  0.66184  0.95649  0.48076  1.0000
  H   H1636     1.0  0.65921  0.80454  0.04684  1.0000
  H   H1637     1.0  0.68156  0.98617  0.44200  1.0000
  C   C1362     1.0  0.66074  0.97979  0.35375  1.0000
  H   H1638     1.0  0.67334  0.97948  0.34006  1.0000
  N   N91       1.0  0.63547  0.85234  0.11646  1.0000
  C   C1363     1.0  0.61560  0.84845  0.11388  1.0000
  C   C1364     1.0  0.63946  0.85206  0.15498  1.0000
  C   C1365     1.0  0.64529  0.87122  0.10130  1.0000
  C   C1366     1.0  0.64165  0.83900  0.09741  1.0000
  C   C1367     1.0  0.62962  0.82393  0.07858  1.0000
  C   C1368     1.0  0.66031  0.84091  0.09723  1.0000
  C   C1369     1.0  0.63598  0.81164  0.06090  1.0000
  C   C1370     1.0  0.66654  0.82860  0.07923  1.0000
  C   C1371     1.0  0.65439  0.81400  0.06107  1.0000
  H   H1639     1.0  0.60729  0.83465  0.12581  1.0000
  H   H1640     1.0  0.61141  0.85873  0.12842  1.0000
  H   H1641     1.0  0.61177  0.84922  0.08560  1.0000
  H   H1642     1.0  0.63287  0.83793  0.16715  1.0000
  H   H1643     1.0  0.63441  0.86154  0.17025  1.0000
  H   H1644     1.0  0.65433  0.85666  0.15958  1.0000
  H   H1645     1.0  0.64302  0.87188  0.07220  1.0000
  H   H1646     1.0  0.64063  0.88158  0.11429  1.0000
  H   H1647     1.0  0.66026  0.87602  0.10466  1.0000
  H   H1648     1.0  0.61526  0.82143  0.07649  1.0000
  H   H1649     1.0  0.67028  0.85208  0.11075  1.0000
  H   H1650     1.0  0.60085  0.84801  0.44124  1.0000
  H   H1651     1.0  0.67447  0.98894  0.16757  1.0000
  C   C1372     1.0  0.61471  0.85041  0.00821  1.0000
  H   H1652     1.0  0.63334  0.83040  0.44838  1.0000
  C   C1373     1.0  0.63652  0.99161  0.35471  1.0000
  H   H1653     1.0  0.52913  0.87993  0.04633  1.0000
  H   H1654     1.0  0.98456  0.76327  0.03285  1.0000
  H   H1655     1.0  0.98225  0.75540  0.39826  1.0000
  H   H1656     1.0  0.67970  0.98814  0.01995  1.0000
  H   H1657     1.0  0.52992  0.78651  0.47228  1.0000
  C   C1374     1.0  0.55435  0.89042  0.01507  1.0000
  C   C1375     1.0  0.55793  0.84739  0.45393  1.0000
  S   S371      1.0  0.63783  0.89122  0.49447  1.0000
  S   S372      1.0  0.64358  0.88441  0.00227  1.0000
  C   C1376     1.0  0.55868  0.88961  0.49451  1.0000
  H   H1658     1.0  0.51629  0.75395  0.01793  1.0000
  C   C1377     1.0  0.58158  0.81899  0.48975  1.0000
  C   C1378     1.0  0.97791  0.75026  0.12164  1.0000
  H   H1659     1.0  0.52455  0.81369  0.49246  1.0000
  H   H1660     1.0  0.60680  0.85777  0.02019  1.0000
  H   H1661     1.0  0.59889  0.86557  0.49322  1.0000
  C   C1379     1.0  0.69232  0.99020  0.12265  1.0000
  C   C1380     1.0  0.57262  0.83186  0.49280  1.0000
  C   C1381     1.0  0.60653  0.83127  0.00286  1.0000
  C   C1382     1.0  0.58535  0.86495  0.48403  1.0000
  H   H1662     1.0  0.59245  0.82405  0.01144  1.0000
  H   H1663     1.0  0.71129  0.99571  0.07796  1.0000
  C   C1383     1.0  0.63380  0.86703  0.49773  1.0000
  S   S373      1.0  0.51892  0.86598  0.91883  1.0000
  H   H1664     1.0  0.63891  0.95954  0.56743  1.0000
  Fe  Fe187     1.0  0.60956  0.77393  0.94948  1.0000
  S   S374      1.0  0.59083  0.76511  0.90344  1.0000
  H   H1665     1.0  0.58758  0.75061  0.80119  1.0000
  Fe  Fe188     1.0  0.61398  0.76089  0.87361  1.0000
  S   S375      1.0  0.62488  0.77402  0.81853  1.0000
  H   H1666     1.0  0.50314  0.89357  0.81983  1.0000
  S   S376      1.0  0.63347  0.77150  0.91845  1.0000
  Fe  Fe189     1.0  0.61779  0.77997  0.54802  1.0000
  S   S377      1.0  0.58829  0.76618  0.56584  1.0000
  H   H1667     1.0  0.52969  0.78269  0.93561  1.0000
  H   H1668     1.0  0.51578  0.76601  0.90596  1.0000
  C   C1384     1.0  0.55134  0.88389  0.95167  1.0000
  S   S378      1.0  0.62858  0.77249  0.59967  1.0000
  S   S379      1.0  0.51590  0.85226  0.55062  1.0000
  H   H1669     1.0  0.56531  0.79244  0.56533  1.0000
  C   C1385     1.0  0.48700  0.87334  0.71944  1.0000
  N   N92       1.0  0.51321  0.74985  0.49968  1.0000
  C   C1386     1.0  0.50466  0.86849  0.76946  1.0000
  H   H1670     1.0  0.49256  0.86435  0.66800  1.0000
  H   H1671     1.0  0.64043  0.75528  0.70336  1.0000
  C   C1387     1.0  0.58649  0.75271  0.74354  1.0000
  H   H1672     1.0  0.55265  0.87810  0.54835  1.0000
  H   H1673     1.0  0.62957  0.86559  0.55504  1.0000
  C   C1388     1.0  0.49573  0.78229  0.55106  1.0000
  C   C1389     1.0  0.62743  0.83892  0.53545  1.0000
  H   H1674     1.0  0.62476  0.83219  0.56166  1.0000
  C   C1390     1.0  0.53011  0.74959  0.95373  1.0000
  C   C1391     1.0  0.61328  0.76864  0.77780  1.0000
  C   C1392     1.0  0.52891  0.87869  0.81234  1.0000
  C   C1393     1.0  0.69671  0.74854  0.94603  1.0000
  H   H1675     1.0  0.65919  0.93375  0.57094  1.0000
  C   C1394     1.0  0.61432  0.77214  0.71246  1.0000
  C   C1395     1.0  0.62278  0.77645  0.74559  1.0000
  H   H1676     1.0  0.62183  0.77814  0.68788  1.0000
  H   H1677     1.0  0.63687  0.78573  0.74623  1.0000
  C   C1396     1.0  0.51360  0.86069  0.74472  1.0000
  C   C1397     1.0  0.56711  0.80319  0.54508  1.0000
  Fe  Fe190     1.0  0.59905  0.75702  0.61536  1.0000
  H   H1678     1.0  0.65069  0.98843  0.53740  1.0000
  C   C1398     1.0  0.64272  0.85019  0.98084  1.0000
  C   C1399     1.0  0.53240  0.87446  0.95660  1.0000
  H   H1679     1.0  0.63431  0.93847  0.54423  1.0000
  C   C1400     1.0  0.52455  0.87274  0.99105  1.0000
  H   H1680     1.0  0.66641  0.95526  0.59396  1.0000
  N   N93       1.0  0.66213  0.95783  0.53787  1.0000
  H   H1681     1.0  0.64237  0.82365  0.96325  1.0000
  C   C1401     1.0  0.63451  0.83102  0.97533  1.0000
  C   C1402     1.0  0.51635  0.76399  0.99634  1.0000
  H   H1682     1.0  0.53385  0.89274  0.79947  1.0000
  H   H1683     1.0  0.55416  0.83950  0.52841  1.0000
  H   H1684     1.0  0.64237  0.83774  0.83120  1.0000
  H   H1685     1.0  0.60172  0.79639  0.84137  1.0000
  C   C1403     1.0  0.63018  0.85791  0.53157  1.0000
  C   C1404     1.0  0.67317  0.97787  0.53614  1.0000
  H   H1686     1.0  0.64397  0.88054  0.91354  1.0000
  C   C1405     1.0  0.50943  0.85945  0.70850  1.0000
  S   S380      1.0  0.60520  0.79708  0.98166  1.0000
  C   C1406     1.0  0.50348  0.85009  0.82285  1.0000
  H   H1687     1.0  0.58621  0.85339  0.92798  1.0000
  H   H1688     1.0  0.51624  0.85324  0.69013  1.0000
  C   C1407     1.0  0.59611  0.76022  0.71127  1.0000
  C   C1408     1.0  0.69251  0.98408  0.53284  1.0000
  H   H1689     1.0  0.59252  0.80173  0.88171  1.0000
  H   H1690     1.0  0.63017  0.80183  0.87120  1.0000
  H   H1691     1.0  0.64243  0.82343  0.89069  1.0000
  C   C1409     1.0  0.51643  0.77097  0.93377  1.0000
  N   N94       1.0  0.50900  0.86918  0.80786  1.0000
  S   S381      1.0  0.48976  0.81601  0.90453  1.0000
  C   C1410     1.0  0.49811  0.76630  0.53938  1.0000
  H   H1692     1.0  0.63433  0.74653  0.76345  1.0000
  H   H1693     1.0  0.62139  0.80837  0.91129  1.0000
  H   H1694     1.0  0.50671  0.84988  0.85161  1.0000
  N   N95       1.0  0.51466  0.75593  0.96040  1.0000
  H   H1695     1.0  0.67947  0.95030  0.50030  1.0000
  H   H1696     1.0  0.62819  0.81680  0.81256  1.0000
  H   H1697     1.0  0.61441  0.88017  0.93749  1.0000
  C   C1411     1.0  0.62868  0.82884  0.50554  1.0000
  C   C1412     1.0  0.63288  0.86005  0.99723  1.0000
  S   S382      1.0  0.58496  0.75405  0.67025  1.0000
  H   H1698     1.0  0.50335  0.87955  0.85826  1.0000
  H   H1699     1.0  0.52364  0.85514  0.75334  1.0000
  H   H1700     1.0  0.53705  0.87095  0.80087  1.0000
  H   H1701     1.0  0.55754  0.88538  0.92513  1.0000
  H   H1702     1.0  0.51032  0.84178  0.80884  1.0000
  H   H1703     1.0  0.59162  0.81370  0.84014  1.0000
  H   H1704     1.0  0.68627  0.75437  0.95107  1.0000
  H   H1705     1.0  0.57774  0.86683  0.50806  1.0000
  H   H1706     1.0  0.64592  0.85458  0.88020  1.0000
  H   H1707     1.0  0.58708  0.82718  0.89506  1.0000
  H   H1708     1.0  0.62114  0.83643  0.81222  1.0000
  H   H1709     1.0  0.48855  0.84269  0.82071  1.0000
  H   H1710     1.0  0.54937  0.81451  0.57235  1.0000
  C   C1413     1.0  0.50530  0.79929  0.53419  1.0000
  H   H1711     1.0  0.57682  0.89907  0.97657  1.0000
  Fe  Fe191     1.0  0.49063  0.84345  0.92343  1.0000
  N   N96       1.0  0.61812  0.82247  0.86353  1.0000
  C   C1414     1.0  0.62851  0.81369  0.88507  1.0000
  C   C1415     1.0  0.60016  0.80803  0.85641  1.0000
  C   C1416     1.0  0.62787  0.82871  0.82843  1.0000
  C   C1417     1.0  0.61667  0.83836  0.88291  1.0000
  C   C1418     1.0  0.59984  0.83858  0.89742  1.0000
  C   C1419     1.0  0.63256  0.85401  0.88908  1.0000
  C   C1420     1.0  0.59909  0.85362  0.91647  1.0000
  C   C1421     1.0  0.63162  0.86898  0.90806  1.0000
  C   C1422     1.0  0.61493  0.86878  0.92174  1.0000
  C   C1423     1.0  0.55822  0.81565  0.54905  1.0000
  H   H1712     1.0  0.65679  0.85745  0.97226  1.0000
  C   C1424     1.0  0.66771  0.94875  0.56831  1.0000
  H   H1713     1.0  0.54354  0.76122  0.95236  1.0000
  H   H1714     1.0  0.50324  0.81163  0.54302  1.0000
  H   H1715     1.0  0.68205  0.94949  0.56518  1.0000
  C   C1425     1.0  0.56231  0.89164  0.98081  1.0000
  C   C1426     1.0  0.49955  0.87903  0.82964  1.0000
  S   S383      1.0  0.61894  0.75448  0.52154  1.0000
  C   C1427     1.0  0.59507  0.75673  0.77664  1.0000
  C   C1428     1.0  0.54723  0.87849  0.52217  1.0000
  C   C1429     1.0  0.64219  0.95363  0.54252  1.0000
  H   H1716     1.0  0.53233  0.88024  0.84120  1.0000
  C   C1430     1.0  0.49616  0.86578  0.69590  1.0000
  C   C1431     1.0  0.61629  0.82142  0.98624  1.0000
  C   C1432     1.0  0.49108  0.87471  0.75571  1.0000
  H   H1717     1.0  0.50556  0.77685  0.93826  1.0000
  C   C1433     1.0  0.52890  0.86775  0.51615  1.0000
  H   H1718     1.0  0.75877  0.74821  0.92171  1.0000
  C   C1434     1.0  0.57877  0.80488  0.51553  1.0000
  H   H1719     1.0  0.51000  0.86566  0.99520  1.0000
  C   C1435     1.0  0.56099  0.82987  0.52351  1.0000
  C   C1436     1.0  0.51737  0.80040  0.50567  1.0000
  H   H1720     1.0  0.69949  0.97440  0.53166  1.0000
  H   H1721     1.0  0.53034  0.74988  0.54378  1.0000
  C   C1437     1.0  0.51068  0.76697  0.51100  1.0000
  H   H1722     1.0  0.48980  0.75336  0.55248  1.0000
  H   H1723     1.0  0.52928  0.77610  0.99838  1.0000
  H   H1724     1.0  0.63676  0.95904  0.51937  1.0000
  C   C1438     1.0  0.66526  0.99170  0.53639  1.0000
  H   H1725     1.0  0.58617  0.79555  0.51301  1.0000
  C   C1439     1.0  0.70758  0.74672  0.97357  1.0000
  S   S384      1.0  0.62622  0.80503  0.50843  1.0000
  C   C1440     1.0  0.66512  0.94939  0.50426  1.0000
  H   H1726     1.0  0.65645  0.93443  0.50365  1.0000
  H   H1727     1.0  0.65535  0.74631  0.67959  1.0000
  H   H1728     1.0  0.57275  0.89781  0.49955  1.0000
  Fe  Fe192     1.0  0.62708  0.74577  0.57411  1.0000
