data_image0
_chemical_formula_structural       SFeSCFeSFeS2HFeS2FeS2FeSFeS3C4HNHC5H2C3FeCHCHCH2NC6H4CH4NH3C3H2C3HC3H2CNC3H3CHCHCH2SHC3H5CH2CH4NHCHCH3CHSHCHCH8CH2C2HCHCH2C2H3CH2CHC2HC3HC2FeS2FeSHFeSFeHS2FeS2FeS2FeSFeS3FeS2FeS2FeSFeS3CHNHC5HC6H4NC2HCHC2H2CHC4H3C7H6C4H4CHSC2NC9H14NC9H14NCH3C2H2CHC2HCH3CH2C3H5CH4CHSH7CH2NHCHCHC2SC3HC2H10CHC2FeS2FeS2FeSFeS2HFeS2FeS2FeSFeS3CFeS2FeS2FeSFeS3C2H2C3HCH3C6H4CHC6H2CH3C5H3C6H4CH5SHNC8H3CH7C2NH2CH11CHCHCHCNHCH2CNC7H12CH2CHCNC2HCH2CHCHCHC2H4CH2C4HCH2NHC2HC2H2C3HCH2CHCHCH6CHCH2CH2CH3C2HCHCH2NH2CH2CHCHCHC2HSH2CHCHCH2FeS2FeS2FeSFeS3FeSCSFeSFeSNC7SC8H4C5H6CHC4H3C3HSH2CH2CFeC3HC2H6CH6C3H2CHCHC2H4SC3H7CH6CH2CNC2HNCH2CHNC4HCH9NC5NH10CH3C4FeSHFeSCFeSFeS3FeS2FeS2FeSFeHS2C3H2C2H2CH3SCH3CHC6H4C3H5C5HC2H3C2NH2C2HSHCNHC2H2CH3C2H5CH2CH3SH2CH2CNHCHC4H2CHC2HCH2CHFeS2FeS2FeSFeS3FeS2FeS2FeSFeS3HFeS2FeS2FeSFeS3CHC4H3C6HCH2C6H4C5H3CHC6H4C4H4C2HCH4C2NC7H14C2NC4HCH4C3H8CH7CHCHSNHC3H2CH4NC6H12C2HSHC3HCNH3C4HNC9H10CHC4H4CNH3C3H2CHC2HCH2CHCH2CH2CNH2C2HC4H3CH2C3H3C2HFeSHFeS2FeSFeS3FeS2FeS2FeSFeS3CFeS2FeCFeSFeS3HCH2C3HC6H2CHC3HC2H4C6H4C6H5CHC3HC2H2NHNHCHC7H3CH9C4H4CHC3HCH3C2H3NHNCH2CHC2HC3H3C5HCH3CHNCHC4HC3HCH4CHSCH2CH6NCH4C2HSH4C2H2CH3CH4NC2H2CSCH7CHCH2C3H5FeSHFeS2FeSFeS3FeS2FeS2FeSFeS3C5H2SH3C6H4C6H4NH4CH2C2H3CHC2SH3NC2HCH2C4H2C2HCHCH2CHC2HC2H3NC2H4C3H5C2HCH4CHCH2CH2CH3CH4CHCHC2FeS2FeS2FeHFeS3FeS4FeSFeS2FeSHFeSFeS4HSHC2HC6H4C3H4CHCHC4HCH3C7H4C6H5CHFeHCH3NC9H14NC6H14C5HCHCH3CSH3NH3NSHC3SCH2FeHSCHC2SHCSC4FeH2C2H3CFe2CH3CHSH3CHSCHSH2C2HCSH2SHFeSHCH4CHCH2CH4CH5NC3H3CFeS2HSHFeSFeSFeS2FeS2FeCFeS3C3H2CHC8H4CHC4HNCH3CH2CHCH2CH3C4H2NHCH2C5H2CH2CH3CHNC4HCHCFeHCH6C2H3CSH2C3NCHC4H2CH3CSHCH3CH2CH2SH4C2H3CFeSHFeS2FeSFeS3FeSFeS2FeSFeCS2CHCH3CH3NHC3H2C2HCH4C6H5C3HCNH4C4HCH5CHC2HC3H2CHCH3C2H4CH2CH2CNHSH2C2HC4FeS2FeS2FeCFeS3FeS2FeS2FeSFeS3FeS2FeS2FeSFeS5FeS2HCH3C6H4C3HSH3CHC6H4CHCH2C6H4C6H4CHC2HCH2CHC2H2CHNC9H14CHCHFeH2SH2C2H2SHC2H4FeH2CHNC4H2C2H12C2NC2HCH2SHCHCH3C4H2C2H3C3H2C2HCH5CHCH6NHC2H2C4H2CH3NH3C6FeCH2CNH2CNCH5C2H4C3HC3H2CH2C3HCFeS2FeS2FeSFeS3FeS2FeS2FeHFeS4FeSFeSHSFeS2FeS2FeSFeS3C7H2CHC6H8C6H3C2H2CH2C6H4C6H5CHCSNC3H6CH2CHC2HC2H2CHCNC9H18C3H5NC2H2C2HCH3CSCH2C2HCNCHFeCHCH3FeH2C2HC3H8CH2CH2NC6H10CHCHSCHC4H3CH2CNCH3SHCHC2HC4HC2NC2HC2HCH2C2HCH2C4H2C3H2CH5CHCHCNH3NHC2HCHCNHCHCH2CHC3FeS2FeSFeS2FeS2FeS2FeSFeS3C2HCH3NHCH3CHCHCHC2H4CHCHC6H6C4H5CNHC3HC2H3CH2CHCHC2H3C3H3FeSNHCHCHC5H2CH2CHC4HCSH3NCH2CH8C4H4CHCFeS2FeS2FeSFeS3Fe2S2FeSFeS3C3H2NC5H2CH7C3H2C6H4CHC2H3SH2CH3CHCH3C4H2C5HC3SCNC4H3CHCHCHCH2N2HC2H4CH2C3H3C4H2CHSH3NHCHC2H2C2H2CH2C3H3CH3C2H6CH10FeS2FeS2FeSFeS3FeSCFeS2FeSFeS3FeS2FeS2FeSFeS3FeS2FeS2FeSFeS3CHC2H2CHC8H4C2H2C2H4CHC3HC10H3C2H2C3HC6H4C6H9CHCHC2HCH4CH5CH2CH2C3HSC5HNC2H3NCHCHCH6CH2CHC2H6C3HNHC2H2CH2CHC3H4NH7CHCHCHC2HNH4C3HC3H2C2HCH5C2H2C3HCH6CH3CHC2HCH2C3HCH3C2H5SNC3HCH2CH3NH2C3H3CHC2FeS2FeS2FeSFeS3CFeSFeS2FeSFeS3HC4H5C3H2C5HCH4C6H4CHCSH2C5H3CH3CHCNCH4CH2CHCH2CHC7H6C4H2CH2CH2C3HC2H3C2NCHCH3CH3CNH2CHCHC3H2C2H2C2H2CH7C3HC4H3CHFeS2FeSHFeSFeS3H2FeS2FeS2FeHFeS3FeS2FeS2FeSFeS3H2CH3CHC6H4NH4C4HC2NC6H6NC8H4C5H2CH2SH2C2HCHC2HCH3CHCH2NHCHCH5CHC2HC3H5CNC9H14CHC2H3CHCH2CH2CHC2HCSH3NCHCH3CH3NC2H2C2H2CHC3HCHFeS2FeS2FeHFeS3HFeSFeS2FeSFeS3FeS2FeSCFeSFeS3C2H3CHCH2C6H5C6HC2HC7H4C3H2C3SC2HCHNCH2C2HCHSH2CH3CH2NCSCHNC9H14C3H2CH2C2H2CHCNHCH2C2NCH2CHCH2C3H4CNH3CHCH5CHCHC3H2CH2CH2CH2CH6CNC2HCH3C2H3C2HC2HCH3SCH10CH2CHFeS2FeS2FeSFeS3FeS2FeS2FeSFeS2HC4H4CH2CH4C2SH3CHC3HC2H4C6H4C6H3C2HC2HC2H2NC4NC9H11SH2C2H2CH2C4HCH6CH2C2NCH3CH2C3HNC4H3CHC3H7SH3CH2CH2CHCH2C2HCHCH2CHC4HCHNHCH7FeS2FeSFeSFeS3FeSHFeS2FeSFeS3C2H3C3HCHSHC6H4C2H2SH8CH2C3H4NH3NHCSHCH2C2HCHCH2CH4CHCHC4HNC9H7NCHCH2C2HNCH3CHCHC2H5C2HFeS2FeS2FeSFeS3H2SHFeS2FeS2FeSFeS2FeS2FeSNFeCFeS3CHC2HC2H3C6H5C3H6CHC7H4C6H4C3H2C2HCH2NC9H14NC5HC2H9C2H3CH4CHC2H2C2HCH8C2H7NCH2C4HC3H2C2HC2HSC2H2C2H2CHCH3CH3FeS2FeS2FeSFeS3H2FeHFeS2FeSFeS3FeS2FeHCFeSCSHC2SCHNH5C6H4C6H4C3HC4HC2HCH2CFeC4H3CHSHC4HCH3CHCSC2SHCH2CHCHCHCH3C2H2NC9H13NHC8H2CH12CSNHCHC2H4C3HCH2CFeS2FeSHFeSFeS3FeSCFeS2FeCFeS3CHCH4C3H2C6H5C3HSH3C3HCHCHCH4CH4CHC2HCH2CH3C2HC2H4CHCH2CHCHCNCHCHC2HCHNH2NCH3CH5CH2C
_chemical_formula_sum              "S512 Fe256 C1920 H2304 N128"
_cell_length_a       65.3682
_cell_length_b       65.8047
_cell_length_c       79.2861
_cell_angle_alpha    81.6562
_cell_angle_beta     81.5172
_cell_angle_gamma    80.7395

_space_group_name_H-M_alt    "P 1"
_space_group_IT_number       1

loop_
  _space_group_symop_operation_xyz
  'x, y, z'

loop_
  _atom_site_type_symbol
  _atom_site_label
  _atom_site_symmetry_multiplicity
  _atom_site_fract_x
  _atom_site_fract_y
  _atom_site_fract_z
  _atom_site_occupancy
  S   S1        1.0  0.27097  0.34976  0.04381  1.0000
  Fe  Fe1       1.0  0.27540  0.39945  0.06405  1.0000
  S   S2        1.0  0.24663  0.39561  0.05321  1.0000
  C   C1        1.0  0.02586  0.32565  0.19460  1.0000
  Fe  Fe2       1.0  0.25121  0.36319  0.06670  1.0000
  S   S3        1.0  0.22513  0.34852  0.08406  1.0000
  Fe  Fe3       1.0  0.26869  0.38288  0.03147  1.0000
  S   S4        1.0  0.26663  0.39572  0.00363  1.0000
  S   S5        1.0  0.27909  0.36744  0.07879  1.0000
  H   H1        1.0  0.13160  0.43620  0.13900  1.0000
  Fe  Fe4       1.0  0.11483  0.38853  0.13563  1.0000
  S   S6        1.0  0.10863  0.39970  0.16163  1.0000
  S   S7        1.0  0.14177  0.40047  0.11713  1.0000
  Fe  Fe5       1.0  0.07305  0.37070  0.14138  1.0000
  S   S8        1.0  0.06344  0.38116  0.16743  1.0000
  S   S9        1.0  0.05610  0.35003  0.12952  1.0000
  Fe  Fe6       1.0  0.07592  0.41037  0.15547  1.0000
  S   S10       1.0  0.05822  0.44178  0.15985  1.0000
  Fe  Fe7       1.0  0.09676  0.36956  0.17154  1.0000
  S   S11       1.0  0.10311  0.35029  0.19667  1.0000
  S   S12       1.0  0.08253  0.40123  0.12885  1.0000
  S   S13       1.0  0.10596  0.35702  0.14614  1.0000
  C   C2        1.0  0.07063  0.45403  0.17284  1.0000
  C   C3        1.0  0.08514  0.39637  0.22683  1.0000
  C   C4        1.0  0.08540  0.44251  0.18285  1.0000
  C   C5        1.0  0.30933  0.46893  0.05290  1.0000
  H   H2        1.0  0.08718  0.42583  0.18449  1.0000
  N   N1        1.0  0.99744  0.43833  0.14964  1.0000
  H   H3        1.0  0.31163  0.30176  0.06668  1.0000
  C   C6        1.0  0.01297  0.36028  0.13912  1.0000
  C   C7        1.0  0.02936  0.34761  0.13048  1.0000
  C   C8        1.0  0.02465  0.33187  0.12220  1.0000
  C   C9        1.0  0.18321  0.43212  0.14945  1.0000
  C   C10       1.0  0.20850  0.45562  0.13986  1.0000
  H   H4        1.0  0.01653  0.37224  0.14576  1.0000
  H   H5        1.0  0.03716  0.32201  0.11551  1.0000
  C   C11       1.0  0.25145  0.44714  0.01907  1.0000
  C   C12       1.0  0.08917  0.38522  0.21261  1.0000
  C   C13       1.0  0.09891  0.36464  0.21429  1.0000
  Fe  Fe8       1.0  0.29855  0.35663  0.05488  1.0000
  C   C14       1.0  0.09834  0.45261  0.19040  1.0000
  H   H6        1.0  0.08442  0.39242  0.20040  1.0000
  C   C15       1.0  0.09985  0.48213  0.13323  1.0000
  H   H7        1.0  0.25203  0.40003  0.13402  1.0000
  C   C16       1.0  0.29999  0.45073  0.05779  1.0000
  H   H8        1.0  0.30882  0.30554  0.00987  1.0000
  H   H9        1.0  0.30588  0.43704  0.05151  1.0000
  N   N2        1.0  0.11730  0.46606  0.12772  1.0000
  C   C17       1.0  0.20095  0.36257  0.09199  1.0000
  C   C18       1.0  0.19488  0.38332  0.08570  1.0000
  C   C19       1.0  0.17637  0.39449  0.09323  1.0000
  C   C20       1.0  0.16363  0.38502  0.10701  1.0000
  C   C21       1.0  0.16934  0.36410  0.11298  1.0000
  C   C22       1.0  0.18791  0.35295  0.10548  1.0000
  H   H10       1.0  0.20453  0.39081  0.07513  1.0000
  H   H11       1.0  0.17197  0.41060  0.08840  1.0000
  H   H12       1.0  0.15969  0.35660  0.12357  1.0000
  H   H13       1.0  0.19239  0.33686  0.11038  1.0000
  C   C23       1.0  0.19507  0.41749  0.13944  1.0000
  H   H14       1.0  0.06585  0.33526  0.18706  1.0000
  H   H15       1.0  0.25611  0.35360  0.00714  1.0000
  H   H16       1.0  0.23312  0.40367  0.09124  1.0000
  H   H17       1.0  0.20760  0.41683  0.09818  1.0000
  N   N3        1.0  0.22695  0.40657  0.11831  1.0000
  H   H18       1.0  0.18868  0.40329  0.13965  1.0000
  H   H19       1.0  0.25657  0.41859  0.11526  1.0000
  H   H20       1.0  0.18065  0.46241  0.15747  1.0000
  C   C24       1.0  0.24950  0.40430  0.12031  1.0000
  C   C25       1.0  0.22043  0.44115  0.12972  1.0000
  C   C26       1.0  0.01754  0.42540  0.14431  1.0000
  H   H21       1.0  0.15444  0.44506  0.11399  1.0000
  H   H22       1.0  0.11042  0.44361  0.19745  1.0000
  C   C27       1.0  0.22431  0.41454  0.10020  1.0000
  C   C28       1.0  0.21434  0.42142  0.12949  1.0000
  C   C29       1.0  0.09625  0.47426  0.18809  1.0000
  H   H23       1.0  0.20466  0.38535  0.11917  1.0000
  C   C30       1.0  0.99966  0.37204  0.23468  1.0000
  C   C31       1.0  0.17432  0.46843  0.10969  1.0000
  C   C32       1.0  0.22078  0.38543  0.12199  1.0000
  H   H24       1.0  0.25896  0.39214  0.11283  1.0000
  H   H25       1.0  0.08149  0.28813  0.18993  1.0000
  C   C33       1.0  0.29774  0.44049  0.99386  1.0000
  N   N4        1.0  0.05786  0.30890  0.17714  1.0000
  C   C34       1.0  0.06899  0.32715  0.17539  1.0000
  C   C35       1.0  0.00231  0.45865  0.15282  1.0000
  C   C36       1.0  0.02117  0.31251  0.16863  1.0000
  H   H26       1.0  0.06431  0.33853  0.16436  1.0000
  H   H27       1.0  0.01066  0.38001  0.20794  1.0000
  H   H28       1.0  0.10208  0.43719  0.23718  1.0000
  C   C37       1.0  0.28344  0.45018  0.07115  1.0000
  H   H29       1.0  0.09539  0.45160  0.11719  1.0000
  C   C38       1.0  0.10477  0.35532  0.23028  1.0000
  H   H30       1.0  0.23434  0.44570  0.12188  1.0000
  C   C39       1.0  0.30375  0.45556  0.00200  1.0000
  H   H31       1.0  0.30866  0.32268  0.02545  1.0000
  H   H32       1.0  0.99317  0.44993  0.12331  1.0000
  S   S14       1.0  0.27148  0.42769  0.07824  1.0000
  H   H33       1.0  0.30261  0.36308  0.99992  1.0000
  C   C40       1.0  0.25364  0.46409  0.02708  1.0000
  C   C41       1.0  0.25739  0.35988  0.99371  1.0000
  C   C42       1.0  0.03499  0.31565  0.17999  1.0000
  H   H34       1.0  0.08212  0.29388  0.15952  1.0000
  H   H35       1.0  0.02655  0.30549  0.15697  1.0000
  H   H36       1.0  0.03538  0.32869  0.20375  1.0000
  H   H37       1.0  0.08628  0.32281  0.17308  1.0000
  H   H38       1.0  0.23011  0.42972  0.09620  1.0000
  C   C43       1.0  0.11981  0.44963  0.14245  1.0000
  H   H39       1.0  0.06201  0.30151  0.20405  1.0000
  H   H40       1.0  0.23087  0.37438  0.11375  1.0000
  C   C44       1.0  0.06485  0.29853  0.16139  1.0000
  H   H41       1.0  0.22181  0.37883  0.13562  1.0000
  H   H42       1.0  0.25767  0.43154  0.02421  1.0000
  H   H43       1.0  0.06109  0.30915  0.14960  1.0000
  H   H44       1.0  0.02800  0.43425  0.13460  1.0000
  N   N5        1.0  0.32213  0.33349  0.99976  1.0000
  H   H45       1.0  0.10489  0.44335  0.14714  1.0000
  C   C45       1.0  0.27611  0.46797  0.07935  1.0000
  H   H46       1.0  0.30748  0.45186  0.01508  1.0000
  C   C46       1.0  0.99122  0.32860  0.18627  1.0000
  H   H47       1.0  0.07731  0.41221  0.22543  1.0000
  H   H48       1.0  0.12185  0.44308  0.10992  1.0000
  H   H49       1.0  0.26342  0.46762  0.08977  1.0000
  C   C47       1.0  0.06448  0.29415  0.19200  1.0000
  H   H50       1.0  0.01135  0.46645  0.14138  1.0000
  S   S15       1.0  0.29716  0.38939  0.04127  1.0000
  H   H51       1.0  0.08481  0.47568  0.13678  1.0000
  C   C48       1.0  0.30472  0.47544  0.99335  1.0000
  H   H52       1.0  0.01195  0.45679  0.16356  1.0000
  C   C49       1.0  0.00429  0.33197  0.19766  1.0000
  H   H53       1.0  0.16863  0.42872  0.15700  1.0000
  H   H54       1.0  0.23983  0.43683  0.99829  1.0000
  H   H55       1.0  0.13991  0.44187  0.23460  1.0000
  H   H56       1.0  0.09633  0.46365  0.22855  1.0000
  H   H57       1.0  0.26183  0.46089  0.03828  1.0000
  H   H58       1.0  0.11239  0.33941  0.23163  1.0000
  H   H59       1.0  0.11005  0.46853  0.10181  1.0000
  H   H60       1.0  0.01537  0.41173  0.13838  1.0000
  C   C50       1.0  0.00396  0.32866  0.12246  1.0000
  H   H61       1.0  0.05761  0.28423  0.16195  1.0000
  H   H62       1.0  0.05570  0.28064  0.19431  1.0000
  C   C51       1.0  0.30681  0.32221  0.01174  1.0000
  C   C52       1.0  0.06735  0.47566  0.17178  1.0000
  H   H63       1.0  0.21355  0.47053  0.13992  1.0000
  C   C53       1.0  0.18995  0.45109  0.14974  1.0000
  H   H64       1.0  0.29664  0.42511  0.00074  1.0000
  C   C54       1.0  0.13445  0.45770  0.23836  1.0000
  H   H65       1.0  0.02623  0.41958  0.15551  1.0000
  H   H66       1.0  0.99763  0.33946  0.20895  1.0000
  C   C55       1.0  0.11094  0.45700  0.11352  1.0000
  C   C56       1.0  0.01502  0.37479  0.22070  1.0000
  H   H67       1.0  0.00072  0.31629  0.11607  1.0000
  H   H68       1.0  0.29043  0.32930  0.01020  1.0000
  H   H69       1.0  0.12464  0.45570  0.15344  1.0000
  C   C57       1.0  0.24145  0.45012  0.00440  1.0000
  H   H70       1.0  0.04801  0.37325  0.21233  1.0000
  H   H71       1.0  0.13309  0.46833  0.22619  1.0000
  C   C58       1.0  0.15518  0.46111  0.11514  1.0000
  H   H72       1.0  0.32234  0.46922  0.04275  1.0000
  C   C59       1.0  0.13741  0.47417  0.12209  1.0000
  C   C60       1.0  0.31823  0.35542  0.00324  1.0000
  H   H73       1.0  0.31861  0.35667  0.01705  1.0000
  C   C61       1.0  0.03602  0.37096  0.22319  1.0000
  C   C62       1.0  0.99197  0.35725  0.13913  1.0000
  C   C63       1.0  0.23365  0.47012  0.99761  1.0000
  H   H74       1.0  0.18761  0.45818  0.10437  1.0000
  C   C64       1.0  0.99963  0.31880  0.17187  1.0000
  C   C65       1.0  0.04176  0.36445  0.23965  1.0000
  Fe  Fe9       1.0  0.27159  0.04685  0.43710  1.0000
  S   S16       1.0  0.23854  0.04398  0.43444  1.0000
  S   S17       1.0  0.28685  0.03151  0.46041  1.0000
  Fe  Fe10      1.0  0.27986  0.06917  0.40100  1.0000
  S   S18       1.0  0.24708  0.06857  0.39534  1.0000
  H   H75       1.0  0.22216  0.03712  0.48971  1.0000
  Fe  Fe11      1.0  0.23625  0.07730  0.42203  1.0000
  S   S19       1.0  0.20830  0.09952  0.43291  1.0000
  Fe  Fe12      1.0  0.25167  0.03546  0.40821  1.0000
  H   H76       1.0  0.23211  0.01381  0.46828  1.0000
  S   S20       1.0  0.26870  0.08057  0.42672  1.0000
  S   S21       1.0  0.28501  0.03561  0.41181  1.0000
  Fe  Fe13      1.0  0.11250  0.40922  0.31285  1.0000
  S   S22       1.0  0.08209  0.41612  0.30241  1.0000
  S   S23       1.0  0.12813  0.43791  0.31104  1.0000
  Fe  Fe14      1.0  0.10971  0.36269  0.31828  1.0000
  S   S24       1.0  0.07908  0.36682  0.30752  1.0000
  S   S25       1.0  0.12613  0.33123  0.32875  1.0000
  Fe  Fe15      1.0  0.09318  0.38972  0.28705  1.0000
  S   S26       1.0  0.08436  0.40146  0.26043  1.0000
  Fe  Fe16      1.0  0.07093  0.39303  0.32363  1.0000
  S   S27       1.0  0.03903  0.40182  0.33748  1.0000
  S   S28       1.0  0.12472  0.38378  0.29628  1.0000
  S   S29       1.0  0.10049  0.38784  0.33565  1.0000
  Fe  Fe17      1.0  0.12157  0.19400  0.40231  1.0000
  S   S30       1.0  0.12174  0.22843  0.40226  1.0000
  S   S31       1.0  0.14946  0.17142  0.39214  1.0000
  Fe  Fe18      1.0  0.07490  0.19690  0.41470  1.0000
  S   S32       1.0  0.07155  0.23096  0.41593  1.0000
  S   S33       1.0  0.04794  0.17932  0.42565  1.0000
  Fe  Fe19      1.0  0.09182  0.23290  0.39042  1.0000
  S   S34       1.0  0.07825  0.25900  0.37123  1.0000
  Fe  Fe20      1.0  0.10138  0.22402  0.42767  1.0000
  S   S35       1.0  0.10120  0.24138  0.45030  1.0000
  S   S36       1.0  0.09299  0.19889  0.38838  1.0000
  S   S37       1.0  0.10331  0.18954  0.42858  1.0000
  C   C66       1.0  0.10384  0.23498  0.48503  1.0000
  H   H77       1.0  0.17910  0.13940  0.48760  1.0000
  N   N6        1.0  0.04863  0.19482  0.47914  1.0000
  H   H78       1.0  0.04473  0.18450  0.38883  1.0000
  C   C67       1.0  0.02991  0.18116  0.39585  1.0000
  C   C68       1.0  0.09096  0.38710  0.24282  1.0000
  C   C69       1.0  0.10781  0.22624  0.46952  1.0000
  C   C70       1.0  0.11667  0.20544  0.46957  1.0000
  C   C71       1.0  0.11965  0.47866  0.31703  1.0000
  H   H79       1.0  0.12017  0.19865  0.45769  1.0000
  C   C72       1.0  0.11258  0.31112  0.34020  1.0000
  C   C73       1.0  0.09076  0.31300  0.34225  1.0000
  C   C74       1.0  0.08055  0.29672  0.35147  1.0000
  C   C75       1.0  0.09195  0.27867  0.35917  1.0000
  C   C76       1.0  0.11377  0.27677  0.35713  1.0000
  C   C77       1.0  0.12402  0.29284  0.34751  1.0000
  H   H80       1.0  0.08175  0.32691  0.33663  1.0000
  H   H81       1.0  0.06370  0.29824  0.35275  1.0000
  H   H82       1.0  0.12278  0.26286  0.36279  1.0000
  H   H83       1.0  0.14092  0.29118  0.34587  1.0000
  N   N7        1.0  0.03426  0.46284  0.31371  1.0000
  C   C78       1.0  0.01451  0.19152  0.46931  1.0000
  C   C79       1.0  0.08789  0.47198  0.34398  1.0000
  H   H84       1.0  0.10554  0.35932  0.25680  1.0000
  C   C80       1.0  0.23002  0.99889  0.47550  1.0000
  H   H85       1.0  0.03543  0.27225  0.36063  1.0000
  C   C81       1.0  0.02454  0.38271  0.33498  1.0000
  C   C82       1.0  0.03437  0.36224  0.33489  1.0000
  H   H86       1.0  0.12858  0.17743  0.48483  1.0000
  H   H87       1.0  0.08275  0.45415  0.24891  1.0000
  C   C83       1.0  0.00716  0.28975  0.35236  1.0000
  H   H88       1.0  0.05024  0.35804  0.33786  1.0000
  C   C84       1.0  0.12158  0.19348  0.48496  1.0000
  C   C85       1.0  0.01849  0.27357  0.36198  1.0000
  C   C86       1.0  0.11472  0.45850  0.32216  1.0000
  C   C87       1.0  0.09896  0.45517  0.33580  1.0000
  H   H89       1.0  0.01462  0.47031  0.33680  1.0000
  H   H90       1.0  0.05318  0.43943  0.32908  1.0000
  H   H91       1.0  0.09535  0.43962  0.34008  1.0000
  C   C88       1.0  0.00799  0.17399  0.42275  1.0000
  C   C89       1.0  0.19212  0.11942  0.42130  1.0000
  C   C90       1.0  0.19515  0.12334  0.40336  1.0000
  C   C91       1.0  0.18201  0.13937  0.39470  1.0000
  C   C92       1.0  0.16573  0.15170  0.40383  1.0000
  C   C93       1.0  0.16255  0.14768  0.42178  1.0000
  C   C94       1.0  0.17568  0.13163  0.43044  1.0000
  H   H92       1.0  0.20770  0.11411  0.39614  1.0000
  H   H93       1.0  0.18462  0.14232  0.38083  1.0000
  H   H94       1.0  0.15014  0.15703  0.42900  1.0000
  H   H95       1.0  0.17320  0.12874  0.44431  1.0000
  H   H96       1.0  0.02222  0.19029  0.45640  1.0000
  H   H97       1.0  0.03485  0.09424  0.40508  1.0000
  C   C95       1.0  0.02244  0.33625  0.27968  1.0000
  C   C96       1.0  0.99306  0.19045  0.47231  1.0000
  C   C97       1.0  0.28207  0.06804  0.47487  1.0000
  C   C98       1.0  0.28802  0.04652  0.47681  1.0000
  H   H98       1.0  0.24958  0.03071  0.48241  1.0000
  H   H99       1.0  0.10956  0.47171  0.28296  1.0000
  H   H100      1.0  0.03608  0.43235  0.30612  1.0000
  H   H101      1.0  0.27687  0.07593  0.46300  1.0000
  C   C99       1.0  0.11740  0.44200  0.26474  1.0000
  H   H102      1.0  0.05834  0.34439  0.28604  1.0000
  S   S38       1.0  0.30449  0.08536  0.38296  1.0000
  C   C100      1.0  0.00384  0.38806  0.33153  1.0000
  C   C101      1.0  0.05280  0.45572  0.32289  1.0000
  N   N8        1.0  0.10541  0.12932  0.39820  1.0000
  C   C102      1.0  0.12512  0.11449  0.39849  1.0000
  C   C103      1.0  0.10704  0.14300  0.38159  1.0000
  C   C104      1.0  0.10407  0.14203  0.41243  1.0000
  C   C105      1.0  0.08635  0.11927  0.40010  1.0000
  C   C106      1.0  0.06635  0.13155  0.40054  1.0000
  C   C107      1.0  0.08689  0.09740  0.40150  1.0000
  C   C108      1.0  0.04805  0.12258  0.40233  1.0000
  C   C109      1.0  0.06846  0.08856  0.40327  1.0000
  C   C110      1.0  0.04910  0.10112  0.40369  1.0000
  H   H103      1.0  0.12531  0.10407  0.41087  1.0000
  H   H104      1.0  0.12774  0.10496  0.38766  1.0000
  H   H105      1.0  0.13905  0.12273  0.39711  1.0000
  H   H106      1.0  0.10759  0.13407  0.37059  1.0000
  H   H107      1.0  0.12140  0.15062  0.37949  1.0000
  H   H108      1.0  0.09367  0.15571  0.38082  1.0000
  H   H109      1.0  0.10169  0.13249  0.42516  1.0000
  H   H110      1.0  0.11857  0.14906  0.41193  1.0000
  H   H111      1.0  0.09104  0.15513  0.41205  1.0000
  H   H112      1.0  0.06469  0.14827  0.39956  1.0000
  H   H113      1.0  0.10133  0.08679  0.40128  1.0000
  H   H114      1.0  0.03297  0.13239  0.40270  1.0000
  H   H115      1.0  0.06917  0.07185  0.40433  1.0000
  H   H116      1.0  0.02717  0.32347  0.27151  1.0000
  N   N9        1.0  0.09373  0.30575  0.40303  1.0000
  C   C111      1.0  0.11349  0.31013  0.39218  1.0000
  C   C112      1.0  0.09174  0.31561  0.41895  1.0000
  C   C113      1.0  0.09561  0.28290  0.40799  1.0000
  C   C114      1.0  0.07550  0.31437  0.39377  1.0000
  C   C115      1.0  0.05898  0.30290  0.39319  1.0000
  C   C116      1.0  0.07337  0.33519  0.38562  1.0000
  C   C117      1.0  0.04178  0.31165  0.38464  1.0000
  C   C118      1.0  0.05620  0.34371  0.37697  1.0000
  C   C119      1.0  0.04045  0.33195  0.37647  1.0000
  H   H117      1.0  0.11541  0.32679  0.39041  1.0000
  H   H118      1.0  0.12758  0.30163  0.39778  1.0000
  H   H119      1.0  0.11416  0.30545  0.37919  1.0000
  H   H120      1.0  0.09132  0.33273  0.41614  1.0000
  H   H121      1.0  0.10506  0.30947  0.42642  1.0000
  H   H122      1.0  0.07709  0.31264  0.42744  1.0000
  H   H123      1.0  0.08236  0.27834  0.41754  1.0000
  H   H124      1.0  0.09655  0.27466  0.39653  1.0000
  H   H125      1.0  0.10991  0.27662  0.41424  1.0000
  H   H126      1.0  0.05921  0.28693  0.39883  1.0000
  H   H127      1.0  0.08501  0.34508  0.38576  1.0000
  H   H128      1.0  0.02962  0.30246  0.38404  1.0000
  H   H129      1.0  0.05514  0.35951  0.37051  1.0000
  H   H130      1.0  0.02724  0.33856  0.36963  1.0000
  N   N10       1.0  0.11445  0.45849  0.25000  1.0000
  C   C120      1.0  0.32292  0.09360  0.42733  1.0000
  H   H131      1.0  0.04834  0.45065  0.29029  1.0000
  H   H132      1.0  0.30922  0.05793  0.43569  1.0000
  H   H133      1.0  0.00507  0.33924  0.28171  1.0000
  C   C121      1.0  0.02377  0.37202  0.28256  1.0000
  C   C122      1.0  0.99129  0.17269  0.41381  1.0000
  H   H134      1.0  0.02845  0.36819  0.29574  1.0000
  H   H135      1.0  0.07577  0.46928  0.35459  1.0000
  C   C123      1.0  0.00337  0.35261  0.32675  1.0000
  H   H136      1.0  0.99667  0.23549  0.40494  1.0000
  C   C124      1.0  0.01556  0.46034  0.32649  1.0000
  C   C125      1.0  0.02648  0.36151  0.25422  1.0000
  H   H137      1.0  0.01518  0.30099  0.34358  1.0000
  C   C126      1.0  0.20690  0.11844  0.48215  1.0000
  H   H138      1.0  0.05272  0.46519  0.33342  1.0000
  H   H139      1.0  0.06764  0.45630  0.31405  1.0000
  H   H140      1.0  0.06983  0.21330  0.46253  1.0000
  C   C127      1.0  0.10094  0.36657  0.24452  1.0000
  H   H141      1.0  0.00078  0.46413  0.32066  1.0000
  H   H142      1.0  0.04415  0.22686  0.46810  1.0000
  C   C128      1.0  0.22466  0.10675  0.48822  1.0000
  C   C129      1.0  0.32405  0.05721  0.42679  1.0000
  C   C130      1.0  0.03479  0.44897  0.30044  1.0000
  H   H143      1.0  0.06214  0.33757  0.26469  1.0000
  H   H144      1.0  0.02034  0.45216  0.29409  1.0000
  H   H145      1.0  0.25837  0.99127  0.42882  1.0000
  H   H146      1.0  0.00594  0.17145  0.43663  1.0000
  H   H147      1.0  0.03169  0.33146  0.33030  1.0000
  C   C131      1.0  0.02379  0.34717  0.33079  1.0000
  H   H148      1.0  0.02987  0.38667  0.27674  1.0000
  H   H149      1.0  0.05472  0.17143  0.46178  1.0000
  H   H150      1.0  0.12146  0.42623  0.26053  1.0000
  H   H151      1.0  0.13206  0.48130  0.30666  1.0000
  C   C132      1.0  0.02727  0.17846  0.41383  1.0000
  H   H152      1.0  0.99969  0.21952  0.38776  1.0000
  S   S39       1.0  0.24257  0.00912  0.39669  1.0000
  H   H153      1.0  0.10288  0.44159  0.27394  1.0000
  H   H154      1.0  0.13030  0.44410  0.27180  1.0000
  H   H155      1.0  0.30860  0.09390  0.43690  1.0000
  H   H156      1.0  0.01802  0.24682  0.38020  1.0000
  H   H157      1.0  0.02713  0.33039  0.29267  1.0000
  H   H158      1.0  0.14695  0.46219  0.24463  1.0000
  H   H159      1.0  0.04878  0.20871  0.45256  1.0000
  C   C133      1.0  0.05480  0.35002  0.27269  1.0000
  H   H160      1.0  0.01592  0.44401  0.33282  1.0000
  H   H161      1.0  0.22356  0.98799  0.45271  1.0000
  N   N11       1.0  0.03194  0.35503  0.27190  1.0000
  H   H162      1.0  0.31998  0.05940  0.41345  1.0000
  C   C134      1.0  0.01348  0.17893  0.38691  1.0000
  H   H163      1.0  0.01569  0.18070  0.37300  1.0000
  C   C135      1.0  0.99401  0.17504  0.39585  1.0000
  H   H164      1.0  0.06279  0.36396  0.26848  1.0000
  C   C136      1.0  0.00818  0.25895  0.37323  1.0000
  C   C137      1.0  0.02586  0.19389  0.48270  1.0000
  S   S40       1.0  0.99137  0.33412  0.31986  1.0000
  C   C138      1.0  0.10833  0.47964  0.25515  1.0000
  C   C139      1.0  0.05292  0.21163  0.46501  1.0000
  C   C140      1.0  0.00524  0.36556  0.25120  1.0000
  H   H165      1.0  0.20436  0.11828  0.46891  1.0000
  C   C141      1.0  0.05966  0.17481  0.47380  1.0000
  C   C142      1.0  0.28293  0.07944  0.48839  1.0000
  H   H166      1.0  0.27853  0.09611  0.48684  1.0000
  H   H167      1.0  0.99624  0.40393  0.33158  1.0000
  H   H168      1.0  0.07690  0.17479  0.47125  1.0000
  H   H169      1.0  0.23584  0.09764  0.47973  1.0000
  H   H170      1.0  0.31737  0.09708  0.41442  1.0000
  H   H171      1.0  0.29347  0.99376  0.39633  1.0000
  H   H172      1.0  0.00640  0.37521  0.28423  1.0000
  H   H173      1.0  0.09701  0.25108  0.48508  1.0000
  H   H174      1.0  0.05828  0.36202  0.24063  1.0000
  H   H175      1.0  0.99270  0.36384  0.26162  1.0000
  C   C143      1.0  0.99325  0.37296  0.32731  1.0000
  H   H176      1.0  0.05652  0.16167  0.48391  1.0000
  C   C144      1.0  0.22518  0.98407  0.46629  1.0000
  C   C145      1.0  0.09818  0.45327  0.24077  1.0000
  Fe  Fe21      1.0  0.29022  0.05048  0.58433  1.0000
  S   S41       1.0  0.26353  0.03168  0.58821  1.0000
  S   S42       1.0  0.30472  0.04738  0.60937  1.0000
  Fe  Fe22      1.0  0.28311  0.06423  0.54672  1.0000
  S   S43       1.0  0.25658  0.04609  0.54819  1.0000
  S   S44       1.0  0.28942  0.08343  0.52114  1.0000
  Fe  Fe23      1.0  0.24598  0.05915  0.57327  1.0000
  S   S45       1.0  0.21161  0.07136  0.58065  1.0000
  Fe  Fe24      1.0  0.27668  0.02076  0.56282  1.0000
  S   S46       1.0  0.27157  0.07868  0.57109  1.0000
  S   S47       1.0  0.30430  0.03807  0.55958  1.0000
  H   H177      1.0  0.06452  0.29209  0.64061  1.0000
  Fe  Fe25      1.0  0.07770  0.36533  0.67323  1.0000
  S   S48       1.0  0.09984  0.33686  0.68043  1.0000
  S   S49       1.0  0.04560  0.37384  0.68667  1.0000
  Fe  Fe26      1.0  0.10734  0.38128  0.64343  1.0000
  S   S50       1.0  0.13251  0.35399  0.64770  1.0000
  S   S51       1.0  0.10901  0.40842  0.62264  1.0000
  Fe  Fe27      1.0  0.10634  0.33440  0.65188  1.0000
  S   S52       1.0  0.10593  0.30173  0.64514  1.0000
  Fe  Fe28      1.0  0.12388  0.35851  0.67566  1.0000
  S   S53       1.0  0.14704  0.36197  0.69315  1.0000
  S   S54       1.0  0.08189  0.36147  0.64528  1.0000
  S   S55       1.0  0.10094  0.38722  0.67078  1.0000
  C   C146      1.0  0.00787  0.33181  0.66745  1.0000
  Fe  Fe29      1.0  0.11946  0.19691  0.54571  1.0000
  S   S56       1.0  0.11765  0.16961  0.56627  1.0000
  S   S57       1.0  0.12423  0.18630  0.51931  1.0000
  Fe  Fe30      1.0  0.11893  0.22721  0.57219  1.0000
  S   S58       1.0  0.11727  0.20180  0.59430  1.0000
  S   S59       1.0  0.12115  0.26089  0.57506  1.0000
  Fe  Fe31      1.0  0.14156  0.18237  0.57767  1.0000
  S   S60       1.0  0.17314  0.16625  0.58527  1.0000
  Fe  Fe32      1.0  0.09355  0.19154  0.58054  1.0000
  S   S61       1.0  0.06277  0.18332  0.59499  1.0000
  S   S62       1.0  0.14473  0.20855  0.55631  1.0000
  S   S63       1.0  0.09376  0.21810  0.55929  1.0000
  C   C147      1.0  0.11769  0.20218  0.50046  1.0000
  C   C148      1.0  0.99291  0.19364  0.50221  1.0000
  H   H178      1.0  0.17336  0.15252  0.54717  1.0000
  H   H179      1.0  0.10571  0.22980  0.51240  1.0000
  C   C149      1.0  0.03025  0.45358  0.65319  1.0000
  C   C150      1.0  0.04235  0.18335  0.58265  1.0000
  C   C151      1.0  0.04500  0.18910  0.56488  1.0000
  H   H180      1.0  0.01032  0.38300  0.66782  1.0000
  C   C152      1.0  0.02288  0.17833  0.59081  1.0000
  H   H181      1.0  0.05995  0.19275  0.55842  1.0000
  H   H182      1.0  0.17235  0.16902  0.50132  1.0000
  H   H183      1.0  0.02080  0.17363  0.60454  1.0000
  C   C153      1.0  0.11036  0.29090  0.62541  1.0000
  C   C154      1.0  0.10742  0.27013  0.62566  1.0000
  C   C155      1.0  0.11085  0.26068  0.61044  1.0000
  C   C156      1.0  0.11711  0.27197  0.59469  1.0000
  C   C157      1.0  0.11998  0.29277  0.59440  1.0000
  C   C158      1.0  0.11669  0.30220  0.60967  1.0000
  H   H184      1.0  0.10250  0.26125  0.63775  1.0000
  H   H185      1.0  0.10835  0.24475  0.61090  1.0000
  H   H186      1.0  0.12483  0.30165  0.58229  1.0000
  H   H187      1.0  0.11909  0.31816  0.60926  1.0000
  C   C159      1.0  0.13986  0.35515  0.71532  1.0000
  H   H188      1.0  0.12004  0.33311  0.71234  1.0000
  C   C160      1.0  0.12073  0.42972  0.62581  1.0000
  C   C161      1.0  0.11363  0.44106  0.63977  1.0000
  C   C162      1.0  0.12205  0.45921  0.64092  1.0000
  C   C163      1.0  0.13800  0.46566  0.62837  1.0000
  C   C164      1.0  0.14519  0.45409  0.61466  1.0000
  C   C165      1.0  0.13635  0.43648  0.61323  1.0000
  H   H189      1.0  0.10143  0.43607  0.64946  1.0000
  H   H190      1.0  0.12906  0.43535  0.67598  1.0000
  C   C166      1.0  0.00867  0.18558  0.56354  1.0000
  H   H191      1.0  0.14170  0.42803  0.60228  1.0000
  H   H192      1.0  0.02153  0.19616  0.51050  1.0000
  H   H193      1.0  0.07846  0.35123  0.73526  1.0000
  C   C167      1.0  0.01420  0.36633  0.67042  1.0000
  C   C168      1.0  0.03083  0.35771  0.67962  1.0000
  C   C169      1.0  0.03627  0.33618  0.68248  1.0000
  C   C170      1.0  0.02457  0.32320  0.67661  1.0000
  C   C171      1.0  0.05751  0.44848  0.62942  1.0000
  H   H194      1.0  0.02789  0.26702  0.63559  1.0000
  H   H195      1.0  0.04941  0.32952  0.68933  1.0000
  H   H196      1.0  0.02852  0.30652  0.67911  1.0000
  C   C172      1.0  0.20125  0.09809  0.58046  1.0000
  C   C173      1.0  0.21415  0.11353  0.57862  1.0000
  C   C174      1.0  0.20531  0.13440  0.57964  1.0000
  C   C175      1.0  0.18350  0.14016  0.58224  1.0000
  C   C176      1.0  0.17060  0.12485  0.58348  1.0000
  C   C177      1.0  0.17945  0.10392  0.58275  1.0000
  H   H197      1.0  0.23093  0.10935  0.57681  1.0000
  H   H198      1.0  0.21545  0.14610  0.57868  1.0000
  H   H199      1.0  0.15380  0.12900  0.58558  1.0000
  H   H200      1.0  0.16932  0.09213  0.58419  1.0000
  C   C178      1.0  0.28904  0.06925  0.50405  1.0000
  H   H201      1.0  0.04633  0.41461  0.66485  1.0000
  H   H202      1.0  0.21741  0.11806  0.52903  1.0000
  H   H203      1.0  0.01827  0.44647  0.66268  1.0000
  H   H204      1.0  0.03567  0.23248  0.62616  1.0000
  H   H205      1.0  0.07394  0.31227  0.61109  1.0000
  S   S64       1.0  0.28712  0.98715  0.55840  1.0000
  H   H206      1.0  0.18419  0.44348  0.65848  1.0000
  N   N12       1.0  0.24441  0.08735  0.62563  1.0000
  C   C179      1.0  0.24646  0.07766  0.64349  1.0000
  C   C180      1.0  0.24430  0.07077  0.61484  1.0000
  C   C181      1.0  0.22463  0.10194  0.62535  1.0000
  C   C182      1.0  0.22404  0.12375  0.62084  1.0000
  C   C183      1.0  0.20509  0.09443  0.62972  1.0000
  C   C184      1.0  0.20502  0.13697  0.62042  1.0000
  C   C185      1.0  0.18621  0.10777  0.62907  1.0000
  C   C186      1.0  0.18618  0.12899  0.62438  1.0000
  H   H207      1.0  0.23356  0.06853  0.64888  1.0000
  H   H208      1.0  0.24629  0.08964  0.65211  1.0000
  H   H209      1.0  0.26137  0.06677  0.64419  1.0000
  C   C187      1.0  0.15849  0.43036  0.72306  1.0000
  H   H210      1.0  0.23223  0.06058  0.61991  1.0000
  H   H211      1.0  0.23801  0.13095  0.61720  1.0000
  H   H212      1.0  0.20423  0.07809  0.63334  1.0000
  H   H213      1.0  0.20484  0.15343  0.61628  1.0000
  H   H214      1.0  0.17150  0.10157  0.63183  1.0000
  H   H215      1.0  0.17152  0.13921  0.62332  1.0000
  H   H216      1.0  0.17363  0.29676  0.60473  1.0000
  C   C188      1.0  0.17713  0.40651  0.67460  1.0000
  C   C189      1.0  0.14829  0.36426  0.72716  1.0000
  N   N13       1.0  0.04315  0.43789  0.64285  1.0000
  H   H217      1.0  0.16651  0.45477  0.73504  1.0000
  H   H218      1.0  0.29969  0.03980  0.51799  1.0000
  C   C190      1.0  0.05616  0.42338  0.65454  1.0000
  H   H219      1.0  0.24205  0.09790  0.50978  1.0000
  H   H220      1.0  0.17713  0.39961  0.66257  1.0000
  H   H221      1.0  0.06222  0.37560  0.72980  1.0000
  H   H222      1.0  0.01124  0.30072  0.62819  1.0000
  H   H223      1.0  0.01802  0.31287  0.60683  1.0000
  H   H224      1.0  0.13632  0.40884  0.68494  1.0000
  H   H225      1.0  0.06827  0.45631  0.63510  1.0000
  H   H226      1.0  0.22538  0.02345  0.52663  1.0000
  H   H227      1.0  0.31883  0.00163  0.59456  1.0000
  H   H228      1.0  0.17316  0.39437  0.68537  1.0000
  H   H229      1.0  0.01394  0.21981  0.59947  1.0000
  C   C191      1.0  0.15721  0.42309  0.70759  1.0000
  H   H230      1.0  0.99287  0.22447  0.62514  1.0000
  C   C192      1.0  0.00606  0.17945  0.58128  1.0000
  H   H231      1.0  0.16641  0.43382  0.64764  1.0000
  C   C193      1.0  0.12147  0.33482  0.73913  1.0000
  H   H232      1.0  0.15750  0.45894  0.60494  1.0000
  C   C194      1.0  0.22224  0.01139  0.51919  1.0000
  N   N14       1.0  0.04419  0.30240  0.62105  1.0000
  H   H233      1.0  0.26287  0.10472  0.60549  1.0000
  C   C195      1.0  0.17009  0.28250  0.61254  1.0000
  H   H234      1.0  0.01784  0.32630  0.62515  1.0000
  H   H235      1.0  0.15678  0.29781  0.63469  1.0000
  C   C196      1.0  0.21373  0.11873  0.51610  1.0000
  N   N15       1.0  0.17371  0.22531  0.60743  1.0000
  C   C197      1.0  0.19649  0.22050  0.60202  1.0000
  C   C198      1.0  0.16704  0.20715  0.61918  1.0000
  C   C199      1.0  0.16269  0.22747  0.59210  1.0000
  C   C200      1.0  0.16916  0.24495  0.61525  1.0000
  C   C201      1.0  0.15954  0.24615  0.63247  1.0000
  C   C202      1.0  0.17432  0.26374  0.60552  1.0000
  C   C203      1.0  0.15543  0.26502  0.63935  1.0000
  H   H236      1.0  0.20545  0.21953  0.61308  1.0000
  H   H237      1.0  0.20046  0.20546  0.59654  1.0000
  H   H238      1.0  0.20233  0.23246  0.59187  1.0000
  H   H239      1.0  0.17525  0.20402  0.63081  1.0000
  H   H240      1.0  0.17049  0.19271  0.61281  1.0000
  H   H241      1.0  0.14983  0.20946  0.62318  1.0000
  H   H242      1.0  0.16756  0.23986  0.58191  1.0000
  H   H243      1.0  0.16546  0.21286  0.58604  1.0000
  H   H244      1.0  0.14559  0.23143  0.59565  1.0000
  H   H245      1.0  0.15461  0.23289  0.64081  1.0000
  H   H246      1.0  0.18132  0.26416  0.59227  1.0000
  H   H247      1.0  0.14741  0.26586  0.65229  1.0000
  C   C204      1.0  0.01499  0.43938  0.62402  1.0000
  H   H248      1.0  0.27047  0.00040  0.49705  1.0000
  H   H249      1.0  0.15417  0.42120  0.73523  1.0000
  C   C205      1.0  0.16291  0.43459  0.69147  1.0000
  H   H250      1.0  0.02246  0.32639  0.72078  1.0000
  C   C206      1.0  0.14091  0.42130  0.67469  1.0000
  N   N16       1.0  0.16223  0.42601  0.67531  1.0000
  C   C207      1.0  0.05785  0.19881  0.49420  1.0000
  C   C208      1.0  0.06219  0.27767  0.59964  1.0000
  H   H251      1.0  0.09666  0.47765  0.71596  1.0000
  C   C209      1.0  0.04853  0.28176  0.61485  1.0000
  H   H252      1.0  0.20049  0.14817  0.53933  1.0000
  H   H253      1.0  0.04750  0.31581  0.64371  1.0000
  C   C210      1.0  0.29475  0.04772  0.50601  1.0000
  H   H254      1.0  0.06562  0.43169  0.66109  1.0000
  C   C211      1.0  0.02223  0.33159  0.73319  1.0000
  H   H255      1.0  0.04111  0.39511  0.64388  1.0000
  C   C212      1.0  0.02824  0.19019  0.55538  1.0000
  H   H256      1.0  0.01218  0.22357  0.57702  1.0000
  C   C213      1.0  0.17078  0.46124  0.70739  1.0000
  C   C214      1.0  0.26337  0.09732  0.61902  1.0000
  H   H257      1.0  0.11641  0.46808  0.65157  1.0000
  H   H258      1.0  0.19334  0.40923  0.67527  1.0000
  H   H259      1.0  0.00156  0.37884  0.72154  1.0000
  H   H260      1.0  0.06754  0.41214  0.64738  1.0000
  C   C215      1.0  0.02190  0.31094  0.62022  1.0000
  H   H261      1.0  0.03719  0.29202  0.64827  1.0000
  H   H262      1.0  0.17407  0.46410  0.68027  1.0000
  C   C216      1.0  0.03043  0.40552  0.63631  1.0000
  C   C217      1.0  0.03767  0.34292  0.73578  1.0000
  C   C218      1.0  0.00187  0.42996  0.61611  1.0000
  C   C219      1.0  0.04290  0.24521  0.61870  1.0000
  H   H263      1.0  0.15926  0.37510  0.72265  1.0000
  C   C220      1.0  0.05697  0.31777  0.61087  1.0000
  H   H264      1.0  0.05374  0.33292  0.61615  1.0000
  H   H265      1.0  0.05372  0.32107  0.59728  1.0000
  N   N17       1.0  0.23751  0.00945  0.50347  1.0000
  H   H266      1.0  0.04917  0.34616  0.72483  1.0000
  C   C221      1.0  0.04851  0.30041  0.63914  1.0000
  C   C222      1.0  0.16780  0.44030  0.65959  1.0000
  H   H267      1.0  0.99224  0.40130  0.61257  1.0000
  C   C223      1.0  0.12628  0.34053  0.72136  1.0000
  C   C224      1.0  0.03872  0.26497  0.62406  1.0000
  H   H268      1.0  0.27792  0.08581  0.61894  1.0000
  H   H269      1.0  0.26544  0.10908  0.62715  1.0000
  C   C225      1.0  0.19547  0.13096  0.51028  1.0000
  C   C226      1.0  0.16069  0.28313  0.62943  1.0000
  C   C227      1.0  0.16961  0.45407  0.69182  1.0000
  H   H270      1.0  0.04897  0.46057  0.62069  1.0000
  C   C228      1.0  0.02954  0.42748  0.63453  1.0000
  H   H271      1.0  0.07056  0.28929  0.59179  1.0000
  H   H272      1.0  0.13974  0.41555  0.66237  1.0000
  C   C229      1.0  0.15914  0.13751  0.52266  1.0000
  H   H273      1.0  0.25950  0.06033  0.61384  1.0000
  C   C230      1.0  0.10873  0.22297  0.50050  1.0000
  H   H274      1.0  0.03043  0.19480  0.54166  1.0000
  C   C231      1.0  0.16541  0.44931  0.72297  1.0000
  H   H275      1.0  0.01889  0.24396  0.58701  1.0000
  H   H276      1.0  0.24119  0.07757  0.60165  1.0000
  H   H277      1.0  0.20600  0.01570  0.51588  1.0000
  H   H278      1.0  0.01787  0.37954  0.63014  1.0000
  H   H279      1.0  0.29972  0.01991  0.49374  1.0000
  H   H280      1.0  0.14741  0.14626  0.53166  1.0000
  C   C232      1.0  0.29467  0.03648  0.49229  1.0000
  H   H281      1.0  0.99762  0.35895  0.70947  1.0000
  C   C233      1.0  0.01718  0.39627  0.62837  1.0000
  H   H282      1.0  0.01341  0.45613  0.62200  1.0000
  H   H283      1.0  0.15723  0.45537  0.65938  1.0000
  C   C234      1.0  0.05662  0.24167  0.60390  1.0000
  H   H284      1.0  0.15187  0.40825  0.70831  1.0000
  H   H285      1.0  0.05657  0.18604  0.50502  1.0000
  C   C235      1.0  0.00295  0.35336  0.66409  1.0000
  H   H286      1.0  0.24176  0.04170  0.50186  1.0000
  H   H287      1.0  0.16847  0.17653  0.52230  1.0000
  H   H288      1.0  0.06009  0.22628  0.59988  1.0000
  C   C236      1.0  0.18530  0.14266  0.53915  1.0000
  C   C237      1.0  0.01438  0.19477  0.49936  1.0000
  H   H289      1.0  0.07685  0.25506  0.58283  1.0000
  C   C238      1.0  0.00289  0.40845  0.61835  1.0000
  H   H290      1.0  0.15960  0.12069  0.52738  1.0000
  C   C239      1.0  0.99258  0.37544  0.71165  1.0000
  H   H291      1.0  0.19461  0.17119  0.51150  1.0000
  H   H292      1.0  0.06745  0.43718  0.62133  1.0000
  N   N18       1.0  0.18010  0.14399  0.52137  1.0000
  H   H293      1.0  0.99761  0.38506  0.69951  1.0000
  H   H294      1.0  0.25948  0.98686  0.51674  1.0000
  C   C240      1.0  0.17891  0.16607  0.51377  1.0000
  H   H295      1.0  0.17588  0.47617  0.70735  1.0000
  H   H296      1.0  0.18590  0.12651  0.54585  1.0000
  C   C241      1.0  0.06603  0.25790  0.59430  1.0000
  H   H297      1.0  0.15273  0.14052  0.51015  1.0000
  C   C242      1.0  0.00877  0.23154  0.58880  1.0000
  H   H298      1.0  0.03989  0.46092  0.66039  1.0000
  C   C243      1.0  0.25863  0.00214  0.50859  1.0000
  H   H299      1.0  0.02175  0.46658  0.64520  1.0000
  C   C244      1.0  0.09189  0.48043  0.72963  1.0000
  C   C245      1.0  0.23766  0.03063  0.49393  1.0000
  H   H300      1.0  0.05034  0.21375  0.49884  1.0000
  S   S65       1.0  0.99338  0.31559  0.66006  1.0000
  H   H301      1.0  0.22271  0.99684  0.52823  1.0000
  H   H302      1.0  0.26355  0.01318  0.51611  1.0000
  C   C246      1.0  0.19252  0.13043  0.49296  1.0000
  H   H303      1.0  0.24234  0.98888  0.55680  1.0000
  C   C247      1.0  0.23212  0.99428  0.49332  1.0000
  H   H304      1.0  0.09562  0.46514  0.73737  1.0000
  C   C248      1.0  0.22807  0.10690  0.50514  1.0000
  H   H305      1.0  0.07485  0.19991  0.49099  1.0000
  H   H306      1.0  0.28535  0.45664  0.92753  1.0000
  Fe  Fe33      1.0  0.12175  0.36501  0.78721  1.0000
  S   S66       1.0  0.10597  0.36439  0.81438  1.0000
  S   S67       1.0  0.12316  0.33750  0.77314  1.0000
  Fe  Fe34      1.0  0.12776  0.40966  0.78446  1.0000
  S   S68       1.0  0.11247  0.41272  0.81138  1.0000
  S   S69       1.0  0.13766  0.43802  0.76809  1.0000
  Fe  Fe35      1.0  0.13173  0.38182  0.81830  1.0000
  S   S70       1.0  0.14623  0.37523  0.84354  1.0000
  Fe  Fe36      1.0  0.08853  0.39519  0.80491  1.0000
  S   S71       1.0  0.05404  0.40773  0.80897  1.0000
  S   S72       1.0  0.14876  0.38007  0.79158  1.0000
  S   S73       1.0  0.10256  0.39445  0.77749  1.0000
  Fe  Fe37      1.0  0.26857  0.39369  0.89794  1.0000
  S   S74       1.0  0.24090  0.37630  0.90437  1.0000
  C   C249      1.0  0.17932  0.46720  0.86322  1.0000
  S   S75       1.0  0.27358  0.33363  0.89992  1.0000
  Fe  Fe38      1.0  0.25547  0.35830  0.88265  1.0000
  S   S76       1.0  0.24097  0.35253  0.85946  1.0000
  Fe  Fe39      1.0  0.26150  0.35385  0.92092  1.0000
  S   S77       1.0  0.25173  0.34065  0.94830  1.0000
  N   N19       1.0  0.31468  0.32202  0.84460  1.0000
  C   C250      1.0  0.25536  0.35603  0.96383  1.0000
  C   C251      1.0  0.25973  0.37633  0.95894  1.0000
  C   C252      1.0  0.26305  0.38828  0.97131  1.0000
  C   C253      1.0  0.25402  0.34790  0.98129  1.0000
  C   C254      1.0  0.26198  0.38010  0.98870  1.0000
  C   C255      1.0  0.27094  0.44904  0.89545  1.0000
  C   C256      1.0  0.00663  0.32679  0.74652  1.0000
  S   S78       1.0  0.25682  0.42785  0.89893  1.0000
  C   C257      1.0  0.03807  0.34947  0.75207  1.0000
  C   C258      1.0  0.29282  0.44515  0.97701  1.0000
  C   C259      1.0  0.17291  0.37063  0.84727  1.0000
  C   C260      1.0  0.18942  0.36709  0.83416  1.0000
  C   C261      1.0  0.21018  0.36204  0.83805  1.0000
  C   C262      1.0  0.21478  0.36088  0.85500  1.0000
  C   C263      1.0  0.19833  0.36503  0.86802  1.0000
  C   C264      1.0  0.17754  0.36965  0.86418  1.0000
  H   H307      1.0  0.18619  0.36782  0.82108  1.0000
  H   H308      1.0  0.22274  0.35877  0.82787  1.0000
  H   H309      1.0  0.20152  0.36386  0.88116  1.0000
  H   H310      1.0  0.16488  0.37211  0.87446  1.0000
  C   C265      1.0  0.00521  0.47978  0.84033  1.0000
  C   C266      1.0  0.02775  0.35526  0.81207  1.0000
  C   C267      1.0  0.04240  0.36890  0.81144  1.0000
  C   C268      1.0  0.03608  0.39033  0.80923  1.0000
  C   C269      1.0  0.01513  0.39804  0.80727  1.0000
  H   H311      1.0  0.16834  0.46189  0.85649  1.0000
  H   H312      1.0  0.03264  0.33868  0.81411  1.0000
  H   H313      1.0  0.05846  0.36281  0.81304  1.0000
  H   H314      1.0  0.01012  0.41461  0.80551  1.0000
  H   H315      1.0  0.99992  0.45472  0.81825  1.0000
  H   H316      1.0  0.07391  0.33274  0.76477  1.0000
  C   C270      1.0  0.04499  0.38063  0.76204  1.0000
  H   H317      1.0  0.03538  0.39049  0.75264  1.0000
  C   C271      1.0  0.14581  0.45167  0.78264  1.0000
  C   C272      1.0  0.15281  0.44079  0.79770  1.0000
  C   C273      1.0  0.15684  0.45154  0.81054  1.0000
  C   C274      1.0  0.20877  0.46165  0.87943  1.0000
  H   H318      1.0  0.29193  0.30637  0.86216  1.0000
  H   H319      1.0  0.15481  0.42403  0.79961  1.0000
  H   H320      1.0  0.16160  0.44304  0.82237  1.0000
  C   C275      1.0  0.28775  0.45227  0.94128  1.0000
  C   C276      1.0  0.14271  0.35930  0.74489  1.0000
  C   C277      1.0  0.12952  0.34435  0.75091  1.0000
  H   H321      1.0  0.28613  0.33392  0.85977  1.0000
  S   S79       1.0  0.28219  0.37690  0.87525  1.0000
  H   H322      1.0  0.02119  0.34854  0.77805  1.0000
  H   H323      1.0  0.14915  0.36659  0.75389  1.0000
  C   C278      1.0  0.32077  0.33269  0.98137  1.0000
  H   H324      1.0  0.21492  0.41870  0.89044  1.0000
  H   H325      1.0  0.22126  0.45220  0.88567  1.0000
  C   C279      1.0  0.19260  0.30827  0.83389  1.0000
  Fe  Fe40      1.0  0.29928  0.35340  0.89400  1.0000
  C   C280      1.0  0.04116  0.47690  0.82689  1.0000
  C   C281      1.0  0.00680  0.36293  0.81015  1.0000
  C   C282      1.0  0.20357  0.31217  0.86095  1.0000
  H   H326      1.0  0.08217  0.37394  0.74346  1.0000
  C   C283      1.0  0.30192  0.46558  0.88513  1.0000
  C   C284      1.0  0.26030  0.46812  0.89989  1.0000
  H   H327      1.0  0.29809  0.30587  0.83055  1.0000
  H   H328      1.0  0.12121  0.32020  0.82918  1.0000
  H   H329      1.0  0.30907  0.35546  0.84389  1.0000
  H   H330      1.0  0.21563  0.48040  0.83461  1.0000
  H   H331      1.0  0.07902  0.35580  0.77202  1.0000
  H   H332      1.0  0.26018  0.38298  0.94564  1.0000
  C   C285      1.0  0.29188  0.44770  0.88815  1.0000
  H   H333      1.0  0.02014  0.44244  0.83066  1.0000
  H   H334      1.0  0.31804  0.46457  0.87928  1.0000
  H   H335      1.0  0.13096  0.33562  0.84205  1.0000
  H   H336      1.0  0.30663  0.32154  0.87194  1.0000
  H   H337      1.0  0.14550  0.33198  0.80557  1.0000
  H   H338      1.0  0.13847  0.48189  0.76846  1.0000
  C   C286      1.0  0.30433  0.32306  0.95828  1.0000
  C   C287      1.0  0.02189  0.34432  0.76529  1.0000
  C   C288      1.0  0.29977  0.48028  0.97653  1.0000
  H   H339      1.0  0.05628  0.34458  0.78134  1.0000
  H   H340      1.0  0.12955  0.30840  0.84926  1.0000
  C   C289      1.0  0.30352  0.32122  0.82978  1.0000
  H   H341      1.0  0.28949  0.33336  0.82937  1.0000
  C   C290      1.0  0.05748  0.45979  0.82587  1.0000
  H   H342      1.0  0.11144  0.32308  0.74374  1.0000
  C   C291      1.0  0.06638  0.34791  0.76900  1.0000
  C   C292      1.0  0.29923  0.32081  0.86032  1.0000
  H   H343      1.0  0.24414  0.46925  0.90561  1.0000
  H   H344      1.0  0.21594  0.31233  0.86866  1.0000
  H   H345      1.0  0.15804  0.34566  0.81832  1.0000
  H   H346      1.0  0.25032  0.33232  0.98519  1.0000
  S   S80       1.0  0.28822  0.37227  0.91594  1.0000
  C   C293      1.0  0.15385  0.47320  0.80834  1.0000
  C   C294      1.0  0.07781  0.46150  0.82851  1.0000
  C   C295      1.0  0.18278  0.31728  0.86771  1.0000
  H   H347      1.0  0.22473  0.30425  0.83877  1.0000
  H   H348      1.0  0.15112  0.32301  0.86349  1.0000
  H   H349      1.0  0.05500  0.44485  0.82312  1.0000
  H   H350      1.0  0.05703  0.38966  0.76455  1.0000
  H   H351      1.0  0.09001  0.44828  0.82768  1.0000
  H   H352      1.0  0.08522  0.47719  0.79292  1.0000
  H   H353      1.0  0.17910  0.32138  0.88069  1.0000
  C   C296      1.0  0.01641  0.45512  0.82016  1.0000
  H   H354      1.0  0.30021  0.43303  0.88463  1.0000
  H   H355      1.0  0.12847  0.47416  0.74173  1.0000
  H   H356      1.0  0.17303  0.32654  0.80583  1.0000
  H   H357      1.0  0.31674  0.30377  0.90629  1.0000
  H   H358      1.0  0.01009  0.46872  0.85152  1.0000
  H   H359      1.0  0.14318  0.29404  0.81488  1.0000
  C   C297      1.0  0.30515  0.32343  0.97577  1.0000
  H   H360      1.0  0.03470  0.37835  0.77444  1.0000
  H   H361      1.0  0.15423  0.28147  0.83392  1.0000
  C   C298      1.0  0.00639  0.33328  0.76250  1.0000
  N   N20       1.0  0.01937  0.47568  0.82439  1.0000
  C   C299      1.0  0.00054  0.38437  0.80756  1.0000
  C   C300      1.0  0.20848  0.30770  0.84407  1.0000
  H   H362      1.0  0.09857  0.46946  0.76394  1.0000
  N   N21       1.0  0.28879  0.47069  0.94984  1.0000
  C   C301      1.0  0.29412  0.46517  0.96765  1.0000
  H   H363      1.0  0.19722  0.30499  0.82080  1.0000
  H   H364      1.0  0.32064  0.47421  0.93959  1.0000
  C   C302      1.0  0.31882  0.33190  0.94588  1.0000
  H   H365      1.0  0.17075  0.28962  0.81475  1.0000
  N   N22       1.0  0.19754  0.43067  0.86904  1.0000
  C   C303      1.0  0.21598  0.41822  0.87634  1.0000
  C   C304      1.0  0.17860  0.42248  0.87835  1.0000
  C   C305      1.0  0.19951  0.42725  0.85071  1.0000
  C   C306      1.0  0.19551  0.45314  0.87045  1.0000
  H   H366      1.0  0.32242  0.28760  0.86990  1.0000
  C   C307      1.0  0.14376  0.47336  0.78007  1.0000
  H   H367      1.0  0.21751  0.40153  0.87455  1.0000
  H   H368      1.0  0.23084  0.42374  0.87006  1.0000
  H   H369      1.0  0.16427  0.42947  0.87242  1.0000
  H   H370      1.0  0.17600  0.42561  0.89199  1.0000
  H   H371      1.0  0.17988  0.40542  0.87838  1.0000
  H   H372      1.0  0.21307  0.43401  0.84309  1.0000
  H   H373      1.0  0.20173  0.41041  0.84922  1.0000
  H   H374      1.0  0.18538  0.43425  0.84455  1.0000
  H   H375      1.0  0.26635  0.40397  0.96736  1.0000
  N   N23       1.0  0.15475  0.31441  0.82913  1.0000
  C   C308      1.0  0.13323  0.31985  0.83787  1.0000
  C   C309      1.0  0.15800  0.33028  0.81407  1.0000
  C   C310      1.0  0.15582  0.29399  0.82294  1.0000
  C   C311      1.0  0.17122  0.31351  0.84033  1.0000
  C   C312      1.0  0.16677  0.31811  0.85760  1.0000
  N   N24       1.0  0.05459  0.36071  0.75563  1.0000
  H   H376      1.0  0.29305  0.31677  0.98457  1.0000
  H   H377      1.0  0.99428  0.32950  0.77294  1.0000
  H   H378      1.0  0.28792  0.43277  0.97170  1.0000
  H   H379      1.0  0.09841  0.48140  0.83408  1.0000
  H   H380      1.0  0.22582  0.47234  0.98621  1.0000
  H   H381      1.0  0.29198  0.31634  0.95427  1.0000
  H   H382      1.0  0.99472  0.31793  0.74454  1.0000
  H   H383      1.0  0.31354  0.32376  0.81728  1.0000
  H   H384      1.0  0.27439  0.44400  0.94725  1.0000
  H   H385      1.0  0.02630  0.45115  0.80807  1.0000
  C   C313      1.0  0.08257  0.48012  0.83220  1.0000
  H   H386      1.0  0.31791  0.33180  0.93233  1.0000
  H   H387      1.0  0.30251  0.44115  0.94149  1.0000
  H   H388      1.0  0.25584  0.47563  0.95849  1.0000
  C   C314      1.0  0.30451  0.48255  0.93891  1.0000
  C   C315      1.0  0.06992  0.36559  0.74032  1.0000
  C   C316      1.0  0.20606  0.48292  0.88076  1.0000
  C   C317      1.0  0.32222  0.34246  0.84268  1.0000
  Fe  Fe41      1.0  0.29664  0.58688  0.06401  1.0000
  S   S81       1.0  0.26131  0.59316  0.06793  1.0000
  H   H389      1.0  0.21953  0.52208  0.02334  1.0000
  Fe  Fe42      1.0  0.29540  0.54037  0.06156  1.0000
  S   S82       1.0  0.26045  0.54397  0.06510  1.0000
  C   C318      1.0  0.12593  0.56323  0.23707  1.0000
  Fe  Fe43      1.0  0.26274  0.57321  0.04696  1.0000
  S   S83       1.0  0.24366  0.58154  0.02478  1.0000
  Fe  Fe44      1.0  0.26233  0.56323  0.08581  1.0000
  S   S84       1.0  0.24408  0.55830  0.11262  1.0000
  S   S85       1.0  0.29759  0.56859  0.04199  1.0000
  S   S86       1.0  0.29771  0.55801  0.08348  1.0000
  Fe  Fe45      1.0  0.12542  0.55396  0.15771  1.0000
  S   S87       1.0  0.13383  0.54138  0.18427  1.0000
  S   S88       1.0  0.14567  0.56027  0.13195  1.0000
  Fe  Fe46      1.0  0.07805  0.55429  0.16929  1.0000
  S   S89       1.0  0.08307  0.54094  0.19614  1.0000
  S   S90       1.0  0.04503  0.56753  0.16432  1.0000
  Fe  Fe47      1.0  0.10585  0.56337  0.19415  1.0000
  S   S91       1.0  0.09723  0.58346  0.21567  1.0000
  Fe  Fe48      1.0  0.11004  0.52029  0.18417  1.0000
  H   H390      1.0  0.00634  0.53012  0.19382  1.0000
  S   S92       1.0  0.09956  0.57799  0.16767  1.0000
  S   S93       1.0  0.10309  0.53134  0.15720  1.0000
  C   C319      1.0  0.02626  0.55232  0.16148  1.0000
  C   C320      1.0  0.27945  0.60577  0.11387  1.0000
  C   C321      1.0  0.03123  0.53101  0.16047  1.0000
  H   H391      1.0  0.01942  0.50302  0.15756  1.0000
  H   H392      1.0  0.04713  0.52351  0.16110  1.0000
  C   C322      1.0  0.21021  0.64353  0.11174  1.0000
  C   C323      1.0  0.04493  0.60667  0.19831  1.0000
  H   H393      1.0  0.23988  0.51209  0.05494  1.0000
  H   H394      1.0  0.07810  0.50254  0.17805  1.0000
  C   C324      1.0  0.03636  0.60379  0.22892  1.0000
  H   H395      1.0  0.21931  0.59317  0.12849  1.0000
  H   H396      1.0  0.12779  0.50583  0.12910  1.0000
  H   H397      1.0  0.05554  0.50825  0.22441  1.0000
  S   S94       1.0  0.31264  0.61632  0.05807  1.0000
  C   C325      1.0  0.03186  0.51888  0.20773  1.0000
  H   H398      1.0  0.21734  0.62196  0.08482  1.0000
  H   H399      1.0  0.29556  0.53413  0.99295  1.0000
  H   H400      1.0  0.13446  0.55646  0.22600  1.0000
  C   C326      1.0  0.00232  0.59929  0.19503  1.0000
  H   H401      1.0  0.30472  0.61773  0.09679  1.0000
  C   C327      1.0  0.21697  0.55658  0.11758  1.0000
  C   C328      1.0  0.20360  0.56044  0.10489  1.0000
  C   C329      1.0  0.18185  0.56126  0.10956  1.0000
  C   C330      1.0  0.17324  0.55803  0.12691  1.0000
  C   C331      1.0  0.18665  0.55357  0.13958  1.0000
  C   C332      1.0  0.20840  0.55290  0.13492  1.0000
  H   H402      1.0  0.20994  0.56327  0.09150  1.0000
  H   H403      1.0  0.17159  0.56465  0.09967  1.0000
  H   H404      1.0  0.18024  0.55101  0.15297  1.0000
  H   H405      1.0  0.21861  0.54991  0.14484  1.0000
  C   C333      1.0  0.03936  0.51490  0.22361  1.0000
  C   C334      1.0  0.27322  0.55551  0.00680  1.0000
  C   C335      1.0  0.25539  0.57036  0.00620  1.0000
  H   H406      1.0  0.28009  0.55109  0.01858  1.0000
  H   H407      1.0  0.19132  0.49442  0.10723  1.0000
  H   H408      1.0  0.03532  0.56808  0.20233  1.0000
  H   H409      1.0  0.19302  0.64417  0.11550  1.0000
  H   H410      1.0  0.00183  0.57852  0.16084  1.0000
  C   C336      1.0  0.28185  0.54574  0.99230  1.0000
  C   C337      1.0  0.08020  0.48580  0.17940  1.0000
  C   C338      1.0  0.28504  0.48630  0.07415  1.0000
  C   C339      1.0  0.00566  0.56198  0.16046  1.0000
  C   C340      1.0  0.17645  0.48877  0.11132  1.0000
  H   H411      1.0  0.21899  0.61561  0.13917  1.0000
  C   C341      1.0  0.01555  0.51948  0.15844  1.0000
  C   C342      1.0  0.02600  0.51940  0.23841  1.0000
  H   H412      1.0  0.24370  0.64471  0.08575  1.0000
  H   H413      1.0  0.04010  0.62373  0.19594  1.0000
  H   H414      1.0  0.27924  0.49991  0.08057  1.0000
  C   C343      1.0  0.27027  0.50444  0.02803  1.0000
  C   C344      1.0  0.10713  0.57651  0.23552  1.0000
  N   N25       1.0  0.24783  0.50234  0.02961  1.0000
  H   H415      1.0  0.21205  0.65293  0.09894  1.0000
  H   H416      1.0  0.06165  0.60399  0.20048  1.0000
  C   C345      1.0  0.21363  0.61001  0.12821  1.0000
  C   C346      1.0  0.21407  0.61277  0.09760  1.0000
  H   H417      1.0  0.04224  0.51522  0.19623  1.0000
  S   S95       1.0  0.31306  0.50975  0.05396  1.0000
  H   H418      1.0  0.27298  0.51701  0.03511  1.0000
  C   C347      1.0  0.03699  0.57422  0.21435  1.0000
  N   N26       1.0  0.22086  0.62183  0.11154  1.0000
  H   H419      1.0  0.16116  0.51769  0.11976  1.0000
  C   C348      1.0  0.28792  0.61898  0.10024  1.0000
  C   C349      1.0  0.00912  0.60274  0.21044  1.0000
  H   H420      1.0  0.23835  0.53539  0.02979  1.0000
  H   H421      1.0  0.28974  0.59418  0.12101  1.0000
  C   C350      1.0  0.25777  0.60680  0.11793  1.0000
  H   H422      1.0  0.05568  0.48460  0.16427  1.0000
  H   H423      1.0  0.05356  0.56934  0.21674  1.0000
  H   H424      1.0  0.05336  0.59988  0.23020  1.0000
  C   C351      1.0  0.25308  0.63423  0.09432  1.0000
  C   C352      1.0  0.24386  0.62123  0.10831  1.0000
  H   H425      1.0  0.28152  0.64284  0.07947  1.0000
  H   H426      1.0  0.19627  0.61116  0.13063  1.0000
  H   H427      1.0  0.19705  0.61157  0.09988  1.0000
  H   H428      1.0  0.25239  0.59556  0.12826  1.0000
  H   H429      1.0  0.22259  0.59685  0.09654  1.0000
  C   C353      1.0  0.27477  0.63321  0.09051  1.0000
  H   H430      1.0  0.30937  0.48718  0.99971  1.0000
  H   H431      1.0  0.10577  0.49514  0.22910  1.0000
  C   C354      1.0  0.15946  0.50187  0.11838  1.0000
  H   H432      1.0  0.21637  0.65145  0.12101  1.0000
  H   H433      1.0  0.01322  0.59256  0.18500  1.0000
  H   H434      1.0  0.27682  0.50802  0.01436  1.0000
  S   S96       1.0  0.11463  0.48672  0.19495  1.0000
  H   H435      1.0  0.03232  0.62088  0.22889  1.0000
  H   H436      1.0  0.24287  0.52732  0.00899  1.0000
  C   C355      1.0  0.23658  0.52255  0.02257  1.0000
  H   H437      1.0  0.27972  0.49003  0.03328  1.0000
  H   H438      1.0  0.22934  0.50230  0.99958  1.0000
  C   C356      1.0  0.99715  0.53285  0.22129  1.0000
  N   N27       1.0  0.03140  0.59707  0.21306  1.0000
  H   H439      1.0  0.04479  0.60008  0.18619  1.0000
  C   C357      1.0  0.23965  0.49852  0.04811  1.0000
  H   H440      1.0  0.09730  0.53029  0.23693  1.0000
  C   C358      1.0  0.30179  0.48682  0.06099  1.0000
  C   C359      1.0  0.01108  0.52760  0.20652  1.0000
  C   C360      1.0  0.14020  0.49478  0.12372  1.0000
  C   C361      1.0  0.00515  0.52807  0.23734  1.0000
  H   H441      1.0  0.99696  0.61365  0.23547  1.0000
  H   H442      1.0  0.22326  0.49519  0.04981  1.0000
  C   C362      1.0  0.24640  0.57562  0.99085  1.0000
  H   H443      1.0  0.10268  0.48838  0.14487  1.0000
  C   C363      1.0  0.23567  0.48725  0.00555  1.0000
  C   C364      1.0  0.24552  0.48468  0.02073  1.0000
  H   H444      1.0  0.24912  0.48530  0.05507  1.0000
  C   C365      1.0  0.99489  0.52919  0.15758  1.0000
  H   H445      1.0  0.09730  0.49521  0.12281  1.0000
  H   H446      1.0  0.02696  0.56638  0.22511  1.0000
  C   C366      1.0  0.99349  0.61105  0.22311  1.0000
  H   H447      1.0  0.23253  0.58704  0.99034  1.0000
  Fe  Fe49      1.0  0.27658  0.84261  0.42913  1.0000
  S   S97       1.0  0.24493  0.85923  0.43699  1.0000
  S   S98       1.0  0.29371  0.81939  0.44782  1.0000
  Fe  Fe50      1.0  0.27845  0.86339  0.39209  1.0000
  S   S99       1.0  0.24600  0.88141  0.39740  1.0000
  S   S100      1.0  0.29641  0.87165  0.36548  1.0000
  Fe  Fe51      1.0  0.25674  0.88747  0.42163  1.0000
  S   S101      1.0  0.25465  0.91671  0.43445  1.0000
  Fe  Fe52      1.0  0.23685  0.85131  0.41224  1.0000
  S   S102      1.0  0.20478  0.83997  0.41547  1.0000
  S   S103      1.0  0.28937  0.87116  0.41561  1.0000
  S   S104      1.0  0.26836  0.83300  0.40508  1.0000
  Fe  Fe53      1.0  0.14726  0.74185  0.40099  1.0000
  S   S105      1.0  0.15644  0.70716  0.40519  1.0000
  S   S106      1.0  0.17424  0.76106  0.39333  1.0000
  Fe  Fe54      1.0  0.10051  0.73743  0.40713  1.0000
  S   S107      1.0  0.10643  0.70281  0.41233  1.0000
  S   S108      1.0  0.06727  0.75391  0.40916  1.0000
  Fe  Fe55      1.0  0.13097  0.70817  0.42758  1.0000
  S   S109      1.0  0.13711  0.68844  0.45264  1.0000
  Fe  Fe56      1.0  0.13109  0.70471  0.38955  1.0000
  S   S110      1.0  0.13268  0.68687  0.36672  1.0000
  S   S111      1.0  0.12314  0.74293  0.42429  1.0000
  S   S112      1.0  0.12381  0.73942  0.38339  1.0000
  H   H448      1.0  0.03090  0.68455  0.48241  1.0000
  Fe  Fe57      1.0  0.10258  0.58306  0.34563  1.0000
  S   S113      1.0  0.09799  0.60068  0.31966  1.0000
  S   S114      1.0  0.11445  0.59458  0.36755  1.0000
  Fe  Fe58      1.0  0.08544  0.54487  0.33781  1.0000
  S   S115      1.0  0.07909  0.55954  0.31153  1.0000
  S   S116      1.0  0.07625  0.51323  0.34745  1.0000
  Fe  Fe59      1.0  0.11033  0.57010  0.30965  1.0000
  S   S117      1.0  0.13415  0.56444  0.28668  1.0000
  Fe  Fe60      1.0  0.06730  0.58842  0.32396  1.0000
  S   S118      1.0  0.03622  0.60756  0.32099  1.0000
  S   S119      1.0  0.11761  0.55332  0.33530  1.0000
  S   S120      1.0  0.07086  0.57293  0.35059  1.0000
  C   C367      1.0  0.32437  0.91089  0.38354  1.0000
  H   H449      1.0  0.11184  0.51108  0.32062  1.0000
  C   C368      1.0  0.00332  0.60011  0.30662  1.0000
  C   C369      1.0  0.02497  0.59952  0.30485  1.0000
  C   C370      1.0  0.03749  0.59148  0.29076  1.0000
  C   C371      1.0  0.02833  0.58357  0.27863  1.0000
  H   H450      1.0  0.16734  0.72175  0.47670  1.0000
  H   H451      1.0  0.05422  0.59137  0.28920  1.0000
  H   H452      1.0  0.03812  0.57695  0.26798  1.0000
  C   C372      1.0  0.04889  0.74040  0.40288  1.0000
  C   C373      1.0  0.02766  0.74413  0.40954  1.0000
  C   C374      1.0  0.01305  0.73282  0.40510  1.0000
  C   C375      1.0  0.01961  0.71795  0.39375  1.0000
  C   C376      1.0  0.04067  0.71480  0.38667  1.0000
  C   C377      1.0  0.05529  0.72579  0.39132  1.0000
  H   H453      1.0  0.02256  0.75552  0.41841  1.0000
  C   C378      1.0  0.08509  0.67435  0.45130  1.0000
  H   H454      1.0  0.04578  0.70355  0.37773  1.0000
  H   H455      1.0  0.07153  0.72304  0.38590  1.0000
  C   C379      1.0  0.12815  0.66098  0.36722  1.0000
  C   C380      1.0  0.12950  0.64653  0.38195  1.0000
  C   C381      1.0  0.12533  0.62621  0.38183  1.0000
  C   C382      1.0  0.11979  0.62017  0.36702  1.0000
  C   C383      1.0  0.11884  0.63448  0.35220  1.0000
  C   C384      1.0  0.12318  0.65473  0.35229  1.0000
  H   H456      1.0  0.13385  0.65101  0.39339  1.0000
  H   H457      1.0  0.12645  0.61510  0.39326  1.0000
  H   H458      1.0  0.11472  0.63002  0.34068  1.0000
  H   H459      1.0  0.12238  0.66576  0.34077  1.0000
  C   C385      1.0  0.12334  0.56852  0.26719  1.0000
  C   C386      1.0  0.05715  0.69969  0.44135  1.0000
  C   C387      1.0  0.11980  0.72048  0.47128  1.0000
  C   C388      1.0  0.13048  0.70030  0.47160  1.0000
  C   C389      1.0  0.03846  0.63650  0.35492  1.0000
  H   H460      1.0  0.04409  0.69389  0.41998  1.0000
  H   H461      1.0  0.13855  0.86032  0.40438  1.0000
  H   H462      1.0  0.11466  0.72866  0.45952  1.0000
  C   C390      1.0  0.16712  0.51846  0.33255  1.0000
  H   H463      1.0  0.00178  0.52156  0.28220  1.0000
  C   C391      1.0  0.19744  0.81686  0.41032  1.0000
  C   C392      1.0  0.20987  0.80485  0.39844  1.0000
  C   C393      1.0  0.20257  0.78773  0.39362  1.0000
  C   C394      1.0  0.18293  0.78212  0.40079  1.0000
  C   C395      1.0  0.17081  0.79364  0.41318  1.0000
  C   C396      1.0  0.17797  0.81098  0.41778  1.0000
  H   H464      1.0  0.22485  0.80913  0.39256  1.0000
  H   H465      1.0  0.21214  0.77892  0.38408  1.0000
  H   H466      1.0  0.15576  0.78956  0.41896  1.0000
  H   H467      1.0  0.16822  0.82014  0.42700  1.0000
  C   C397      1.0  0.02735  0.67364  0.35157  1.0000
  C   C398      1.0  0.25643  0.95844  0.43121  1.0000
  C   C399      1.0  0.25101  0.94228  0.42372  1.0000
  C   C400      1.0  0.24273  0.94685  0.40810  1.0000
  H   H468      1.0  0.02809  0.59584  0.24070  1.0000
  H   H469      1.0  0.26276  0.95512  0.44330  1.0000
  H   H470      1.0  0.23824  0.93458  0.40233  1.0000
  H   H471      1.0  0.99684  0.73542  0.41063  1.0000
  C   C401      1.0  0.29241  0.82238  0.46970  1.0000
  C   C402      1.0  0.27786  0.83723  0.47780  1.0000
  H   H472      1.0  0.03066  0.53078  0.32912  1.0000
  C   C403      1.0  0.02224  0.54641  0.33128  1.0000
  H   H473      1.0  0.26667  0.84737  0.47053  1.0000
  H   H474      1.0  0.16303  0.80727  0.36473  1.0000
  H   H475      1.0  0.09579  0.58825  0.27674  1.0000
  H   H476      1.0  0.14896  0.54962  0.25393  1.0000
  C   C404      1.0  0.09622  0.58531  0.24994  1.0000
  C   C405      1.0  0.01523  0.51451  0.28858  1.0000
  N   N28       1.0  0.17187  0.58348  0.33119  1.0000
  C   C406      1.0  0.15291  0.59561  0.32461  1.0000
  C   C407      1.0  0.17311  0.59002  0.34815  1.0000
  C   C408      1.0  0.19054  0.58905  0.31941  1.0000
  C   C409      1.0  0.17083  0.56102  0.33194  1.0000
  C   C410      1.0  0.16923  0.54743  0.34763  1.0000
  C   C411      1.0  0.17064  0.55224  0.31663  1.0000
  C   C412      1.0  0.16746  0.52647  0.34782  1.0000
  H   H477      1.0  0.21860  0.95295  0.46713  1.0000
  H   H478      1.0  0.00113  0.62148  0.37079  1.0000
  H   H479      1.0  0.13866  0.59197  0.33331  1.0000
  H   H480      1.0  0.15302  0.61263  0.32376  1.0000
  H   H481      1.0  0.15107  0.59224  0.31159  1.0000
  H   H482      1.0  0.18718  0.58165  0.35382  1.0000
  H   H483      1.0  0.15896  0.58735  0.35742  1.0000
  H   H484      1.0  0.17389  0.60696  0.34717  1.0000
  H   H485      1.0  0.18955  0.58719  0.30585  1.0000
  H   H486      1.0  0.19249  0.60557  0.31936  1.0000
  H   H487      1.0  0.20502  0.57916  0.32323  1.0000
  H   H488      1.0  0.16883  0.55266  0.35998  1.0000
  H   H489      1.0  0.17122  0.56164  0.30424  1.0000
  H   H490      1.0  0.10105  0.50708  0.28984  1.0000
  C   C413      1.0  0.11565  0.73016  0.48628  1.0000
  C   C414      1.0  0.19318  0.75259  0.47472  1.0000
  N   N29       1.0  0.18609  0.73074  0.45272  1.0000
  C   C415      1.0  0.20192  0.71976  0.44043  1.0000
  C   C416      1.0  0.18074  0.71526  0.46770  1.0000
  C   C417      1.0  0.16696  0.73816  0.44440  1.0000
  C   C418      1.0  0.19399  0.74879  0.45739  1.0000
  H   H491      1.0  0.30289  0.91342  0.35599  1.0000
  C   C419      1.0  0.10416  0.58112  0.26578  1.0000
  H   H492      1.0  0.17414  0.85768  0.38852  1.0000
  H   H493      1.0  0.09717  0.66965  0.45971  1.0000
  H   H494      1.0  0.16034  0.72496  0.44097  1.0000
  H   H495      1.0  0.21720  0.71546  0.44556  1.0000
  C   C420      1.0  0.27873  0.92493  0.47356  1.0000
  C   C421      1.0  0.13415  0.55945  0.25286  1.0000
  C   C422      1.0  0.20043  0.77003  0.47864  1.0000
  H   H496      1.0  0.18588  0.83114  0.36886  1.0000
  H   H497      1.0  0.17569  0.70147  0.46369  1.0000
  H   H498      1.0  0.03101  0.52057  0.35968  1.0000
  H   H499      1.0  0.21397  0.79781  0.46852  1.0000
  H   H500      1.0  0.29378  0.92989  0.47508  1.0000
  H   H501      1.0  0.27500  0.93539  0.38101  1.0000
  H   H502      1.0  0.01564  0.68722  0.35043  1.0000
  H   H503      1.0  0.99281  0.57682  0.34264  1.0000
  C   C423      1.0  0.06395  0.66014  0.35201  1.0000
  H   H504      1.0  0.03451  0.55679  0.32887  1.0000
  H   H505      1.0  0.07389  0.70292  0.46200  1.0000
  H   H506      1.0  0.20255  0.76232  0.43091  1.0000
  H   H507      1.0  0.25604  0.89612  0.46810  1.0000
  H   H508      1.0  0.24206  0.91087  0.48433  1.0000
  H   H509      1.0  0.16586  0.51644  0.35993  1.0000
  H   H510      1.0  0.01791  0.57768  0.34887  1.0000
  C   C424      1.0  0.10174  0.50414  0.27666  1.0000
  H   H511      1.0  0.14476  0.67397  0.48749  1.0000
  C   C425      1.0  0.29797  0.88316  0.46380  1.0000
  H   H512      1.0  0.23351  0.97095  0.38796  1.0000
  S   S121      1.0  0.99541  0.57029  0.26759  1.0000
  N   N30       1.0  0.99979  0.65034  0.35393  1.0000
  H   H513      1.0  0.21544  0.79222  0.43828  1.0000
  C   C426      1.0  0.02480  0.53698  0.36155  1.0000
  C   C427      1.0  0.05917  0.63997  0.35417  1.0000
  C   C428      1.0  0.00673  0.58318  0.28091  1.0000
  H   H514      1.0  0.16787  0.52527  0.30512  1.0000
  H   H515      1.0  0.26594  0.93778  0.47645  1.0000
  C   C429      1.0  0.03133  0.52593  0.28878  1.0000
  H   H516      1.0  0.16520  0.50234  0.33279  1.0000
  H   H517      1.0  0.05188  0.69261  0.34890  1.0000
  H   H518      1.0  0.00369  0.48570  0.29579  1.0000
  H   H519      1.0  0.03051  0.54163  0.28237  1.0000
  N   N31       1.0  0.06799  0.65680  0.41224  1.0000
  C   C430      1.0  0.07964  0.66699  0.39674  1.0000
  C   C431      1.0  0.07783  0.63477  0.41505  1.0000
  C   C432      1.0  0.04621  0.65682  0.40881  1.0000
  C   C433      1.0  0.06849  0.66836  0.42688  1.0000
  C   C434      1.0  0.08353  0.66215  0.43861  1.0000
  C   C435      1.0  0.00429  0.56895  0.35148  1.0000
  H   H520      1.0  0.09598  0.66751  0.39879  1.0000
  H   H521      1.0  0.08023  0.65880  0.38531  1.0000
  H   H522      1.0  0.07267  0.68334  0.39351  1.0000
  H   H523      1.0  0.09505  0.63333  0.41494  1.0000
  H   H524      1.0  0.07591  0.62590  0.40456  1.0000
  H   H525      1.0  0.07093  0.62676  0.42741  1.0000
  H   H526      1.0  0.03614  0.65168  0.42076  1.0000
  H   H527      1.0  0.03882  0.67234  0.40338  1.0000
  H   H528      1.0  0.04550  0.64650  0.39902  1.0000
  H   H529      1.0  0.09481  0.64831  0.43787  1.0000
  H   H530      1.0  0.19692  0.70529  0.43767  1.0000
  H   H531      1.0  0.10746  0.74586  0.48591  1.0000
  C   C436      1.0  0.01634  0.49408  0.29661  1.0000
  C   C437      1.0  0.09827  0.52079  0.26391  1.0000
  H   H532      1.0  0.06317  0.49118  0.31207  1.0000
  S   S122      1.0  0.00268  0.70173  0.38892  1.0000
  H   H533      1.0  0.03867  0.54513  0.36051  1.0000
  C   C438      1.0  0.29973  0.96316  0.38845  1.0000
  C   C439      1.0  0.02184  0.65332  0.35368  1.0000
  C   C440      1.0  0.29326  0.88899  0.48067  1.0000
  H   H534      1.0  0.01160  0.55167  0.32126  1.0000
  C   C441      1.0  0.04809  0.67692  0.35072  1.0000
  N   N32       1.0  0.30866  0.92807  0.37711  1.0000
  H   H535      1.0  0.07166  0.62692  0.35488  1.0000
  H   H536      1.0  0.06090  0.52615  0.29742  1.0000
  H   H537      1.0  0.27913  0.92341  0.45974  1.0000
  C   C442      1.0  0.05535  0.68756  0.42869  1.0000
  C   C443      1.0  0.25577  0.89886  0.48164  1.0000
  C   C444      1.0  0.23999  0.96746  0.40002  1.0000
  C   C445      1.0  0.22238  0.96430  0.47441  1.0000
  H   H538      1.0  0.08001  0.66283  0.35113  1.0000
  N   N33       1.0  0.12112  0.80598  0.37976  1.0000
  C   C446      1.0  0.11646  0.79281  0.39628  1.0000
  C   C447      1.0  0.10127  0.81817  0.37479  1.0000
  C   C448      1.0  0.12935  0.79199  0.36643  1.0000
  C   C449      1.0  0.13583  0.82014  0.38181  1.0000
  C   C450      1.0  0.12973  0.83547  0.39319  1.0000
  C   C451      1.0  0.15654  0.81898  0.37302  1.0000
  C   C452      1.0  0.14333  0.84899  0.39538  1.0000
  C   C453      1.0  0.16995  0.83265  0.37527  1.0000
  C   C454      1.0  0.16337  0.84763  0.38638  1.0000
  H   H539      1.0  0.10932  0.80206  0.40686  1.0000
  H   H540      1.0  0.10529  0.78198  0.39534  1.0000
  H   H541      1.0  0.13100  0.78329  0.40034  1.0000
  H   H542      1.0  0.10424  0.82917  0.36293  1.0000
  H   H543      1.0  0.09265  0.82729  0.38502  1.0000
  H   H544      1.0  0.09028  0.80793  0.37232  1.0000
  H   H545      1.0  0.14344  0.78113  0.36997  1.0000
  H   H546      1.0  0.11771  0.78206  0.36474  1.0000
  H   H547      1.0  0.13346  0.80093  0.35367  1.0000
  H   H548      1.0  0.11451  0.83689  0.40073  1.0000
  C   C455      1.0  0.04952  0.49685  0.30563  1.0000
  H   H549      1.0  0.01070  0.50720  0.34140  1.0000
  C   C456      1.0  0.99315  0.65805  0.33678  1.0000
  C   C457      1.0  0.07203  0.69313  0.45260  1.0000
  C   C458      1.0  0.13654  0.68965  0.48716  1.0000
  C   C459      1.0  0.30684  0.80934  0.47919  1.0000
  H   H550      1.0  0.00465  0.61880  0.34804  1.0000
  H   H551      1.0  0.09497  0.53654  0.26719  1.0000
  H   H552      1.0  0.04745  0.71467  0.44195  1.0000
  H   H553      1.0  0.01669  0.53692  0.37491  1.0000
  C   C460      1.0  0.20205  0.76371  0.44439  1.0000
  N   N34       1.0  0.01056  0.54679  0.34883  1.0000
  H   H554      1.0  0.00315  0.64954  0.32664  1.0000
  H   H555      1.0  0.28866  0.89025  0.45373  1.0000
  H   H556      1.0  0.03597  0.62051  0.35606  1.0000
  C   C461      1.0  0.31443  0.86758  0.45967  1.0000
  C   C462      1.0  0.10825  0.49553  0.32496  1.0000
  C   C463      1.0  0.99426  0.59168  0.29480  1.0000
  H   H557      1.0  0.20456  0.72920  0.42768  1.0000
  H   H558      1.0  0.19435  0.70943  0.47487  1.0000
  C   C464      1.0  0.16872  0.53133  0.31698  1.0000
  H   H559      1.0  0.17003  0.74877  0.43231  1.0000
  C   C465      1.0  0.09212  0.49225  0.33831  1.0000
  C   C466      1.0  0.20933  0.78102  0.44846  1.0000
  H   H560      1.0  0.18683  0.74245  0.48550  1.0000
  C   C467      1.0  0.20851  0.78419  0.46554  1.0000
  H   H561      1.0  0.32160  0.88996  0.33628  1.0000
  H   H562      1.0  0.15466  0.74671  0.45308  1.0000
  C   C468      1.0  0.09957  0.51723  0.24688  1.0000
  H   H563      1.0  0.08176  0.59570  0.24882  1.0000
  C   C469      1.0  0.30852  0.92765  0.35848  1.0000
  H   H564      1.0  0.99538  0.53122  0.24919  1.0000
  H   H565      1.0  0.29794  0.94118  0.35296  1.0000
  C   C470      1.0  0.99623  0.62833  0.35809  1.0000
  H   H566      1.0  0.28429  0.96029  0.39413  1.0000
  H   H567      1.0  0.03185  0.51623  0.25077  1.0000
  C   C471      1.0  0.04844  0.51713  0.29723  1.0000
  N   N35       1.0  0.27549  0.90530  0.48477  1.0000
  H   H568      1.0  0.31719  0.86277  0.44690  1.0000
  H   H569      1.0  0.28442  0.90842  0.38409  1.0000
  C   C472      1.0  0.28783  0.92392  0.38603  1.0000
  C   C473      1.0  0.25391  0.97898  0.42304  1.0000
  H   H570      1.0  0.99732  0.57070  0.36494  1.0000
  C   C474      1.0  0.32272  0.86291  0.48874  1.0000
  C   C475      1.0  0.99547  0.51462  0.34628  1.0000
  C   C476      1.0  0.99263  0.53506  0.35085  1.0000
  C   C477      1.0  0.30491  0.98258  0.38989  1.0000
  H   H571      1.0  0.31807  0.79782  0.47305  1.0000
  H   H572      1.0  0.99418  0.67485  0.33313  1.0000
  H   H573      1.0  0.28681  0.92399  0.40017  1.0000
  C   C478      1.0  0.31406  0.94832  0.37971  1.0000
  H   H574      1.0  0.99200  0.65853  0.37969  1.0000
  H   H575      1.0  0.99355  0.60646  0.31741  1.0000
  C   C479      1.0  0.32359  0.86623  0.35804  1.0000
  C   C480      1.0  0.03341  0.48462  0.30551  1.0000
  C   C481      1.0  0.10449  0.49701  0.24253  1.0000
  H   H576      1.0  0.31999  0.89541  0.38272  1.0000
  H   H577      1.0  0.32433  0.92789  0.35108  1.0000
  H   H578      1.0  0.25273  0.88421  0.48985  1.0000
  C   C482      1.0  0.24561  0.98358  0.40744  1.0000
  C   C483      1.0  0.10668  0.48382  0.27246  1.0000
  H   H579      1.0  0.29843  0.91296  0.57184  1.0000
  Fe  Fe61      1.0  0.26130  0.85746  0.57943  1.0000
  S   S123      1.0  0.22906  0.87323  0.57454  1.0000
  H   H580      1.0  0.23940  0.80045  0.59702  1.0000
  Fe  Fe62      1.0  0.27130  0.84678  0.54297  1.0000
  S   S124      1.0  0.24042  0.86194  0.53523  1.0000
  S   S125      1.0  0.29604  0.82920  0.52577  1.0000
  Fe  Fe63      1.0  0.24498  0.88754  0.54969  1.0000
  S   S126      1.0  0.23531  0.92144  0.54016  1.0000
  Fe  Fe64      1.0  0.22720  0.84611  0.56068  1.0000
  S   S127      1.0  0.19680  0.83287  0.56144  1.0000
  S   S128      1.0  0.27729  0.87361  0.55535  1.0000
  S   S129      1.0  0.25805  0.82920  0.56758  1.0000
  Fe  Fe65      1.0  0.14260  0.72779  0.57667  1.0000
  S   S130      1.0  0.15340  0.70604  0.55666  1.0000
  S   S131      1.0  0.16869  0.74313  0.58401  1.0000
  Fe  Fe66      1.0  0.09799  0.71526  0.58212  1.0000
  S   S132      1.0  0.10637  0.69300  0.56252  1.0000
  S   S133      1.0  0.06515  0.71484  0.59622  1.0000
  Fe  Fe67      1.0  0.13583  0.68298  0.57472  1.0000
  S   S134      1.0  0.14983  0.64924  0.58127  1.0000
  Fe  Fe68      1.0  0.12273  0.71822  0.54676  1.0000
  S   S135      1.0  0.11611  0.73269  0.52010  1.0000
  S   S136      1.0  0.12680  0.70384  0.59533  1.0000
  S   S137      1.0  0.11268  0.74134  0.56576  1.0000
  C   C484      1.0  0.01331  0.53210  0.73217  1.0000
  Fe  Fe69      1.0  0.11701  0.55540  0.65144  1.0000
  S   S138      1.0  0.10940  0.54828  0.68019  1.0000
  S   S139      1.0  0.10540  0.58872  0.64084  1.0000
  Fe  Fe70      1.0  0.13561  0.51044  0.64777  1.0000
  C   C485      1.0  0.03873  0.56403  0.63929  1.0000
  Fe  Fe71      1.0  0.09920  0.51935  0.67466  1.0000
  S   S140      1.0  0.07210  0.50471  0.68903  1.0000
  Fe  Fe72      1.0  0.14120  0.52959  0.67933  1.0000
  S   S141      1.0  0.16164  0.52775  0.70030  1.0000
  S   S142      1.0  0.10340  0.52791  0.64611  1.0000
  S   S143      1.0  0.14991  0.53849  0.65094  1.0000
  H   H581      1.0  0.99423  0.70856  0.58585  1.0000
  C   C486      1.0  0.15048  0.53936  0.71888  1.0000
  H   H582      1.0  0.25932  0.92214  0.50548  1.0000
  H   H583      1.0  0.15694  0.79829  0.60574  1.0000
  C   C487      1.0  0.13411  0.55584  0.71811  1.0000
  C   C488      1.0  0.03103  0.60683  0.62985  1.0000
  C   C489      1.0  0.24086  0.80448  0.60991  1.0000
  H   H584      1.0  0.12861  0.56202  0.70598  1.0000
  C   C490      1.0  0.04923  0.52200  0.68665  1.0000
  C   C491      1.0  0.04916  0.54335  0.68612  1.0000
  C   C492      1.0  0.03056  0.55705  0.68459  1.0000
  C   C493      1.0  0.01226  0.54938  0.68306  1.0000
  C   C494      1.0  0.01254  0.52808  0.68313  1.0000
  C   C495      1.0  0.03091  0.51436  0.68528  1.0000
  H   H585      1.0  0.06333  0.54932  0.68714  1.0000
  H   H586      1.0  0.03043  0.57354  0.68438  1.0000
  C   C496      1.0  0.07817  0.69554  0.52138  1.0000
  H   H587      1.0  0.31000  0.84351  0.58725  1.0000
  C   C497      1.0  0.04292  0.72194  0.58519  1.0000
  C   C498      1.0  0.02572  0.71104  0.58997  1.0000
  C   C499      1.0  0.00317  0.71046  0.51430  1.0000
  H   H588      1.0  0.28006  0.92484  0.62401  1.0000
  C   C500      1.0  0.02296  0.74552  0.56501  1.0000
  C   C501      1.0  0.04157  0.73904  0.57247  1.0000
  H   H589      1.0  0.02658  0.69793  0.59994  1.0000
  H   H590      1.0  0.28105  0.89944  0.61811  1.0000
  H   H591      1.0  0.02182  0.75919  0.55560  1.0000
  H   H592      1.0  0.05458  0.74775  0.56889  1.0000
  C   C502      1.0  0.13712  0.63234  0.59755  1.0000
  C   C503      1.0  0.14738  0.61231  0.60242  1.0000
  C   C504      1.0  0.13789  0.59867  0.61556  1.0000
  C   C505      1.0  0.11799  0.60497  0.62395  1.0000
  C   C506      1.0  0.10772  0.62497  0.61905  1.0000
  C   C507      1.0  0.11717  0.63857  0.60589  1.0000
  H   H593      1.0  0.16279  0.60734  0.59602  1.0000
  H   H594      1.0  0.14596  0.58331  0.61913  1.0000
  H   H595      1.0  0.09239  0.63008  0.62551  1.0000
  H   H596      1.0  0.10911  0.65394  0.60230  1.0000
  C   C508      1.0  0.18993  0.80738  0.56670  1.0000
  C   C509      1.0  0.20385  0.79044  0.57290  1.0000
  C   C510      1.0  0.19723  0.77079  0.57773  1.0000
  C   C511      1.0  0.17675  0.76773  0.57623  1.0000
  C   C512      1.0  0.16301  0.78458  0.56968  1.0000
  C   C513      1.0  0.16955  0.80428  0.56503  1.0000
  H   H597      1.0  0.21951  0.79252  0.57437  1.0000
  H   H598      1.0  0.20791  0.75790  0.58294  1.0000
  H   H599      1.0  0.14718  0.78255  0.56859  1.0000
  H   H600      1.0  0.15863  0.81726  0.56029  1.0000
  H   H601      1.0  0.20054  0.84355  0.61423  1.0000
  C   C514      1.0  0.00731  0.70033  0.49968  1.0000
  H   H602      1.0  0.99827  0.56943  0.71494  1.0000
  C   C515      1.0  0.24949  0.93965  0.54557  1.0000
  C   C516      1.0  0.27117  0.93531  0.54512  1.0000
  C   C517      1.0  0.28243  0.95032  0.54863  1.0000
  H   H603      1.0  0.17053  0.51908  0.73540  1.0000
  C   C518      1.0  0.27272  0.90974  0.50288  1.0000
  C   C519      1.0  0.23916  0.95914  0.54954  1.0000
  H   H604      1.0  0.27930  0.92049  0.54182  1.0000
  H   H605      1.0  0.29923  0.94683  0.54816  1.0000
  N   N36       1.0  0.99203  0.60700  0.63504  1.0000
  H   H606      1.0  0.22234  0.96252  0.54995  1.0000
  N   N37       1.0  0.22041  0.81411  0.61815  1.0000
  H   H607      1.0  0.23991  0.75810  0.53159  1.0000
  C   C520      1.0  0.22274  0.81735  0.63586  1.0000
  H   H608      1.0  0.08291  0.52189  0.72124  1.0000
  C   C521      1.0  0.20441  0.80032  0.61877  1.0000
  C   C522      1.0  0.20759  0.77955  0.62687  1.0000
  C   C523      1.0  0.18546  0.80686  0.61141  1.0000
  C   C524      1.0  0.19305  0.76601  0.62714  1.0000
  C   C525      1.0  0.17094  0.79324  0.61194  1.0000
  C   C526      1.0  0.17482  0.77283  0.61961  1.0000
  C   C527      1.0  0.27820  0.91628  0.61337  1.0000
  H   H609      1.0  0.20761  0.82422  0.64261  1.0000
  H   H610      1.0  0.25294  0.81508  0.60819  1.0000
  H   H611      1.0  0.23443  0.82801  0.63581  1.0000
  C   C528      1.0  0.04047  0.70422  0.51795  1.0000
  H   H612      1.0  0.22820  0.80263  0.64375  1.0000
  H   H613      1.0  0.16455  0.78298  0.52946  1.0000
  H   H614      1.0  0.22768  0.84476  0.60794  1.0000
  H   H615      1.0  0.24735  0.79005  0.61761  1.0000
  H   H616      1.0  0.22150  0.77351  0.63287  1.0000
  H   H617      1.0  0.18168  0.82219  0.60467  1.0000
  H   H618      1.0  0.19603  0.75003  0.63294  1.0000
  H   H619      1.0  0.18396  0.61019  0.64855  1.0000
  H   H620      1.0  0.16388  0.76213  0.61930  1.0000
  C   C529      1.0  0.29963  0.85965  0.62687  1.0000
  C   C530      1.0  0.21525  0.83486  0.60833  1.0000
  C   C531      1.0  0.12197  0.71970  0.50176  1.0000
  C   C532      1.0  0.13530  0.63871  0.64991  1.0000
  H   H621      1.0  0.13711  0.69112  0.51419  1.0000
  H   H622      1.0  0.00608  0.56433  0.64349  1.0000
  H   H623      1.0  0.14444  0.58414  0.65377  1.0000
  H   H624      1.0  0.11189  0.57694  0.73244  1.0000
  C   C533      1.0  0.00583  0.73453  0.56968  1.0000
  H   H625      1.0  0.25641  0.81171  0.52942  1.0000
  C   C534      1.0  0.31449  0.91598  0.60142  1.0000
  C   C535      1.0  0.31269  0.84753  0.59942  1.0000
  C   C536      1.0  0.15774  0.53173  0.73472  1.0000
  H   H626      1.0  0.12019  0.62343  0.68353  1.0000
  C   C537      1.0  0.28790  0.91006  0.58403  1.0000
  H   H627      1.0  0.01185  0.53351  0.71865  1.0000
  H   H628      1.0  0.25762  0.77614  0.50870  1.0000
  H   H629      1.0  0.99405  0.58381  0.73291  1.0000
  C   C538      1.0  0.22949  0.97385  0.50111  1.0000
  C   C539      1.0  0.19558  0.79163  0.52402  1.0000
  H   H630      1.0  0.04250  0.51189  0.72861  1.0000
  H   H631      1.0  0.28678  0.91519  0.50609  1.0000
  H   H632      1.0  0.07824  0.67858  0.52161  1.0000
  N   N38       1.0  0.23320  0.79938  0.51867  1.0000
  H   H633      1.0  0.21362  0.83354  0.59475  1.0000
  N   N39       1.0  0.29262  0.92136  0.59760  1.0000
  C   C540      1.0  0.03109  0.51976  0.73778  1.0000
  H   H634      1.0  0.17652  0.74664  0.54044  1.0000
  H   H635      1.0  0.01535  0.72074  0.53445  1.0000
  C   C541      1.0  0.09965  0.51497  0.72092  1.0000
  H   H636      1.0  0.28666  0.86496  0.63607  1.0000
  C   C542      1.0  0.15294  0.58551  0.66463  1.0000
  C   C543      1.0  0.12524  0.60839  0.67826  1.0000
  H   H637      1.0  0.14908  0.57313  0.67527  1.0000
  C   C544      1.0  0.15913  0.65217  0.62609  1.0000
  C   C545      1.0  0.05155  0.59665  0.62976  1.0000
  C   C546      1.0  0.16050  0.60826  0.68341  1.0000
  H   H638      1.0  0.26930  0.89585  0.51208  1.0000
  H   H639      1.0  0.30363  0.88124  0.50633  1.0000
  H   H640      1.0  0.05965  0.68753  0.49766  1.0000
  C   C547      1.0  0.05538  0.57531  0.63447  1.0000
  C   C548      1.0  0.21739  0.78517  0.52440  1.0000
  C   C549      1.0  0.22366  0.76408  0.53067  1.0000
  C   C550      1.0  0.18787  0.75715  0.53559  1.0000
  C   C551      1.0  0.32021  0.85776  0.63093  1.0000
  H   H641      1.0  0.27244  0.94822  0.58724  1.0000
  C   C552      1.0  0.18116  0.77768  0.52942  1.0000
  H   H642      1.0  0.25333  0.78571  0.53799  1.0000
  H   H643      1.0  0.26746  0.85086  0.50148  1.0000
  H   H644      1.0  0.99454  0.69865  0.49289  1.0000
  C   C553      1.0  0.00736  0.71707  0.58204  1.0000
  H   H645      1.0  0.06465  0.60534  0.62628  1.0000
  N   N40       1.0  0.10261  0.49676  0.73421  1.0000
  C   C554      1.0  0.24462  0.80085  0.53318  1.0000
  H   H646      1.0  0.99893  0.63162  0.64766  1.0000
  C   C555      1.0  0.12466  0.56426  0.73312  1.0000
  C   C556      1.0  0.01945  0.71257  0.52325  1.0000
  C   C557      1.0  0.01364  0.59578  0.63443  1.0000
  C   C558      1.0  0.29331  0.82648  0.50447  1.0000
  H   H647      1.0  0.13231  0.48653  0.72000  1.0000
  C   C559      1.0  0.27213  0.96968  0.55289  1.0000
  C   C560      1.0  0.17498  0.63656  0.63095  1.0000
  C   C561      1.0  0.27824  0.83918  0.49528  1.0000
  H   H648      1.0  0.08350  0.70240  0.50810  1.0000
  C   C562      1.0  0.13942  0.65336  0.63564  1.0000
  H   H649      1.0  0.16988  0.58163  0.66028  1.0000
  H   H650      1.0  0.19018  0.63553  0.62325  1.0000
  H   H651      1.0  0.11945  0.64019  0.65625  1.0000
  H   H652      1.0  0.26155  0.91997  0.61100  1.0000
  C   C563      1.0  0.20906  0.75037  0.53625  1.0000
  H   H653      1.0  0.07131  0.56756  0.63459  1.0000
  S   S144      1.0  0.26959  0.85781  0.60631  1.0000
  C   C564      1.0  0.04421  0.69418  0.50281  1.0000
  H   H654      1.0  0.11453  0.60687  0.66894  1.0000
  H   H655      1.0  0.15781  0.59668  0.69498  1.0000
  C   C565      1.0  0.15110  0.62246  0.65517  1.0000
  H   H656      1.0  0.04435  0.73730  0.53315  1.0000
  H   H657      1.0  0.09041  0.69730  0.52925  1.0000
  H   H658      1.0  0.27154  0.91484  0.58104  1.0000
  H   H659      1.0  0.12279  0.59599  0.68919  1.0000
  H   H660      1.0  0.12702  0.66526  0.63149  1.0000
  H   H661      1.0  0.15707  0.62400  0.68765  1.0000
  N   N41       1.0  0.14734  0.60653  0.67011  1.0000
  C   C566      1.0  0.01815  0.57400  0.63928  1.0000
  H   H662      1.0  0.23635  0.83103  0.50802  1.0000
  H   H663      1.0  0.24041  0.78918  0.49356  1.0000
  H   H664      1.0  0.04178  0.54748  0.64338  1.0000
  H   H665      1.0  0.23365  0.80657  0.54417  1.0000
  C   C567      1.0  0.30741  0.81150  0.49638  1.0000
  C   C568      1.0  0.17116  0.62202  0.64535  1.0000
  H   H666      1.0  0.10496  0.51071  0.70778  1.0000
  S   S145      1.0  0.13039  0.49999  0.67592  1.0000
  H   H667      1.0  0.05065  0.68012  0.54685  1.0000
  H   H668      1.0  0.31197  0.93899  0.61919  1.0000
  H   H669      1.0  0.29993  0.94871  0.58087  1.0000
  H   H670      1.0  0.18914  0.80745  0.52002  1.0000
  C   C569      1.0  0.24841  0.79128  0.50452  1.0000
  C   C570      1.0  0.13230  0.69933  0.50225  1.0000
  H   H671      1.0  0.07137  0.73033  0.53562  1.0000
  H   H672      1.0  0.03757  0.70471  0.55255  1.0000
  C   C571      1.0  0.28812  0.94391  0.59172  1.0000
  H   H673      1.0  0.23131  0.96896  0.51449  1.0000
  H   H674      1.0  0.17746  0.60545  0.67867  1.0000
  H   H675      1.0  0.16193  0.66304  0.61460  1.0000
  C   C572      1.0  0.05229  0.69681  0.54609  1.0000
  H   H676      1.0  0.10907  0.52705  0.72232  1.0000
  H   H677      1.0  0.06453  0.69801  0.55413  1.0000
  H   H678      1.0  0.28933  0.89304  0.58811  1.0000
  H   H679      1.0  0.13376  0.50042  0.73755  1.0000
  N   N42       1.0  0.05731  0.70609  0.52802  1.0000
  C   C573      1.0  0.05912  0.72830  0.52782  1.0000
  C   C574      1.0  0.29576  0.85472  0.61104  1.0000
  H   H680      1.0  0.26011  0.80195  0.49943  1.0000
  H   H681      1.0  0.21563  0.82105  0.50108  1.0000
  C   C575      1.0  0.30622  0.87839  0.49307  1.0000
  S   S146      1.0  0.15050  0.48712  0.62982  1.0000
  C   C576      1.0  0.25043  0.97409  0.55334  1.0000
  H   H682      1.0  0.02894  0.62349  0.62661  1.0000
  H   H683      1.0  0.21408  0.73449  0.54151  1.0000
  H   H684      1.0  0.99859  0.52206  0.68173  1.0000
  H   H685      1.0  0.03099  0.49785  0.68554  1.0000
  H   H686      1.0  0.31910  0.80166  0.50338  1.0000
  H   H687      1.0  0.21320  0.82822  0.52265  1.0000
  H   H688      1.0  0.99860  0.63363  0.61651  1.0000
  C   C577      1.0  0.22408  0.82081  0.51232  1.0000
  H   H689      1.0  0.06350  0.73573  0.51451  1.0000
  C   C578      1.0  0.02779  0.69234  0.49387  1.0000
  H   H690      1.0  0.28808  0.95370  0.60200  1.0000
  H   H691      1.0  0.99338  0.61167  0.60750  1.0000
  C   C579      1.0  0.22447  0.95922  0.49182  1.0000
  C   C580      1.0  0.12526  0.48909  0.73332  1.0000
  C   C581      1.0  0.32202  0.92690  0.61289  1.0000
  H   H692      1.0  0.22208  0.94390  0.49825  1.0000
  H   H693      1.0  0.32298  0.86162  0.64313  1.0000
  H   H694      1.0  0.19958  0.77262  0.49193  1.0000
  H   H695      1.0  0.07465  0.48497  0.73126  1.0000
  H   H696      1.0  0.32432  0.89000  0.58603  1.0000
  Fe  Fe73      1.0  0.14239  0.51942  0.82002  1.0000
  S   S147      1.0  0.13385  0.53783  0.84228  1.0000
  H   H697      1.0  0.13988  0.59462  0.88703  1.0000
  Fe  Fe74      1.0  0.12749  0.55499  0.79403  1.0000
  S   S148      1.0  0.11843  0.57670  0.81425  1.0000
  S   S149      1.0  0.11872  0.56719  0.76750  1.0000
  Fe  Fe75      1.0  0.14880  0.56239  0.82431  1.0000
  S   S150      1.0  0.17274  0.58040  0.83131  1.0000
  Fe  Fe76      1.0  0.10443  0.55002  0.83021  1.0000
  S   S151      1.0  0.07244  0.55224  0.84606  1.0000
  S   S152      1.0  0.15901  0.54312  0.80252  1.0000
  S   S153      1.0  0.11180  0.52919  0.80960  1.0000
  Fe  Fe77      1.0  0.28764  0.58180  0.90260  1.0000
  S   S154      1.0  0.25928  0.58066  0.92268  1.0000
  S   S155      1.0  0.29914  0.61340  0.89859  1.0000
  Fe  Fe78      1.0  0.28896  0.53597  0.89770  1.0000
  S   S156      1.0  0.26178  0.53226  0.91782  1.0000
  S   S157      1.0  0.30381  0.50715  0.88532  1.0000
  Fe  Fe79      1.0  0.24713  0.56266  0.90498  1.0000
  S   S158      1.0  0.21369  0.56058  0.90108  1.0000
  Fe  Fe80      1.0  0.27667  0.55036  0.93298  1.0000
  S   S159      1.0  0.28353  0.53716  0.95964  1.0000
  S   S160      1.0  0.27401  0.56598  0.88406  1.0000
  S   S161      1.0  0.30536  0.55206  0.91384  1.0000
  C   C582      1.0  0.27278  0.55079  0.97705  1.0000
  C   C583      1.0  0.23903  0.52164  0.84052  1.0000
  C   C584      1.0  0.11318  0.54531  0.89220  1.0000
  C   C585      1.0  0.25516  0.56592  0.97622  1.0000
  C   C586      1.0  0.10295  0.61799  0.87509  1.0000
  H   H698      1.0  0.24802  0.56982  0.96448  1.0000
  H   H699      1.0  0.14566  0.50092  0.79113  1.0000
  S   S162      1.0  0.99430  0.55499  0.80604  1.0000
  H   H700      1.0  0.14068  0.60571  0.85770  1.0000
  H   H701      1.0  0.26171  0.50025  0.90036  1.0000
  H   H702      1.0  0.19960  0.54479  0.81688  1.0000
  C   C587      1.0  0.18472  0.57385  0.85041  1.0000
  C   C588      1.0  0.17749  0.55944  0.86381  1.0000
  C   C589      1.0  0.18672  0.55543  0.87914  1.0000
  C   C590      1.0  0.20343  0.56550  0.88117  1.0000
  C   C591      1.0  0.21105  0.57949  0.86760  1.0000
  C   C592      1.0  0.20159  0.58378  0.85236  1.0000
  H   H703      1.0  0.16451  0.55171  0.86252  1.0000
  H   H704      1.0  0.18083  0.54452  0.88956  1.0000
  H   H705      1.0  0.22379  0.58749  0.86906  1.0000
  H   H706      1.0  0.20722  0.59503  0.84209  1.0000
  C   C593      1.0  0.05075  0.55248  0.83499  1.0000
  C   C594      1.0  0.05297  0.55471  0.81703  1.0000
  C   C595      1.0  0.03552  0.55522  0.80844  1.0000
  C   C596      1.0  0.01574  0.55321  0.81768  1.0000
  C   C597      1.0  0.01356  0.55043  0.83566  1.0000
  C   C598      1.0  0.03102  0.55021  0.84428  1.0000
  H   H707      1.0  0.06804  0.55656  0.80973  1.0000
  H   H708      1.0  0.03732  0.55750  0.79454  1.0000
  H   H709      1.0  0.02919  0.54841  0.85817  1.0000
  H   H710      1.0  0.08611  0.61100  0.84854  1.0000
  N   N43       1.0  0.10898  0.59924  0.86610  1.0000
  H   H711      1.0  0.15353  0.53383  0.76206  1.0000
  H   H712      1.0  0.09049  0.61546  0.88606  1.0000
  H   H713      1.0  0.13414  0.53309  0.91094  1.0000
  H   H714      1.0  0.11633  0.62239  0.88022  1.0000
  C   C599      1.0  0.12669  0.60266  0.85254  1.0000
  H   H715      1.0  0.09697  0.63177  0.86633  1.0000
  H   H716      1.0  0.29883  0.57890  0.94634  1.0000
  C   C600      1.0  0.23477  0.50094  0.84163  1.0000
  C   C601      1.0  0.17691  0.48845  0.86445  1.0000
  H   H717      1.0  0.30034  0.49604  0.97059  1.0000
  H   H718      1.0  0.28624  0.63347  0.95343  1.0000
  H   H719      1.0  0.18844  0.51281  0.87393  1.0000
  C   C602      1.0  0.20961  0.53249  0.82364  1.0000
  H   H720      1.0  0.23440  0.53499  0.87133  1.0000
  C   C603      1.0  0.09096  0.59690  0.85744  1.0000
  C   C604      1.0  0.13152  0.55632  0.74904  1.0000
  S   S163      1.0  0.15698  0.48641  0.82516  1.0000
  H   H721      1.0  0.26329  0.48814  0.93722  1.0000
  H   H722      1.0  0.31285  0.65165  0.90230  1.0000
  H   H723      1.0  0.07809  0.54241  0.77559  1.0000
  N   N44       1.0  0.30913  0.60572  0.95354  1.0000
  C   C605      1.0  0.06692  0.49707  0.83349  1.0000
  C   C606      1.0  0.03423  0.51778  0.75498  1.0000
  H   H724      1.0  0.03501  0.50923  0.83190  1.0000
  C   C607      1.0  0.08908  0.52238  0.75591  1.0000
  H   H725      1.0  0.99667  0.49049  0.80759  1.0000
  H   H726      1.0  0.07068  0.51146  0.83653  1.0000
  C   C608      1.0  0.20619  0.51200  0.82461  1.0000
  C   C609      1.0  0.31294  0.58688  0.94456  1.0000
  C   C610      1.0  0.01970  0.52833  0.76656  1.0000
  C   C611      1.0  0.04656  0.49560  0.83080  1.0000
  H   H727      1.0  0.27464  0.55041  0.84999  1.0000
  H   H728      1.0  0.09494  0.58400  0.84936  1.0000
  C   C612      1.0  0.09322  0.48552  0.76576  1.0000
  C   C613      1.0  0.29172  0.61993  0.94623  1.0000
  H   H729      1.0  0.26498  0.55081  0.82991  1.0000
  C   C614      1.0  0.14812  0.54002  0.74983  1.0000
  H   H730      1.0  0.15064  0.56501  0.90758  1.0000
  C   C615      1.0  0.00177  0.54057  0.76108  1.0000
  H   H731      1.0  0.24795  0.55973  0.84837  1.0000
  H   H732      1.0  0.02352  0.48950  0.79805  1.0000
  C   C616      1.0  0.27038  0.48577  0.89709  1.0000
  H   H733      1.0  0.24542  0.50822  0.87302  1.0000
  C   C617      1.0  0.13170  0.58133  0.88842  1.0000
  C   C618      1.0  0.13811  0.56433  0.90016  1.0000
  H   H734      1.0  0.00481  0.49579  0.84346  1.0000
  C   C619      1.0  0.11547  0.58097  0.87841  1.0000
  C   C620      1.0  0.22567  0.53737  0.83151  1.0000
  H   H735      1.0  0.07703  0.59389  0.86685  1.0000
  H   H736      1.0  0.26102  0.52740  0.87542  1.0000
  H   H737      1.0  0.12255  0.61596  0.84267  1.0000
  N   N45       1.0  0.25580  0.52636  0.84940  1.0000
  C   C621      1.0  0.09460  0.50166  0.75184  1.0000
  C   C622      1.0  0.12892  0.54633  0.90201  1.0000
  H   H738      1.0  0.10616  0.53121  0.89351  1.0000
  H   H739      1.0  0.31237  0.64078  0.96751  1.0000
  H   H740      1.0  0.27992  0.51121  0.83195  1.0000
  H   H741      1.0  0.09430  0.56034  0.87334  1.0000
  C   C623      1.0  0.24888  0.52413  0.86811  1.0000
  C   C624      1.0  0.26099  0.54775  0.84410  1.0000
  C   C625      1.0  0.30244  0.59911  0.97197  1.0000
  H   H742      1.0  0.02236  0.52730  0.77987  1.0000
  H   H743      1.0  0.13169  0.58869  0.84577  1.0000
  H   H744      1.0  0.07431  0.51359  0.79894  1.0000
  H   H745      1.0  0.22706  0.55364  0.83048  1.0000
  H   H746      1.0  0.28889  0.59036  0.97371  1.0000
  C   C626      1.0  0.08173  0.52648  0.77273  1.0000
  C   C627      1.0  0.10645  0.56232  0.88058  1.0000
  H   H747      1.0  0.31531  0.58883  0.97805  1.0000
  C   C628      1.0  0.07978  0.51023  0.78594  1.0000
  H   H748      1.0  0.09067  0.53578  0.74646  1.0000
  H   H749      1.0  0.99837  0.54898  0.84290  1.0000
  H   H750      1.0  0.28874  0.51627  0.85119  1.0000
  H   H751      1.0  0.29659  0.62608  0.93261  1.0000
  C   C629      1.0  0.27539  0.51175  0.84599  1.0000
  H   H752      1.0  0.16466  0.49887  0.85845  1.0000
  C   C630      1.0  0.99792  0.54269  0.74367  1.0000
  H   H753      1.0  0.31689  0.59082  0.93043  1.0000
  H   H754      1.0  0.29735  0.61241  0.97951  1.0000
  C   C631      1.0  0.19029  0.49631  0.87316  1.0000
  H   H755      1.0  0.30394  0.49837  0.94252  1.0000
  H   H756      1.0  0.27790  0.61195  0.94630  1.0000
  C   C632      1.0  0.21872  0.49625  0.83361  1.0000
  H   H757      1.0  0.19362  0.50834  0.81855  1.0000
  H   H758      1.0  0.26821  0.49856  0.95567  1.0000
  H   H759      1.0  0.04800  0.50823  0.75934  1.0000
  C   C633      1.0  0.01280  0.49152  0.81014  1.0000
  H   H760      1.0  0.01240  0.50766  0.81300  1.0000
  H   H761      1.0  0.27420  0.49572  0.85235  1.0000
  H   H762      1.0  0.21621  0.48906  0.88778  1.0000
  H   H763      1.0  0.24353  0.48826  0.84897  1.0000
  C   C634      1.0  0.08575  0.48980  0.78251  1.0000
  H   H764      1.0  0.99128  0.54835  0.77075  1.0000
  C   C635      1.0  0.29119  0.48472  0.88960  1.0000
  H   H765      1.0  0.30189  0.48523  0.92513  1.0000
  C   C636      1.0  0.14766  0.48415  0.79300  1.0000
  C   C637      1.0  0.26812  0.48382  0.95032  1.0000
  Fe  Fe81      1.0  0.40128  0.22499  0.06412  1.0000
  S   S164      1.0  0.40845  0.19899  0.04745  1.0000
  S   S165      1.0  0.36818  0.24257  0.06883  1.0000
  Fe  Fe82      1.0  0.44626  0.21909  0.07246  1.0000
  S   S166      1.0  0.45680  0.19356  0.05606  1.0000
  S   S167      1.0  0.46841  0.22827  0.08848  1.0000
  Fe  Fe83      1.0  0.43750  0.21318  0.03693  1.0000
  H   H766      1.0  0.55518  0.21465  0.01611  1.0000
  Fe  Fe84      1.0  0.42711  0.18135  0.06825  1.0000
  S   S168      1.0  0.43169  0.14639  0.07650  1.0000
  S   S169      1.0  0.42932  0.24008  0.05245  1.0000
  S   S170      1.0  0.41755  0.20598  0.08578  1.0000
  Fe  Fe85      1.0  0.59135  0.22959  0.06057  1.0000
  S   S171      1.0  0.56049  0.23151  0.05002  1.0000
  S   S172      1.0  0.61266  0.19943  0.05799  1.0000
  S   S173      1.0  0.58615  0.08247  0.18794  1.0000
  S   S174      1.0  0.59970  0.03157  0.19581  1.0000
  Fe  Fe86      1.0  0.57194  0.05364  0.18825  1.0000
  S   S175      1.0  0.53978  0.04921  0.20120  1.0000
  Fe  Fe87      1.0  0.42812  0.06144  0.15856  1.0000
  S   S176      1.0  0.45907  0.05435  0.16846  1.0000
  S   S177      1.0  0.41847  0.09629  0.15179  1.0000
  Fe  Fe88      1.0  0.42210  0.01560  0.16580  1.0000
  S   S178      1.0  0.45286  0.00567  0.17581  1.0000
  H   H767      1.0  0.56648  0.06447  0.10474  1.0000
  Fe  Fe89      1.0  0.44454  0.03350  0.18994  1.0000
  S   S179      1.0  0.45509  0.02834  0.21628  1.0000
  Fe  Fe90      1.0  0.46491  0.02734  0.15363  1.0000
  S   S180      1.0  0.49822  0.02366  0.14199  1.0000
  S   S181      1.0  0.41267  0.04230  0.18163  1.0000
  S   S182      1.0  0.43489  0.03543  0.14196  1.0000
  S   S183      1.0  0.63746  0.05650  0.21263  1.0000
  H   H768      1.0  0.49174  0.23377  0.99694  1.0000
  S   S184      1.0  0.58819  0.10319  0.13747  1.0000
  H   H769      1.0  0.44056  0.26933  0.07676  1.0000
  C   C638      1.0  0.35227  0.24775  0.00637  1.0000
  C   C639      1.0  0.60101  0.12486  0.12854  1.0000
  H   H770      1.0  0.63767  0.00674  0.21719  1.0000
  C   C640      1.0  0.52722  0.04271  0.18508  1.0000
  C   C641      1.0  0.52991  0.05333  0.16847  1.0000
  C   C642      1.0  0.52153  0.04712  0.15511  1.0000
  C   C643      1.0  0.51031  0.03030  0.15833  1.0000
  C   C644      1.0  0.50675  0.02029  0.17513  1.0000
  C   C645      1.0  0.51519  0.02650  0.18851  1.0000
  H   H771      1.0  0.53833  0.06651  0.16593  1.0000
  H   H772      1.0  0.52333  0.05562  0.14240  1.0000
  H   H773      1.0  0.49757  0.00767  0.17781  1.0000
  H   H774      1.0  0.51272  0.01847  0.20139  1.0000
  C   C646      1.0  0.40887  0.25689  0.09699  1.0000
  C   C647      1.0  0.44437  0.04486  0.23183  1.0000
  C   C648      1.0  0.42960  0.06233  0.22836  1.0000
  H   H775      1.0  0.35570  0.33310  0.99707  1.0000
  H   H776      1.0  0.40053  0.25331  0.08673  1.0000
  H   H777      1.0  0.42426  0.06586  0.21583  1.0000
  H   H778      1.0  0.33794  0.25424  0.01365  1.0000
  C   C649      1.0  0.62766  0.19476  0.00659  1.0000
  H   H779      1.0  0.62816  0.23403  0.11789  1.0000
  C   C650      1.0  0.55798  0.25507  0.00717  1.0000
  H   H780      1.0  0.65231  0.25330  0.14025  1.0000
  C   C651      1.0  0.35814  0.26901  0.06277  1.0000
  C   C652      1.0  0.37098  0.28350  0.05449  1.0000
  C   C653      1.0  0.36250  0.30456  0.05090  1.0000
  C   C654      1.0  0.34108  0.31139  0.05536  1.0000
  H   H781      1.0  0.40206  0.22672  0.01208  1.0000
  C   C655      1.0  0.33666  0.27578  0.06691  1.0000
  H   H782      1.0  0.38748  0.27854  0.05111  1.0000
  H   H783      1.0  0.37268  0.31570  0.04487  1.0000
  H   H784      1.0  0.59033  0.03941  0.23917  1.0000
  C   C656      1.0  0.37319  0.28817  0.09679  1.0000
  C   C657      1.0  0.49433  0.22835  0.07825  1.0000
  C   C658      1.0  0.51032  0.23094  0.08748  1.0000
  C   C659      1.0  0.53096  0.23137  0.07924  1.0000
  C   C660      1.0  0.53556  0.22933  0.06170  1.0000
  C   C661      1.0  0.51961  0.22633  0.05268  1.0000
  C   C662      1.0  0.49912  0.22585  0.06086  1.0000
  H   H785      1.0  0.50673  0.23286  0.10097  1.0000
  H   H786      1.0  0.54314  0.23375  0.08631  1.0000
  H   H787      1.0  0.52308  0.22446  0.03924  1.0000
  H   H788      1.0  0.48697  0.22394  0.05357  1.0000
  C   C663      1.0  0.42763  0.13285  0.09756  1.0000
  C   C664      1.0  0.41812  0.14288  0.11172  1.0000
  C   C665      1.0  0.41552  0.13149  0.12822  1.0000
  C   C666      1.0  0.42230  0.10998  0.13077  1.0000
  C   C667      1.0  0.43202  0.10002  0.11664  1.0000
  C   C668      1.0  0.43460  0.11140  0.10015  1.0000
  H   H789      1.0  0.41256  0.15935  0.10993  1.0000
  H   H790      1.0  0.40790  0.13934  0.13904  1.0000
  H   H791      1.0  0.43728  0.08349  0.11837  1.0000
  H   H792      1.0  0.44190  0.10345  0.08929  1.0000
  H   H793      1.0  0.59640  0.07193  0.08667  1.0000
  C   C669      1.0  0.42440  0.28200  0.10794  1.0000
  H   H794      1.0  0.43886  0.27046  0.10875  1.0000
  Fe  Fe91      1.0  0.62678  0.25124  0.06930  1.0000
  H   H795      1.0  0.62626  0.18621  0.01934  1.0000
  C   C670      1.0  0.59114  0.04002  0.11354  1.0000
  H   H796      1.0  0.39947  0.25327  0.10966  1.0000
  H   H797      1.0  0.34722  0.30794  0.00078  1.0000
  H   H798      1.0  0.38478  0.98710  0.20461  1.0000
  N   N46       1.0  0.48854  0.15366  0.09748  1.0000
  C   C671      1.0  0.50051  0.17084  0.08967  1.0000
  C   C672      1.0  0.48441  0.14306  0.08330  1.0000
  C   C673      1.0  0.46831  0.16322  0.10611  1.0000
  C   C674      1.0  0.49947  0.13824  0.10993  1.0000
  C   C675      1.0  0.48989  0.12095  0.11845  1.0000
  C   C676      1.0  0.51991  0.13939  0.11356  1.0000
  C   C677      1.0  0.50023  0.10567  0.12967  1.0000
  C   C678      1.0  0.53011  0.12398  0.12480  1.0000
  C   C679      1.0  0.52033  0.10715  0.13278  1.0000
  H   H799      1.0  0.49167  0.18219  0.08053  1.0000
  H   H800      1.0  0.50368  0.17995  0.09955  1.0000
  H   H801      1.0  0.51556  0.16504  0.08218  1.0000
  H   H802      1.0  0.49913  0.13506  0.07680  1.0000
  H   H803      1.0  0.47661  0.15410  0.07338  1.0000
  H   H804      1.0  0.47374  0.13127  0.08781  1.0000
  H   H805      1.0  0.47068  0.17142  0.11683  1.0000
  H   H806      1.0  0.45957  0.17471  0.09699  1.0000
  H   H807      1.0  0.45774  0.15162  0.11145  1.0000
  H   H808      1.0  0.47441  0.11891  0.11628  1.0000
  H   H809      1.0  0.52848  0.15192  0.10777  1.0000
  H   H810      1.0  0.49269  0.09244  0.13579  1.0000
  H   H811      1.0  0.54580  0.12499  0.12730  1.0000
  H   H812      1.0  0.52841  0.09521  0.14135  1.0000
  N   N47       1.0  0.47260  0.10169  0.19082  1.0000
  C   C680      1.0  0.46228  0.11141  0.20619  1.0000
  C   C681      1.0  0.45705  0.10331  0.17858  1.0000
  C   C682      1.0  0.47889  0.07925  0.19639  1.0000
  C   C683      1.0  0.49044  0.11256  0.18272  1.0000
  C   C684      1.0  0.48693  0.13331  0.17461  1.0000
  C   C685      1.0  0.51163  0.10329  0.18300  1.0000
  H   H813      1.0  0.32656  0.26470  0.07330  1.0000
  H   H814      1.0  0.34000  0.29817  0.09800  1.0000
  H   H815      1.0  0.57960  0.99300  0.13471  1.0000
  H   H816      1.0  0.47344  0.11077  0.21565  1.0000
  H   H817      1.0  0.45586  0.12798  0.20287  1.0000
  H   H818      1.0  0.44896  0.10338  0.21283  1.0000
  H   H819      1.0  0.44431  0.09380  0.18369  1.0000
  H   H820      1.0  0.46452  0.09800  0.16611  1.0000
  H   H821      1.0  0.44887  0.11932  0.17570  1.0000
  H   H822      1.0  0.48886  0.07662  0.20695  1.0000
  H   H823      1.0  0.46516  0.07110  0.20145  1.0000
  H   H824      1.0  0.48753  0.07115  0.18552  1.0000
  H   H825      1.0  0.47130  0.14162  0.17432  1.0000
  H   H826      1.0  0.51593  0.08780  0.18918  1.0000
  C   C686      1.0  0.57704  0.00860  0.12800  1.0000
  C   C687      1.0  0.34330  0.32416  0.00396  1.0000
  C   C688      1.0  0.59395  0.01948  0.12218  1.0000
  C   C689      1.0  0.63067  0.06914  0.23114  1.0000
  C   C690      1.0  0.36991  0.24080  0.01471  1.0000
  H   H827      1.0  0.43267  0.29661  0.07505  1.0000
  C   C691      1.0  0.44444  0.20905  0.99275  1.0000
  H   H828      1.0  0.51900  0.04511  0.23696  1.0000
  C   C692      1.0  0.57031  0.04892  0.11100  1.0000
  H   H829      1.0  0.41452  0.28039  0.12063  1.0000
  H   H830      1.0  0.38410  0.99705  0.22466  1.0000
  H   H831      1.0  0.60986  0.06244  0.13117  1.0000
  C   C693      1.0  0.60388  0.07226  0.09833  1.0000
  S   S185      1.0  0.62603  0.00224  0.15694  1.0000
  H   H832      1.0  0.52294  0.23306  0.01057  1.0000
  H   H833      1.0  0.54375  0.00932  0.12992  1.0000
  H   H834      1.0  0.58059  0.13434  0.10891  1.0000
  N   N48       1.0  0.41288  0.27879  0.09400  1.0000
  H   H835      1.0  0.58191  0.21807  0.01230  1.0000
  H   H836      1.0  0.53774  0.04466  0.11462  1.0000
  H   H837      1.0  0.60926  0.01165  0.12463  1.0000
  N   N49       1.0  0.60943  0.05103  0.10727  1.0000
  S   S186      1.0  0.62737  0.05901  0.16501  1.0000
  H   H838      1.0  0.64084  0.15042  0.13318  1.0000
  C   C694      1.0  0.52410  0.13407  0.16698  1.0000
  C   C695      1.0  0.62034  0.05310  0.12192  1.0000
  C   C696      1.0  0.39358  0.29405  0.09361  1.0000
  S   S187      1.0  0.45014  0.22193  0.00908  1.0000
  C   C697      1.0  0.64115  0.24292  0.11207  1.0000
  H   H839      1.0  0.43330  0.18335  0.00965  1.0000
  H   H840      1.0  0.54417  0.10635  0.17522  1.0000
  Fe  Fe92      1.0  0.62432  0.20519  0.08193  1.0000
  H   H841      1.0  0.63581  0.25948  0.11385  1.0000
  S   S188      1.0  0.40207  0.98979  0.16951  1.0000
  C   C698      1.0  0.50355  0.14380  0.16678  1.0000
  H   H842      1.0  0.34331  0.33534  0.09058  1.0000
  C   C699      1.0  0.61807  0.12948  0.13528  1.0000
  C   C700      1.0  0.56789  0.21840  0.00571  1.0000
  S   S189      1.0  0.33155  0.33832  0.05117  1.0000
  H   H843      1.0  0.41025  0.08875  0.23858  1.0000
  C   C701      1.0  0.52447  0.23545  0.99674  1.0000
  S   S190      1.0  0.63560  0.28112  0.07621  1.0000
  C   C702      1.0  0.42655  0.28153  0.07737  1.0000
  C   C703      1.0  0.62036  0.15996  0.11362  1.0000
  C   C704      1.0  0.39433  0.98821  0.21489  1.0000
  C   C705      1.0  0.52812  0.11389  0.17511  1.0000
  Fe  Fe93      1.0  0.63581  0.21958  0.04380  1.0000
  H   H844      1.0  0.33002  0.36472  0.99576  1.0000
  H   H845      1.0  0.60825  0.09333  0.22038  1.0000
  C   C706      1.0  0.35536  0.30303  0.09600  1.0000
  C   C707      1.0  0.38832  0.23217  0.00558  1.0000
  H   H846      1.0  0.62584  0.03789  0.12913  1.0000
  H   H847      1.0  0.41791  0.28073  0.06644  1.0000
  H   H848      1.0  0.65230  0.20360  0.12533  1.0000
  C   C708      1.0  0.43624  0.19031  0.99645  1.0000
  Fe  Fe94      1.0  0.59691  0.07897  0.15994  1.0000
  Fe  Fe95      1.0  0.61011  0.03160  0.16770  1.0000
  C   C709      1.0  0.39484  0.31562  0.08989  1.0000
  H   H849      1.0  0.64987  0.31842  0.08202  1.0000
  H   H850      1.0  0.55312  0.27060  0.00013  1.0000
  H   H851      1.0  0.63768  0.04727  0.08938  1.0000
  C   C710      1.0  0.55355  0.03775  0.11669  1.0000
  H   H852      1.0  0.64577  0.22771  0.14521  1.0000
  S   S191      1.0  0.63295  0.18184  0.10488  1.0000
  H   H853      1.0  0.50049  0.15956  0.16051  1.0000
  H   H854      1.0  0.59757  0.16513  0.09589  1.0000
  H   H855      1.0  0.37819  0.34666  0.08557  1.0000
  C   C711      1.0  0.62767  0.14695  0.12785  1.0000
  H   H856      1.0  0.42942  0.29762  0.10598  1.0000
  S   S192      1.0  0.65469  0.21613  0.01801  1.0000
  C   C712      1.0  0.64006  0.21067  0.00278  1.0000
  H   H857      1.0  0.54540  0.25195  0.01786  1.0000
  S   S193      1.0  0.61408  0.24940  0.04484  1.0000
  H   H858      1.0  0.42368  0.24581  0.09702  1.0000
  H   H859      1.0  0.34450  0.32371  0.01788  1.0000
  C   C713      1.0  0.61581  0.08697  0.23162  1.0000
  C   C714      1.0  0.59372  0.13780  0.11427  1.0000
  H   H860      1.0  0.52724  0.08490  0.22590  1.0000
  C   C715      1.0  0.37688  0.33031  0.08889  1.0000
  S   S194      1.0  0.58087  0.05105  0.16021  1.0000
  H   H861      1.0  0.40974  0.32129  0.08749  1.0000
  H   H862      1.0  0.59318  0.08232  0.10701  1.0000
  S   S195      1.0  0.65002  0.22242  0.06729  1.0000
  H   H863      1.0  0.62384  0.11967  0.14625  1.0000
  Fe  Fe96      1.0  0.61518  0.06006  0.19301  1.0000
  S   S196      1.0  0.60159  0.23434  0.08552  1.0000
  H   H864      1.0  0.37050  0.27217  0.09943  1.0000
  C   C716      1.0  0.60333  0.15527  0.10684  1.0000
  H   H865      1.0  0.57136  0.20568  0.99742  1.0000
  H   H866      1.0  0.61630  0.03599  0.08435  1.0000
  H   H867      1.0  0.63230  0.99358  0.19366  1.0000
  H   H868      1.0  0.36929  0.24195  0.02833  1.0000
  C   C717      1.0  0.62423  0.03897  0.09507  1.0000
  H   H869      1.0  0.60867  0.17658  0.99653  1.0000
  C   C718      1.0  0.35719  0.32400  0.09185  1.0000
  H   H870      1.0  0.63103  0.02367  0.10139  1.0000
  H   H871      1.0  0.58344  0.99735  0.17161  1.0000
  C   C719      1.0  0.55688  0.01773  0.12528  1.0000
  H   H872      1.0  0.43432  0.99080  0.22335  1.0000
  H   H873      1.0  0.53699  0.14215  0.16083  1.0000
  H   H874      1.0  0.57184  0.25603  0.01356  1.0000
  H   H875      1.0  0.40653  0.99779  0.20854  1.0000
  C   C720      1.0  0.32813  0.29680  0.06317  1.0000
  H   H876      1.0  0.55580  0.03327  0.23535  1.0000
  H   H877      1.0  0.52758  0.01790  0.23538  1.0000
  H   H878      1.0  0.64319  0.24221  0.09801  1.0000
  H   H879      1.0  0.61789  0.08027  0.09410  1.0000
  H   H880      1.0  0.63432  0.06114  0.11771  1.0000
  N   N50       1.0  0.56251  0.23879  0.99545  1.0000
  C   C721      1.0  0.61783  0.18925  0.99364  1.0000
  C   C722      1.0  0.63365  0.99619  0.22855  1.0000
  C   C723      1.0  0.53102  0.08832  0.23797  1.0000
  H   H881      1.0  0.56406  0.07964  0.23139  1.0000
  H   H882      1.0  0.59505  0.24305  0.99015  1.0000
  H   H883      1.0  0.52597  0.18637  0.99063  1.0000
  C   C724      1.0  0.65780  0.23697  0.13788  1.0000
  Fe  Fe97      1.0  0.62317  0.07790  0.30305  1.0000
  S   S197      1.0  0.60621  0.08169  0.32948  1.0000
  S   S198      1.0  0.61460  0.10053  0.28013  1.0000
  H   H884      1.0  0.34703  0.09226  0.29133  1.0000
  S   S199      1.0  0.62796  0.03444  0.34110  1.0000
  H   H885      1.0  0.52185  0.00153  0.28251  1.0000
  Fe  Fe98      1.0  0.59912  0.04941  0.32949  1.0000
  S   S200      1.0  0.56885  0.03576  0.33381  1.0000
  Fe  Fe99      1.0  0.63706  0.06638  0.33858  1.0000
  S   S201      1.0  0.61429  0.04668  0.30267  1.0000
  Fe  Fe100     1.0  0.45859  0.07690  0.32565  1.0000
  S   S202      1.0  0.46637  0.06666  0.29945  1.0000
  S   S203      1.0  0.48203  0.09446  0.33316  1.0000
  Fe  Fe101     1.0  0.42043  0.05413  0.33521  1.0000
  S   S204      1.0  0.42610  0.04143  0.30984  1.0000
  S   S205      1.0  0.39490  0.04163  0.35495  1.0000
  Fe  Fe102     1.0  0.46004  0.03579  0.31321  1.0000
  C   C725      1.0  0.39560  0.00346  0.29811  1.0000
  Fe  Fe103     1.0  0.43191  0.07336  0.29834  1.0000
  S   S206      1.0  0.41860  0.08654  0.27370  1.0000
  S   S207      1.0  0.45419  0.04542  0.33963  1.0000
  S   S208      1.0  0.42423  0.08686  0.32348  1.0000
  C   C726      1.0  0.36963  0.05413  0.36201  1.0000
  C   C727      1.0  0.35542  0.04224  0.37240  1.0000
  C   C728      1.0  0.36349  0.07542  0.35783  1.0000
  H   H886      1.0  0.36008  0.02578  0.37573  1.0000
  H   H887      1.0  0.37441  0.08486  0.35016  1.0000
  C   C729      1.0  0.37025  0.05350  0.41656  1.0000
  H   H888      1.0  0.50644  0.03726  0.28511  1.0000
  C   C730      1.0  0.44710  0.99140  0.32402  1.0000
  C   C731      1.0  0.62115  0.08877  0.26114  1.0000
  C   C732      1.0  0.54508  0.05263  0.33384  1.0000
  C   C733      1.0  0.52793  0.04566  0.32899  1.0000
  C   C734      1.0  0.50867  0.05845  0.32890  1.0000
  C   C735      1.0  0.50617  0.07825  0.33398  1.0000
  C   C736      1.0  0.52329  0.08531  0.33892  1.0000
  C   C737      1.0  0.54282  0.07258  0.33869  1.0000
  H   H889      1.0  0.52942  0.03037  0.32522  1.0000
  H   H890      1.0  0.49572  0.05286  0.32496  1.0000
  H   H891      1.0  0.52145  0.10062  0.34290  1.0000
  H   H892      1.0  0.55596  0.07800  0.34261  1.0000
  C   C738      1.0  0.42168  0.07524  0.24123  1.0000
  H   H893      1.0  0.53114  0.99471  0.31411  1.0000
  C   C739      1.0  0.53433  0.98810  0.34743  1.0000
  C   C740      1.0  0.54730  0.98911  0.31722  1.0000
  C   C741      1.0  0.36074  0.08905  0.40416  1.0000
  C   C742      1.0  0.32926  0.07283  0.37469  1.0000
  H   H894      1.0  0.56539  0.12460  0.29219  1.0000
  N   N51       1.0  0.52208  0.02620  0.26131  1.0000
  C   C743      1.0  0.55993  0.12031  0.28068  1.0000
  H   H895      1.0  0.50803  0.05680  0.26685  1.0000
  H   H896      1.0  0.33292  0.05330  0.31339  1.0000
  H   H897      1.0  0.35064  0.05347  0.44991  1.0000
  C   C744      1.0  0.37641  0.07547  0.31266  1.0000
  H   H898      1.0  0.53164  0.99329  0.26182  1.0000
  H   H899      1.0  0.49908  0.09806  0.24796  1.0000
  C   C745      1.0  0.50604  0.04031  0.27099  1.0000
  H   H900      1.0  0.48987  0.03842  0.26924  1.0000
  C   C746      1.0  0.35582  0.07212  0.41663  1.0000
  H   H901      1.0  0.62388  0.99841  0.27170  1.0000
  H   H902      1.0  0.55090  0.13437  0.27430  1.0000
  C   C747      1.0  0.35690  0.07726  0.28896  1.0000
  H   H903      1.0  0.44456  0.00496  0.33069  1.0000
  H   H904      1.0  0.51818  0.99357  0.34427  1.0000
  H   H905      1.0  0.53882  0.02786  0.29090  1.0000
  C   C748      1.0  0.61148  0.09709  0.24648  1.0000
  C   C749      1.0  0.52919  0.10985  0.29784  1.0000
  C   C750      1.0  0.44306  0.05302  0.26093  1.0000
  C   C751      1.0  0.39271  0.06878  0.39267  1.0000
  H   H906      1.0  0.55510  0.00307  0.31681  1.0000
  H   H907      1.0  0.45126  0.99504  0.24766  1.0000
  N   N52       1.0  0.36245  0.06461  0.30521  1.0000
  H   H908      1.0  0.44819  0.04916  0.27349  1.0000
  C   C752      1.0  0.42841  0.07055  0.25754  1.0000
  H   H909      1.0  0.36866  0.09101  0.31591  1.0000
  H   H910      1.0  0.38231  0.10027  0.38286  1.0000
  C   C753      1.0  0.54127  0.09741  0.26945  1.0000
  C   C754      1.0  0.37338  0.04355  0.30251  1.0000
  C   C755      1.0  0.54950  0.03046  0.27929  1.0000
  C   C756      1.0  0.37903  0.08734  0.39250  1.0000
  C   C757      1.0  0.54337  0.03026  0.26285  1.0000
  H   H911      1.0  0.57388  0.03401  0.29384  1.0000
  H   H912      1.0  0.40424  0.98819  0.29663  1.0000
  C   C758      1.0  0.39580  0.01928  0.28437  1.0000
  H   H913      1.0  0.50401  0.00081  0.26778  1.0000
  H   H914      1.0  0.36733  0.02966  0.32930  1.0000
  C   C759      1.0  0.38831  0.05188  0.40465  1.0000
  H   H915      1.0  0.53425  0.11342  0.30977  1.0000
  H   H916      1.0  0.54096  0.00227  0.34890  1.0000
  H   H917      1.0  0.51895  0.09757  0.30187  1.0000
  C   C760      1.0  0.45112  0.04034  0.24809  1.0000
  H   H918      1.0  0.51960  0.12428  0.29261  1.0000
  N   N53       1.0  0.54731  0.10303  0.28529  1.0000
  C   C761      1.0  0.58417  0.03727  0.26668  1.0000
  C   C762      1.0  0.56006  0.08501  0.29414  1.0000
  C   C763      1.0  0.34338  0.08470  0.36413  1.0000
  C   C764      1.0  0.38500  0.03910  0.28649  1.0000
  H   H919      1.0  0.36749  0.03992  0.42552  1.0000
  C   C765      1.0  0.55880  0.03333  0.24839  1.0000
  H   H920      1.0  0.63256  0.02043  0.24431  1.0000
  C   C766      1.0  0.64848  0.98512  0.31603  1.0000
  Fe  Fe104     1.0  0.64366  0.03427  0.31406  1.0000
  H   H921      1.0  0.33886  0.10123  0.36107  1.0000
  C   C767      1.0  0.55683  0.08962  0.25659  1.0000
  H   H922      1.0  0.37095  0.08175  0.28032  1.0000
  H   H923      1.0  0.55141  0.07143  0.29742  1.0000
  H   H924      1.0  0.56438  0.08864  0.30634  1.0000
  H   H925      1.0  0.57522  0.08017  0.28639  1.0000
  H   H926      1.0  0.40646  0.06728  0.38318  1.0000
  H   H927      1.0  0.57511  0.98763  0.33904  1.0000
  C   C768      1.0  0.63576  0.07080  0.26066  1.0000
  C   C769      1.0  0.33531  0.05150  0.37867  1.0000
  H   H928      1.0  0.39074  0.07778  0.30359  1.0000
  H   H929      1.0  0.57428  0.11619  0.27176  1.0000
  H   H930      1.0  0.50721  0.10593  0.27493  1.0000
  C   C770      1.0  0.51526  0.09573  0.25037  1.0000
  S   S209      1.0  0.48111  0.00689  0.30619  1.0000
  H   H931      1.0  0.39881  0.03735  0.40444  1.0000
  H   H932      1.0  0.35053  0.10366  0.40285  1.0000
  C   C771      1.0  0.37422  0.02722  0.31637  1.0000
  C   C772      1.0  0.56959  0.03390  0.28112  1.0000
  C   C773      1.0  0.52019  0.10020  0.26592  1.0000
  N   N54       1.0  0.33656  0.07323  0.42914  1.0000
  C   C774      1.0  0.57884  0.03685  0.25038  1.0000
  H   H933      1.0  0.57313  0.08700  0.25840  1.0000
  C   C775      1.0  0.51987  0.00451  0.26863  1.0000
  C   C776      1.0  0.63067  0.00440  0.24418  1.0000
  C   C777      1.0  0.38489  0.00745  0.31406  1.0000
  C   C778      1.0  0.34278  0.06369  0.31728  1.0000
  H   H934      1.0  0.40482  0.01634  0.27213  1.0000
  H   H935      1.0  0.59968  0.04018  0.26810  1.0000
  C   C779      1.0  0.34210  0.06932  0.44693  1.0000
  H   H936      1.0  0.50099  0.02672  0.24249  1.0000
  H   H937      1.0  0.33109  0.10646  0.42937  1.0000
  H   H938      1.0  0.34570  0.05821  0.33078  1.0000
  C   C780      1.0  0.62565  0.99204  0.25959  1.0000
  S   S210      1.0  0.65453  0.06530  0.31192  1.0000
  H   H939      1.0  0.64364  0.06453  0.27177  1.0000
  C   C781      1.0  0.64083  0.06130  0.24559  1.0000
  H   H940      1.0  0.64888  0.99413  0.34102  1.0000
  H   H941      1.0  0.35212  0.08064  0.44907  1.0000
  H   H942      1.0  0.46252  0.02689  0.25087  1.0000
  C   C782      1.0  0.55176  0.08532  0.24107  1.0000
  H   H943      1.0  0.38168  0.06633  0.32454  1.0000
  H   H944      1.0  0.60054  0.11126  0.24663  1.0000
  C   C783      1.0  0.43927  0.98503  0.24960  1.0000
  H   H945      1.0  0.38657  0.05087  0.27556  1.0000
  H   H946      1.0  0.38540  0.99524  0.32484  1.0000
  S   S211      1.0  0.65010  0.07408  0.36170  1.0000
  H   H947      1.0  0.33225  0.04116  0.42935  1.0000
  H   H948      1.0  0.32791  0.07057  0.45666  1.0000
  H   H949      1.0  0.33325  0.07926  0.31795  1.0000
  H   H950      1.0  0.34818  0.06877  0.28189  1.0000
  C   C784      1.0  0.51730  0.02913  0.24328  1.0000
  C   C785      1.0  0.46485  0.98769  0.31211  1.0000
  H   H951      1.0  0.65276  0.04786  0.24514  1.0000
  H   H952      1.0  0.32837  0.00288  0.38397  1.0000
  H   H953      1.0  0.32456  0.04215  0.38663  1.0000
  C   C786      1.0  0.32450  0.98776  0.38288  1.0000
  Fe  Fe105     1.0  0.44367  0.00627  0.66098  1.0000
  S   S212      1.0  0.44838  0.03529  0.64319  1.0000
  H   H954      1.0  0.44338  0.06322  0.72119  1.0000
  Fe  Fe106     1.0  0.41405  0.02885  0.68737  1.0000
  S   S213      1.0  0.41574  0.06008  0.67183  1.0000
  S   S214      1.0  0.39843  0.01878  0.71376  1.0000
  Fe  Fe107     1.0  0.41322  0.04371  0.64907  1.0000
  S   S215      1.0  0.39547  0.05690  0.62607  1.0000
  Fe  Fe108     1.0  0.45042  0.04902  0.66716  1.0000
  S   S216      1.0  0.47473  0.06654  0.67389  1.0000
  S   S217      1.0  0.40870  0.01344  0.66531  1.0000
  S   S218      1.0  0.44854  0.01909  0.68431  1.0000
  Fe  Fe109     1.0  0.63923  0.05986  0.66376  1.0000
  S   S219      1.0  0.63569  0.04496  0.69137  1.0000
  Fe  Fe110     1.0  0.59502  0.05327  0.65916  1.0000
  S   S220      1.0  0.58871  0.03782  0.68598  1.0000
  S   S221      1.0  0.57004  0.05453  0.64194  1.0000
  Fe  Fe111     1.0  0.60348  0.06300  0.69350  1.0000
  S   S222      1.0  0.58508  0.07654  0.71674  1.0000
  Fe  Fe112     1.0  0.62121  0.02143  0.68135  1.0000
  C   C787      1.0  0.56356  0.11868  0.68864  1.0000
  S   S223      1.0  0.60772  0.08007  0.66672  1.0000
  S   S224      1.0  0.62690  0.03479  0.65369  1.0000
  C   C788      1.0  0.54896  0.11103  0.65824  1.0000
  H   H955      1.0  0.32949  0.00605  0.61281  1.0000
  C   C789      1.0  0.35748  0.00955  0.58368  1.0000
  H   H956      1.0  0.49655  0.03150  0.71005  1.0000
  H   H957      1.0  0.54077  0.10142  0.71527  1.0000
  H   H958      1.0  0.46422  0.04921  0.70887  1.0000
  C   C790      1.0  0.50649  0.11202  0.65620  1.0000
  H   H959      1.0  0.59220  0.98684  0.63999  1.0000
  H   H960      1.0  0.62943  0.06948  0.71988  1.0000
  H   H961      1.0  0.53185  0.15081  0.68554  1.0000
  N   N55       1.0  0.35191  0.99033  0.59443  1.0000
  H   H962      1.0  0.42707  0.99218  0.63714  1.0000
  C   C791      1.0  0.37038  0.05352  0.62157  1.0000
  C   C792      1.0  0.33043  0.99470  0.60349  1.0000
  C   C793      1.0  0.35653  0.04303  0.63357  1.0000
  H   H963      1.0  0.32589  0.03350  0.63911  1.0000
  H   H964      1.0  0.36109  0.03654  0.64603  1.0000
  C   C794      1.0  0.40072  0.03375  0.72983  1.0000
  C   C795      1.0  0.40040  0.05523  0.72620  1.0000
  H   H965      1.0  0.37295  0.00653  0.57576  1.0000
  C   C796      1.0  0.62082  0.07217  0.73225  1.0000
  H   H966      1.0  0.54091  0.01014  0.64250  1.0000
  H   H967      1.0  0.39912  0.06278  0.71325  1.0000
  H   H968      1.0  0.50099  0.11735  0.68233  1.0000
  H   H969      1.0  0.60283  0.00337  0.66250  1.0000
  C   C797      1.0  0.50124  0.06063  0.66552  1.0000
  C   C798      1.0  0.50712  0.05487  0.64901  1.0000
  C   C799      1.0  0.52831  0.05278  0.64194  1.0000
  C   C800      1.0  0.54378  0.05571  0.65155  1.0000
  C   C801      1.0  0.53793  0.06061  0.66832  1.0000
  C   C802      1.0  0.51671  0.06345  0.67514  1.0000
  H   H970      1.0  0.49525  0.05309  0.64137  1.0000
  H   H971      1.0  0.53270  0.04926  0.62886  1.0000
  H   H972      1.0  0.54967  0.06331  0.67566  1.0000
  H   H973      1.0  0.51218  0.06855  0.68767  1.0000
  H   H974      1.0  0.51831  0.01319  0.67801  1.0000
  C   C803      1.0  0.53439  0.11495  0.67303  1.0000
  C   C804      1.0  0.60802  0.98709  0.66185  1.0000
  C   C805      1.0  0.59902  0.07653  0.73413  1.0000
  H   H975      1.0  0.62835  0.01862  0.72781  1.0000
  C   C806      1.0  0.49367  0.05109  0.73052  1.0000
  N   N56       1.0  0.54084  0.11776  0.68959  1.0000
  H   H976      1.0  0.51241  0.13707  0.69872  1.0000
  H   H977      1.0  0.56563  0.10983  0.65817  1.0000
  H   H978      1.0  0.60269  0.03156  0.73273  1.0000
  H   H979      1.0  0.37965  0.98526  0.70610  1.0000
  C   C807      1.0  0.33655  0.04137  0.62959  1.0000
  C   C808      1.0  0.50474  0.03923  0.71758  1.0000
  C   C809      1.0  0.33023  0.04987  0.61350  1.0000
  C   C810      1.0  0.52115  0.10821  0.64199  1.0000
  H   H980      1.0  0.51617  0.10491  0.63034  1.0000
  C   C811      1.0  0.61243  0.01609  0.73421  1.0000
  H   H981      1.0  0.35847  0.02184  0.59167  1.0000
  H   H982      1.0  0.34579  0.01637  0.57482  1.0000
  H   H983      1.0  0.55373  0.10394  0.63210  1.0000
  H   H984      1.0  0.32897  0.99093  0.56798  1.0000
  H   H985      1.0  0.50705  0.01668  0.63069  1.0000
  C   C812      1.0  0.53437  0.99741  0.63906  1.0000
  H   H986      1.0  0.53457  0.02870  0.70367  1.0000
  C   C813      1.0  0.36407  0.06197  0.60546  1.0000
  C   C814      1.0  0.52653  0.03737  0.71391  1.0000
  H   H987      1.0  0.46609  0.07518  0.71217  1.0000
  C   C815      1.0  0.51294  0.11528  0.67152  1.0000
  C   C816      1.0  0.50709  0.98460  0.62775  1.0000
  C   C817      1.0  0.54231  0.10775  0.64300  1.0000
  H   H988      1.0  0.53495  0.14051  0.70748  1.0000
  H   H989      1.0  0.57306  0.10378  0.68556  1.0000
  C   C818      1.0  0.52761  0.05879  0.73586  1.0000
  H   H990      1.0  0.55481  0.04572  0.72012  1.0000
  C   C819      1.0  0.46074  0.06038  0.71851  1.0000
  H   H991      1.0  0.36543  0.99761  0.61578  1.0000
  H   H992      1.0  0.37462  0.07018  0.59609  1.0000
  H   H993      1.0  0.54948  0.99658  0.69048  1.0000
  C   C820      1.0  0.52950  0.13736  0.69556  1.0000
  C   C821      1.0  0.34416  0.06012  0.60141  1.0000
  H   H994      1.0  0.46954  0.02063  0.73109  1.0000
  H   H995      1.0  0.54413  0.08516  0.69857  1.0000
  H   H996      1.0  0.56793  0.12115  0.70119  1.0000
  H   H997      1.0  0.49010  0.11153  0.65555  1.0000
  C   C822      1.0  0.53581  0.10013  0.70265  1.0000
  H   H998      1.0  0.51884  0.09895  0.70489  1.0000
  H   H999      1.0  0.33956  0.06686  0.58901  1.0000
  C   C823      1.0  0.53794  0.04708  0.72305  1.0000
  H   H1000     1.0  0.39990  0.08378  0.73675  1.0000
  H   H1001     1.0  0.56857  0.13147  0.67890  1.0000
  C   C824      1.0  0.51541  0.00104  0.63233  1.0000
  N   N57       1.0  0.47061  0.05252  0.73435  1.0000
  H   H1002     1.0  0.65254  0.00855  0.62659  1.0000
  S   S225      1.0  0.62710  0.98743  0.69011  1.0000
  H   H1003     1.0  0.49234  0.99243  0.67230  1.0000
  H   H1004     1.0  0.60651  0.00574  0.72668  1.0000
  C   C825      1.0  0.50599  0.98482  0.67823  1.0000
  C   C826      1.0  0.52063  0.99647  0.68152  1.0000
  H   H1005     1.0  0.49216  0.98848  0.62292  1.0000
  C   C827      1.0  0.40074  0.06709  0.73951  1.0000
  C   C828      1.0  0.36640  0.98486  0.60769  1.0000
  C   C829      1.0  0.53853  0.98665  0.68875  1.0000
  C   C830      1.0  0.50582  0.06088  0.73957  1.0000
  Fe  Fe113     1.0  0.42221  0.05556  0.79290  1.0000
  S   S226      1.0  0.41150  0.04052  0.81940  1.0000
  S   S227      1.0  0.40268  0.07243  0.77284  1.0000
  Fe  Fe114     1.0  0.46753  0.04736  0.79809  1.0000
  S   S228      1.0  0.46075  0.03222  0.82502  1.0000
  S   S229      1.0  0.49989  0.04973  0.78481  1.0000
  Fe  Fe115     1.0  0.43910  0.01573  0.81410  1.0000
  C   C831      1.0  0.62226  0.15346  0.88286  1.0000
  Fe  Fe116     1.0  0.43426  0.05844  0.82782  1.0000
  S   S230      1.0  0.42672  0.07407  0.85239  1.0000
  S   S231      1.0  0.44764  0.02962  0.78696  1.0000
  S   S232      1.0  0.44304  0.07486  0.80155  1.0000
  Fe  Fe117     1.0  0.61520  0.07458  0.80612  1.0000
  S   S233      1.0  0.62898  0.05910  0.82987  1.0000
  S   S234      1.0  0.63460  0.07239  0.78031  1.0000
  Fe  Fe118     1.0  0.57378  0.08820  0.82588  1.0000
  S   S235      1.0  0.58360  0.07369  0.85125  1.0000
  S   S236      1.0  0.54082  0.10408  0.82562  1.0000
  Fe  Fe119     1.0  0.61307  0.08744  0.84195  1.0000
  S   S237      1.0  0.62798  0.09954  0.86191  1.0000
  Fe  Fe120     1.0  0.59854  0.04663  0.83737  1.0000
  S   S238      1.0  0.59493  0.01433  0.85062  1.0000
  S   S239      1.0  0.60206  0.10420  0.81740  1.0000
  S   S240      1.0  0.58600  0.05981  0.81276  1.0000
  Fe  Fe121     1.0  0.40691  0.22703  0.89967  1.0000
  S   S241      1.0  0.40447  0.19295  0.90692  1.0000
  S   S242      1.0  0.37430  0.24586  0.90402  1.0000
  Fe  Fe122     1.0  0.45493  0.21784  0.89321  1.0000
  S   S243      1.0  0.45522  0.18361  0.90074  1.0000
  S   S244      1.0  0.48771  0.22405  0.88241  1.0000
  Fe  Fe123     1.0  0.42919  0.18660  0.88460  1.0000
  S   S245      1.0  0.43170  0.16808  0.86178  1.0000
  Fe  Fe124     1.0  0.43078  0.19305  0.92222  1.0000
  S   S246      1.0  0.43034  0.17655  0.94929  1.0000
  S   S247      1.0  0.42972  0.22076  0.87607  1.0000
  S   S248      1.0  0.43234  0.22711  0.91609  1.0000
  S   S249      1.0  0.60807  0.24676  0.93196  1.0000
  S   S250      1.0  0.60707  0.24483  0.89088  1.0000
  Fe  Fe125     1.0  0.58378  0.24569  0.91470  1.0000
  S   S251      1.0  0.55106  0.26328  0.91746  1.0000
  S   S252      1.0  0.58452  0.21137  0.91951  1.0000
  H   H1006     1.0  0.40421  0.02829  0.77282  1.0000
  C   C832      1.0  0.60618  0.16138  0.85666  1.0000
  H   H1007     1.0  0.38005  0.14334  0.81708  1.0000
  H   H1008     1.0  0.35638  0.08340  0.84662  1.0000
  H   H1009     1.0  0.64428  0.99168  0.74638  1.0000
  C   C833      1.0  0.36385  0.27252  0.90003  1.0000
  C   C834      1.0  0.37578  0.28750  0.89119  1.0000
  C   C835      1.0  0.36637  0.30829  0.88771  1.0000
  C   C836      1.0  0.34502  0.31433  0.89305  1.0000
  C   C837      1.0  0.54132  0.00845  0.84619  1.0000
  C   C838      1.0  0.34253  0.27862  0.90547  1.0000
  H   H1010     1.0  0.39215  0.28306  0.88683  1.0000
  H   H1011     1.0  0.37569  0.31973  0.88074  1.0000
  H   H1012     1.0  0.37373  0.09930  0.86350  1.0000
  H   H1013     1.0  0.35253  0.26090  0.86967  1.0000
  C   C839      1.0  0.43571  0.18934  0.96586  1.0000
  C   C840      1.0  0.44361  0.20823  0.96221  1.0000
  C   C841      1.0  0.44819  0.21792  0.97559  1.0000
  H   H1014     1.0  0.47269  0.02477  0.75241  1.0000
  S   S253      1.0  0.60777  0.19260  0.96099  1.0000
  H   H1015     1.0  0.44403  0.06739  0.75001  1.0000
  H   H1016     1.0  0.44638  0.21528  0.94909  1.0000
  H   H1017     1.0  0.45434  0.23252  0.97269  1.0000
  C   C842      1.0  0.33417  0.28867  0.85884  1.0000
  H   H1018     1.0  0.54121  0.02821  0.76707  1.0000
  C   C843      1.0  0.50466  0.23543  0.89246  1.0000
  C   C844      1.0  0.52626  0.23064  0.88777  1.0000
  C   C845      1.0  0.54048  0.23891  0.89557  1.0000
  C   C846      1.0  0.53322  0.25268  0.90771  1.0000
  C   C847      1.0  0.51157  0.25792  0.91214  1.0000
  C   C848      1.0  0.49729  0.24914  0.90467  1.0000
  H   H1019     1.0  0.53210  0.22050  0.87803  1.0000
  H   H1020     1.0  0.55709  0.23501  0.89183  1.0000
  H   H1021     1.0  0.50585  0.26875  0.92139  1.0000
  H   H1022     1.0  0.48065  0.25326  0.90812  1.0000
  C   C849      1.0  0.62144  0.12592  0.86536  1.0000
  H   H1023     1.0  0.44774  0.03213  0.74453  1.0000
  C   C850      1.0  0.62722  0.13253  0.87985  1.0000
  H   H1024     1.0  0.63540  0.02577  0.75650  1.0000
  H   H1025     1.0  0.63549  0.12139  0.88883  1.0000
  C   C851      1.0  0.42972  0.09989  0.85487  1.0000
  C   C852      1.0  0.43461  0.11451  0.84078  1.0000
  C   C853      1.0  0.43538  0.13518  0.84323  1.0000
  C   C854      1.0  0.43157  0.14148  0.85977  1.0000
  C   C855      1.0  0.42734  0.12673  0.87393  1.0000
  C   C856      1.0  0.42629  0.10609  0.87145  1.0000
  H   H1026     1.0  0.43756  0.11002  0.82797  1.0000
  H   H1027     1.0  0.43875  0.14642  0.83219  1.0000
  H   H1028     1.0  0.42441  0.13129  0.88673  1.0000
  H   H1029     1.0  0.42255  0.09492  0.88246  1.0000
  C   C857      1.0  0.51052  0.06670  0.79496  1.0000
  C   C858      1.0  0.53092  0.07082  0.78944  1.0000
  C   C859      1.0  0.53995  0.08313  0.79845  1.0000
  C   C860      1.0  0.52865  0.09120  0.81300  1.0000
  C   C861      1.0  0.50800  0.08771  0.81812  1.0000
  C   C862      1.0  0.49897  0.07536  0.80916  1.0000
  H   H1030     1.0  0.53986  0.06431  0.77839  1.0000
  H   H1031     1.0  0.55567  0.08645  0.79415  1.0000
  H   H1032     1.0  0.49922  0.09393  0.82938  1.0000
  H   H1033     1.0  0.48327  0.07213  0.81359  1.0000
  C   C863      1.0  0.33420  0.34125  0.95091  1.0000
  H   H1034     1.0  0.40225  0.00749  0.74954  1.0000
  C   C864      1.0  0.38914  0.23034  0.98814  1.0000
  C   C865      1.0  0.60030  0.99399  0.83768  1.0000
  H   H1035     1.0  0.54863  0.17869  0.92914  1.0000
  C   C866      1.0  0.63001  0.04238  0.87425  1.0000
  H   H1036     1.0  0.35831  0.12408  0.80843  1.0000
  H   H1037     1.0  0.37908  0.21055  0.94439  1.0000
  C   C867      1.0  0.62867  0.98810  0.75276  1.0000
  H   H1038     1.0  0.57624  0.03457  0.75390  1.0000
  C   C868      1.0  0.35149  0.27312  0.85890  1.0000
  C   C869      1.0  0.38991  0.24620  0.95081  1.0000
  H   H1039     1.0  0.34923  0.31664  0.82047  1.0000
  H   H1040     1.0  0.53073  0.00072  0.85656  1.0000
  C   C870      1.0  0.65448  0.99013  0.83908  1.0000
  H   H1041     1.0  0.65578  0.25575  0.95796  1.0000
  N   N58       1.0  0.50282  0.16062  0.85355  1.0000
  C   C871      1.0  0.50874  0.15903  0.83494  1.0000
  C   C872      1.0  0.49004  0.14403  0.86109  1.0000
  C   C873      1.0  0.48931  0.18087  0.85522  1.0000
  C   C874      1.0  0.52197  0.15806  0.86206  1.0000
  C   C875      1.0  0.53614  0.13927  0.86199  1.0000
  C   C876      1.0  0.52746  0.17402  0.87017  1.0000
  C   C877      1.0  0.55446  0.13651  0.86972  1.0000
  C   C878      1.0  0.54589  0.17110  0.87780  1.0000
  C   C879      1.0  0.55923  0.15234  0.87771  1.0000
  H   H1042     1.0  0.51726  0.14347  0.83250  1.0000
  H   H1043     1.0  0.49477  0.16152  0.82798  1.0000
  H   H1044     1.0  0.51911  0.17066  0.82890  1.0000
  H   H1045     1.0  0.47524  0.14587  0.85528  1.0000
  H   H1046     1.0  0.49738  0.19418  0.84890  1.0000
  H   H1047     1.0  0.47470  0.18205  0.84921  1.0000
  H   H1048     1.0  0.48423  0.18310  0.86891  1.0000
  H   H1049     1.0  0.53334  0.12663  0.85571  1.0000
  H   H1050     1.0  0.51795  0.18901  0.87057  1.0000
  H   H1051     1.0  0.56522  0.12214  0.86922  1.0000
  H   H1052     1.0  0.57355  0.15020  0.88353  1.0000
  H   H1053     1.0  0.65675  0.32428  0.91961  1.0000
  H   H1054     1.0  0.63505  0.98704  0.86276  1.0000
  H   H1055     1.0  0.55680  0.99866  0.84569  1.0000
  C   C880      1.0  0.37517  0.11450  0.85658  1.0000
  H   H1056     1.0  0.55841  0.24343  0.95988  1.0000
  C   C881      1.0  0.53026  0.99141  0.82460  1.0000
  H   H1057     1.0  0.60886  0.03675  0.76176  1.0000
  Fe  Fe126     1.0  0.61025  0.21206  0.93511  1.0000
  H   H1058     1.0  0.63411  0.24766  0.85611  1.0000
  H   H1059     1.0  0.38441  0.07554  0.84448  1.0000
  S   S254      1.0  0.33375  0.34056  0.88793  1.0000
  H   H1060     1.0  0.64278  0.29261  0.91541  1.0000
  H   H1061     1.0  0.40368  0.22329  0.98172  1.0000
  C   C882      1.0  0.63163  0.07156  0.74640  1.0000
  C   C883      1.0  0.35620  0.10980  0.81749  1.0000
  H   H1062     1.0  0.51542  0.04132  0.83512  1.0000
  H   H1063     1.0  0.49893  0.07006  0.74975  1.0000
  S   S255      1.0  0.63551  0.20755  0.91289  1.0000
  H   H1064     1.0  0.50131  0.01977  0.84168  1.0000
  C   C884      1.0  0.33518  0.34174  0.96837  1.0000
  C   C885      1.0  0.55416  0.01560  0.76746  1.0000
  H   H1065     1.0  0.38415  0.16956  0.83475  1.0000
  H   H1066     1.0  0.57120  0.08396  0.75174  1.0000
  H   H1067     1.0  0.62281  0.04856  0.88643  1.0000
  H   H1068     1.0  0.55015  0.18360  0.88351  1.0000
  Fe  Fe127     1.0  0.60930  0.21011  0.89688  1.0000
  H   H1069     1.0  0.46471  0.08265  0.74328  1.0000
  H   H1070     1.0  0.33872  0.25171  0.98326  1.0000
  C   C886      1.0  0.51545  0.18652  0.96608  1.0000
  H   H1071     1.0  0.39627  0.11364  0.80624  1.0000
  N   N59       1.0  0.50467  0.18749  0.93674  1.0000
  C   C887      1.0  0.49367  0.20902  0.93651  1.0000
  C   C888      1.0  0.51299  0.18427  0.91868  1.0000
  C   C889      1.0  0.48932  0.17287  0.94301  1.0000
  C   C890      1.0  0.52103  0.18446  0.94833  1.0000
  H   H1072     1.0  0.64730  0.20307  0.87274  1.0000
  H   H1073     1.0  0.63340  0.22470  0.96057  1.0000
  C   C891      1.0  0.36778  0.27348  0.84546  1.0000
  C   C892      1.0  0.61961  0.02187  0.76201  1.0000
  H   H1074     1.0  0.65087  0.23431  0.98361  1.0000
  H   H1075     1.0  0.50498  0.22035  0.93277  1.0000
  H   H1076     1.0  0.48192  0.21248  0.92725  1.0000
  H   H1077     1.0  0.48522  0.21212  0.94927  1.0000
  H   H1078     1.0  0.52381  0.19557  0.91284  1.0000
  H   H1079     1.0  0.50029  0.18673  0.91031  1.0000
  H   H1080     1.0  0.52126  0.16823  0.91781  1.0000
  H   H1081     1.0  0.48072  0.17554  0.95586  1.0000
  H   H1082     1.0  0.47706  0.17443  0.93433  1.0000
  H   H1083     1.0  0.49712  0.15649  0.94402  1.0000
  H   H1084     1.0  0.58603  0.23108  0.97441  1.0000
  H   H1085     1.0  0.37721  0.12622  0.88022  1.0000
  C   C893      1.0  0.35347  0.24356  0.95305  1.0000
  C   C894      1.0  0.40323  0.03585  0.75984  1.0000
  N   N60       1.0  0.53280  0.01168  0.82951  1.0000
  C   C895      1.0  0.37092  0.08227  0.83734  1.0000
  C   C896      1.0  0.60693  0.99780  0.82009  1.0000
  H   H1086     1.0  0.54180  0.02432  0.80342  1.0000
  C   C897      1.0  0.40213  0.02409  0.74666  1.0000
  H   H1087     1.0  0.50612  0.02996  0.81920  1.0000
  H   H1088     1.0  0.34022  0.23532  0.95934  1.0000
  S   S256      1.0  0.60534  0.19451  0.87406  1.0000
  H   H1089     1.0  0.49927  0.18999  0.97151  1.0000
  C   C898      1.0  0.62071  0.07514  0.76253  1.0000
  H   H1090     1.0  0.39066  0.24590  0.93671  1.0000
  C   C899      1.0  0.38115  0.15428  0.84081  1.0000
  H   H1091     1.0  0.65215  0.16326  0.83061  1.0000
  H   H1092     1.0  0.39329  0.20556  0.96237  1.0000
  H   H1093     1.0  0.63954  0.05416  0.86704  1.0000
  C   C900      1.0  0.40215  0.05741  0.75634  1.0000
  C   C901      1.0  0.37891  0.13909  0.83083  1.0000
  C   C902      1.0  0.54439  0.24123  0.96864  1.0000
  C   C903      1.0  0.63187  0.21628  0.97334  1.0000
  H   H1094     1.0  0.52700  0.24400  0.94718  1.0000
  H   H1095     1.0  0.64851  0.06811  0.74489  1.0000
  C   C904      1.0  0.54274  0.18026  0.94241  1.0000
  C   C905      1.0  0.46136  0.06651  0.74748  1.0000
  H   H1096     1.0  0.57862  0.25857  0.97550  1.0000
  H   H1097     1.0  0.62723  0.22432  0.85126  1.0000
  H   H1098     1.0  0.56346  0.01312  0.81501  1.0000
  C   C906      1.0  0.37590  0.11869  0.83840  1.0000
  C   C907      1.0  0.39348  0.09952  0.81528  1.0000
  C   C908      1.0  0.33316  0.29938  0.90205  1.0000
  H   H1099     1.0  0.38134  0.26158  0.84583  1.0000
  H   H1100     1.0  0.54367  0.02339  0.85020  1.0000
  C   C909      1.0  0.59890  0.07975  0.76438  1.0000
  C   C910      1.0  0.64615  0.99626  0.85515  1.0000
  H   H1101     1.0  0.39308  0.08714  0.80717  1.0000
  C   C911      1.0  0.64181  0.22164  0.98626  1.0000
  H   H1102     1.0  0.53656  0.06627  0.74303  1.0000
  H   H1103     1.0  0.59800  0.17250  0.84761  1.0000
  H   H1104     1.0  0.59040  0.08273  0.77673  1.0000
  H   H1105     1.0  0.65438  0.22575  0.87879  1.0000
  H   H1106     1.0  0.62668  0.15836  0.89410  1.0000
  C   C912      1.0  0.37717  0.12989  0.86644  1.0000
  H   H1107     1.0  0.61711  0.04180  0.86668  1.0000
  C   C913      1.0  0.38024  0.14969  0.85858  1.0000
  H   H1108     1.0  0.63952  0.24128  0.83441  1.0000
  H   H1109     1.0  0.42591  0.16580  0.98594  1.0000
  H   H1110     1.0  0.36597  0.20374  0.96564  1.0000
  H   H1111     1.0  0.34139  0.11313  0.82619  1.0000
  H   H1112     1.0  0.40729  0.09490  0.82239  1.0000
  H   H1113     1.0  0.54913  0.03766  0.81923  1.0000
  N   N61       1.0  0.37410  0.10276  0.82746  1.0000
  H   H1114     1.0  0.49648  0.99739  0.82282  1.0000
  C   C914      1.0  0.34935  0.30476  0.83141  1.0000
  C   C915      1.0  0.52630  0.24153  0.96106  1.0000
  H   H1115     1.0  0.36957  0.07068  0.82875  1.0000
  H   H1116     1.0  0.35516  0.24166  0.93914  1.0000
  C   C916      1.0  0.59151  0.00283  0.76028  1.0000
  C   C917      1.0  0.62015  0.19983  0.97696  1.0000
  C   C918      1.0  0.58807  0.08046  0.75019  1.0000
  C   C919      1.0  0.37801  0.21283  0.95819  1.0000
  H   H1117     1.0  0.34715  0.34953  0.97160  1.0000
  H   H1118     1.0  0.60945  0.01329  0.81434  1.0000
  C   C920      1.0  0.43207  0.18041  0.98301  1.0000
  H   H1119     1.0  0.64096  0.19059  0.84893  1.0000
  H   H1120     1.0  0.62021  0.01566  0.77578  1.0000
  H   H1121     1.0  0.61548  0.98451  0.79633  1.0000
  N   N62       1.0  0.37302  0.23510  0.96067  1.0000
  H   H1122     1.0  0.40563  0.23915  0.95422  1.0000
  H   H1123     1.0  0.38745  0.26277  0.95309  1.0000
  H   H1124     1.0  0.34918  0.26050  0.95384  1.0000
  C   C921      1.0  0.46495  0.03160  0.74086  1.0000
  C   C922      1.0  0.57425  0.01902  0.75987  1.0000
  C   C923      1.0  0.54748  0.02203  0.81621  1.0000
  C   C924      1.0  0.51299  0.02621  0.83148  1.0000
  C   C925      1.0  0.55175  0.18043  0.97094  1.0000
  C   C926      1.0  0.61172  0.16796  0.87124  1.0000
  Fe  Fe128     1.0  0.63177  0.24267  0.90842  1.0000
  C   C927      1.0  0.61082  0.14044  0.85381  1.0000
  H   H1125     1.0  0.60630  0.13558  0.84260  1.0000
  H   H1126     1.0  0.37943  0.28945  0.82127  1.0000
  C   C928      1.0  0.36668  0.28921  0.83169  1.0000
  N   N63       1.0  0.61272  0.00696  0.75247  1.0000
  H   H1127     1.0  0.49820  0.12827  0.85894  1.0000
  H   H1128     1.0  0.48568  0.14430  0.87518  1.0000
  C   C929      1.0  0.35297  0.24611  0.98886  1.0000
  N   N64       1.0  0.64248  0.02158  0.87733  1.0000
  C   C930      1.0  0.55775  0.17823  0.95365  1.0000
  H   H1129     1.0  0.33312  0.26715  0.91224  1.0000
  H   H1130     1.0  0.46717  0.06093  0.76009  1.0000
  H   H1131     1.0  0.61465  0.00680  0.88182  1.0000
  H   H1132     1.0  0.33228  0.34296  0.85274  1.0000
  H   H1133     1.0  0.38268  0.16131  0.86622  1.0000
  C   C931      1.0  0.37155  0.23727  0.97918  1.0000
  C   C932      1.0  0.53063  0.18454  0.97717  1.0000
  H   H1134     1.0  0.57426  0.17515  0.94888  1.0000
  H   H1135     1.0  0.53516  0.99355  0.78185  1.0000
  H   H1136     1.0  0.56360  0.17899  0.97945  1.0000
  H   H1137     1.0  0.34525  0.34837  0.94117  1.0000
  C   C933      1.0  0.55070  0.99609  0.77581  1.0000
  C   C934      1.0  0.63947  0.23470  0.84816  1.0000
  C   C935      1.0  0.50738  0.23905  0.97122  1.0000
  H   H1138     1.0  0.63692  0.99180  0.89113  1.0000
  C   C936      1.0  0.33264  0.30513  0.84508  1.0000
  C   C937      1.0  0.65536  0.19131  0.84039  1.0000
  C   C938      1.0  0.62852  0.00775  0.88818  1.0000
  H   H1139     1.0  0.49333  0.23974  0.96531  1.0000
  H   H1140     1.0  0.33154  0.34610  0.83003  1.0000
  C   C939      1.0  0.65147  0.01419  0.86064  1.0000
  H   H1141     1.0  0.62219  0.01360  0.90069  1.0000
  H   H1142     1.0  0.35413  0.09786  0.80947  1.0000
  C   C940      1.0  0.58132  0.24312  0.98329  1.0000
  C   C941      1.0  0.51070  0.98648  0.82182  1.0000
  C   C942      1.0  0.54394  0.23847  0.98683  1.0000
  H   H1143     1.0  0.65330  0.02767  0.90032  1.0000
  C   C943      1.0  0.50650  0.23581  0.98903  1.0000
  Fe  Fe129     1.0  0.42086  0.71537  0.07940  1.0000
  S   S257      1.0  0.43534  0.68195  0.07920  1.0000
  S   S258      1.0  0.42248  0.72693  0.10477  1.0000
  Fe  Fe130     1.0  0.41189  0.71843  0.04248  1.0000
  S   S259      1.0  0.42538  0.68541  0.03989  1.0000
  S   S260      1.0  0.40251  0.73802  0.01837  1.0000
  Fe  Fe131     1.0  0.40798  0.67821  0.06615  1.0000
  S   S261      1.0  0.39340  0.64860  0.07577  1.0000
  Fe  Fe132     1.0  0.45115  0.69215  0.05313  1.0000
  S   S262      1.0  0.48498  0.68451  0.04225  1.0000
  S   S263      1.0  0.39238  0.71108  0.06796  1.0000
  S   S264      1.0  0.43877  0.72575  0.05412  1.0000
  Fe  Fe133     1.0  0.59603  0.72309  0.05604  1.0000
  S   S265      1.0  0.60313  0.68835  0.06093  1.0000
  S   S266      1.0  0.58587  0.74027  0.03117  1.0000
  Fe  Fe134     1.0  0.59677  0.72950  0.09366  1.0000
  S   S267      1.0  0.60354  0.69505  0.10141  1.0000
  S   S268      1.0  0.58876  0.74952  0.11570  1.0000
  Fe  Fe135     1.0  0.62650  0.69424  0.07734  1.0000
  H   H1144     1.0  0.61735  0.95295  0.19601  1.0000
  Fe  Fe136     1.0  0.57976  0.69209  0.08449  1.0000
  S   S269      1.0  0.55284  0.67404  0.09339  1.0000
  S   S270      1.0  0.62118  0.72922  0.07044  1.0000
  S   S271      1.0  0.57118  0.72628  0.07865  1.0000
  S   S272      1.0  0.57361  0.86896  0.16115  1.0000
  Fe  Fe137     1.0  0.61757  0.85534  0.19014  1.0000
  S   S273      1.0  0.58755  0.87513  0.19779  1.0000
  Fe  Fe138     1.0  0.57272  0.85204  0.18782  1.0000
  S   S274      1.0  0.54319  0.84269  0.20287  1.0000
  H   H1145     1.0  0.53080  0.87432  0.13824  1.0000
  S   S275      1.0  0.60236  0.83047  0.18230  1.0000
  Fe  Fe139     1.0  0.42176  0.83439  0.13869  1.0000
  S   S276      1.0  0.43774  0.81490  0.15991  1.0000
  S   S277      1.0  0.40732  0.82156  0.11871  1.0000
  Fe  Fe140     1.0  0.43519  0.87480  0.14634  1.0000
  S   S278      1.0  0.45240  0.85814  0.16792  1.0000
  S   S279      1.0  0.44111  0.90770  0.13625  1.0000
  Fe  Fe141     1.0  0.46384  0.83349  0.15070  1.0000
  S   S280      1.0  0.49741  0.81964  0.14573  1.0000
  Fe  Fe142     1.0  0.42462  0.84128  0.17542  1.0000
  S   S281      1.0  0.41399  0.83341  0.20372  1.0000
  S   S282      1.0  0.44908  0.85127  0.12842  1.0000
  S   S283      1.0  0.40615  0.85966  0.15492  1.0000
  C   C944      1.0  0.61529  0.96036  0.20805  1.0000
  C   C945      1.0  0.42939  0.93028  0.14551  1.0000
  C   C946      1.0  0.43712  0.94902  0.13923  1.0000
  C   C947      1.0  0.42909  0.96721  0.14673  1.0000
  C   C948      1.0  0.41261  0.96702  0.16010  1.0000
  C   C949      1.0  0.40439  0.94843  0.16608  1.0000
  C   C950      1.0  0.41299  0.93000  0.15900  1.0000
  H   H1146     1.0  0.44936  0.94952  0.12846  1.0000
  H   H1147     1.0  0.36237  0.86606  0.23013  1.0000
  C   C951      1.0  0.49054  0.93401  0.14715  1.0000
  H   H1148     1.0  0.40669  0.91572  0.16374  1.0000
  C   C952      1.0  0.53115  0.83267  0.18826  1.0000
  C   C953      1.0  0.54229  0.82877  0.17233  1.0000
  C   C954      1.0  0.53201  0.82399  0.15946  1.0000
  C   C955      1.0  0.51056  0.82302  0.16255  1.0000
  C   C956      1.0  0.49959  0.82588  0.17877  1.0000
  C   C957      1.0  0.50995  0.83059  0.19169  1.0000
  H   H1149     1.0  0.55882  0.82968  0.16981  1.0000
  H   H1150     1.0  0.54064  0.82169  0.14701  1.0000
  H   H1151     1.0  0.48313  0.82448  0.18136  1.0000
  H   H1152     1.0  0.50147  0.83301  0.20414  1.0000
  H   H1153     1.0  0.64468  0.93392  0.22295  1.0000
  H   H1154     1.0  0.44459  0.64450  0.02608  1.0000
  H   H1155     1.0  0.40810  0.87834  0.19735  1.0000
  H   H1156     1.0  0.64063  0.64195  0.07779  1.0000
  C   C958      1.0  0.59653  0.77286  0.11971  1.0000
  C   C959      1.0  0.61110  0.78317  0.10834  1.0000
  C   C960      1.0  0.61635  0.80190  0.11205  1.0000
  C   C961      1.0  0.60721  0.81047  0.12715  1.0000
  C   C962      1.0  0.59253  0.80021  0.13843  1.0000
  C   C963      1.0  0.58725  0.78154  0.13471  1.0000
  H   H1157     1.0  0.61827  0.77682  0.09669  1.0000
  H   H1158     1.0  0.58536  0.80659  0.15008  1.0000
  H   H1159     1.0  0.57592  0.77373  0.14359  1.0000
  C   C964      1.0  0.37096  0.63991  0.07053  1.0000
  C   C965      1.0  0.35217  0.72393  0.10050  1.0000
  H   H1160     1.0  0.47820  0.92926  0.14165  1.0000
  H   H1161     1.0  0.42650  0.94208  0.21538  1.0000
  C   C966      1.0  0.35751  0.65227  0.05974  1.0000
  H   H1162     1.0  0.61894  0.71589  0.13037  1.0000
  H   H1163     1.0  0.36068  0.66765  0.05425  1.0000
  C   C967      1.0  0.50342  0.68223  0.05672  1.0000
  C   C968      1.0  0.52270  0.68930  0.05107  1.0000
  C   C969      1.0  0.53803  0.68680  0.06221  1.0000
  C   C970      1.0  0.53416  0.67701  0.07902  1.0000
  C   C971      1.0  0.51488  0.66995  0.08465  1.0000
  C   C972      1.0  0.49947  0.67270  0.07358  1.0000
  H   H1164     1.0  0.52570  0.69685  0.03808  1.0000
  H   H1165     1.0  0.55281  0.69242  0.05781  1.0000
  H   H1166     1.0  0.51185  0.66232  0.09763  1.0000
  H   H1167     1.0  0.48472  0.66699  0.07796  1.0000
  C   C973      1.0  0.41213  0.79520  0.11489  1.0000
  C   C974      1.0  0.42050  0.77941  0.12681  1.0000
  C   C975      1.0  0.42381  0.75862  0.12341  1.0000
  C   C976      1.0  0.41900  0.75342  0.10801  1.0000
  C   C977      1.0  0.41084  0.76920  0.09600  1.0000
  C   C978      1.0  0.40723  0.78996  0.09952  1.0000
  H   H1168     1.0  0.42424  0.78319  0.13872  1.0000
  H   H1169     1.0  0.43007  0.74652  0.13281  1.0000
  H   H1170     1.0  0.40689  0.76538  0.08417  1.0000
  H   H1171     1.0  0.40067  0.80206  0.09026  1.0000
  H   H1172     1.0  0.57631  0.74982  0.99650  1.0000
  C   C979      1.0  0.59926  0.73212  0.01182  1.0000
  H   H1173     1.0  0.54632  0.90798  0.21895  1.0000
  C   C980      1.0  0.55397  0.90209  0.23028  1.0000
  S   S284      1.0  0.63997  0.84666  0.20987  1.0000
  N   N65       1.0  0.50968  0.89708  0.15172  1.0000
  C   C981      1.0  0.38604  0.70719  0.00757  1.0000
  C   C982      1.0  0.39911  0.72246  0.00305  1.0000
  C   C983      1.0  0.52803  0.89133  0.13908  1.0000
  H   H1174     1.0  0.52587  0.89959  0.12604  1.0000
  H   H1175     1.0  0.37843  0.70463  0.02062  1.0000
  H   H1176     1.0  0.38498  0.62587  0.00436  1.0000
  H   H1177     1.0  0.34564  0.59699  0.07935  1.0000
  H   H1178     1.0  0.37459  0.75765  0.12761  1.0000
  H   H1179     1.0  0.38089  0.72001  0.13385  1.0000
  C   C984      1.0  0.48920  0.95526  0.14822  1.0000
  H   H1180     1.0  0.56452  0.96683  0.17629  1.0000
  H   H1181     1.0  0.37852  0.95356  0.21563  1.0000
  C   C985      1.0  0.35969  0.68390  0.13528  1.0000
  H   H1182     1.0  0.34251  0.68297  0.10689  1.0000
  C   C986      1.0  0.41055  0.88289  0.23938  1.0000
  C   C987      1.0  0.52294  0.92782  0.15962  1.0000
  H   H1183     1.0  0.43150  0.61400  0.02683  1.0000
  C   C988      1.0  0.59115  0.94568  0.16696  1.0000
  C   C989      1.0  0.35985  0.67958  0.10575  1.0000
  H   H1184     1.0  0.54835  0.66393  0.02748  1.0000
  H   H1185     1.0  0.50236  0.63314  0.01315  1.0000
  C   C990      1.0  0.50465  0.96277  0.15491  1.0000
  H   H1186     1.0  0.53658  0.91792  0.16380  1.0000
  C   C991      1.0  0.54082  0.66068  0.01713  1.0000
  N   N66       1.0  0.53923  0.80750  0.10139  1.0000
  C   C992      1.0  0.55761  0.81811  0.10171  1.0000
  C   C993      1.0  0.52035  0.82336  0.10339  1.0000
  C   C994      1.0  0.53803  0.79117  0.11629  1.0000
  C   C995      1.0  0.54109  0.79763  0.08547  1.0000
  C   C996      1.0  0.52352  0.79731  0.07688  1.0000
  C   C997      1.0  0.56046  0.78679  0.07871  1.0000
  C   C998      1.0  0.52564  0.78795  0.06182  1.0000
  C   C999      1.0  0.56244  0.77774  0.06354  1.0000
  C   C1000     1.0  0.54511  0.77835  0.05509  1.0000
  H   H1187     1.0  0.56037  0.82913  0.08984  1.0000
  H   H1188     1.0  0.55571  0.82688  0.11299  1.0000
  H   H1189     1.0  0.57216  0.80711  0.10307  1.0000
  H   H1190     1.0  0.51925  0.83472  0.09160  1.0000
  H   H1191     1.0  0.52044  0.83236  0.11423  1.0000
  H   H1192     1.0  0.50568  0.81627  0.10662  1.0000
  H   H1193     1.0  0.52410  0.78328  0.11693  1.0000
  H   H1194     1.0  0.55194  0.77901  0.11560  1.0000
  H   H1195     1.0  0.53697  0.79760  0.12866  1.0000
  H   H1196     1.0  0.50796  0.80415  0.08159  1.0000
  H   H1197     1.0  0.57423  0.78486  0.08515  1.0000
  H   H1198     1.0  0.51212  0.78812  0.05532  1.0000
  H   H1199     1.0  0.57747  0.76984  0.05842  1.0000
  H   H1200     1.0  0.54684  0.77107  0.04341  1.0000
  H   H1201     1.0  0.36241  0.66667  0.13825  1.0000
  H   H1202     1.0  0.36641  0.68350  0.09210  1.0000
  H   H1203     1.0  0.39134  0.94826  0.17619  1.0000
  H   H1204     1.0  0.40922  0.60481  0.02181  1.0000
  C   C1001     1.0  0.38217  0.69574  0.99507  1.0000
  C   C1002     1.0  0.44498  0.65119  0.01277  1.0000
  C   C1003     1.0  0.61254  0.98053  0.16131  1.0000
  H   H1205     1.0  0.32952  0.65440  0.04772  1.0000
  H   H1206     1.0  0.50748  0.87005  0.23740  1.0000
  H   H1207     1.0  0.50866  0.87455  0.21440  1.0000
  H   H1208     1.0  0.44213  0.90304  0.17985  1.0000
  H   H1209     1.0  0.40518  0.90505  0.21704  1.0000
  N   N67       1.0  0.41264  0.63611  0.01036  1.0000
  C   C1004     1.0  0.62853  0.71239  0.99596  1.0000
  C   C1005     1.0  0.63172  0.97508  0.22793  1.0000
  H   H1210     1.0  0.64235  0.79339  0.15250  1.0000
  H   H1211     1.0  0.64878  0.71375  0.09895  1.0000
  C   C1006     1.0  0.36387  0.71371  0.11386  1.0000
  C   C1007     1.0  0.51287  0.88500  0.16869  1.0000
  H   H1212     1.0  0.48281  0.78386  0.13495  1.0000
  C   C1008     1.0  0.54596  0.66910  0.99973  1.0000
  H   H1213     1.0  0.63739  0.69396  0.12503  1.0000
  H   H1214     1.0  0.39879  0.69083  0.10279  1.0000
  H   H1215     1.0  0.49914  0.75041  0.12657  1.0000
  C   C1009     1.0  0.49123  0.89058  0.14616  1.0000
  S   S285      1.0  0.57662  0.92480  0.16946  1.0000
  C   C1010     1.0  0.41608  0.84676  0.23445  1.0000
  H   H1216     1.0  0.47625  0.96607  0.14362  1.0000
  H   H1217     1.0  0.56199  0.69448  0.01872  1.0000
  C   C1011     1.0  0.40835  0.88880  0.22194  1.0000
  C   C1012     1.0  0.38612  0.95455  0.22713  1.0000
  H   H1218     1.0  0.39195  0.93829  0.23212  1.0000
  C   C1013     1.0  0.41009  0.87371  0.21075  1.0000
  N   N68       1.0  0.63529  0.96560  0.21169  1.0000
  C   C1014     1.0  0.50744  0.91960  0.15297  1.0000
  H   H1219     1.0  0.35469  0.77447  0.10397  1.0000
  Fe  Fe143     1.0  0.59094  0.89090  0.17080  1.0000
  C   C1015     1.0  0.65057  0.94629  0.21325  1.0000
  H   H1220     1.0  0.34586  0.71557  0.09219  1.0000
  C   C1016     1.0  0.45842  0.92709  0.18458  1.0000
  H   H1221     1.0  0.62147  0.73562  0.15151  1.0000
  H   H1222     1.0  0.41183  0.95524  0.19850  1.0000
  H   H1223     1.0  0.63663  0.70283  0.14540  1.0000
  Fe  Fe144     1.0  0.60469  0.84900  0.15612  1.0000
  H   H1224     1.0  0.39915  0.69008  0.12524  1.0000
  H   H1225     1.0  0.64677  0.97170  0.18466  1.0000
  C   C1017     1.0  0.62625  0.88428  0.22184  1.0000
  C   C1018     1.0  0.39148  0.68441  0.11556  1.0000
  H   H1226     1.0  0.46742  0.71982  0.10909  1.0000
  C   C1019     1.0  0.64436  0.77880  0.14716  1.0000
  C   C1020     1.0  0.41367  0.85264  0.21704  1.0000
  C   C1021     1.0  0.64845  0.74139  0.13222  1.0000
  H   H1227     1.0  0.55177  0.87065  0.22819  1.0000
  H   H1228     1.0  0.43157  0.60709  0.00571  1.0000
  H   H1229     1.0  0.41875  0.83046  0.23936  1.0000
  H   H1230     1.0  0.48852  0.89782  0.13294  1.0000
  H   H1231     1.0  0.45312  0.93784  0.17385  1.0000
  H   H1232     1.0  0.37676  0.61024  0.08594  1.0000
  H   H1233     1.0  0.61471  0.91330  0.23171  1.0000
  H   H1234     1.0  0.47628  0.94813  0.19214  1.0000
  C   C1022     1.0  0.63523  0.70818  0.13160  1.0000
  H   H1235     1.0  0.52802  0.88639  0.17287  1.0000
  H   H1236     1.0  0.52112  0.64226  0.03525  1.0000
  C   C1023     1.0  0.63597  0.86388  0.22545  1.0000
  H   H1237     1.0  0.45339  0.87862  0.20370  1.0000
  H   H1238     1.0  0.40977  0.64481  0.03611  1.0000
  N   N69       1.0  0.49456  0.73336  0.09682  1.0000
  C   C1024     1.0  0.50643  0.73599  0.07937  1.0000
  C   C1025     1.0  0.50901  0.72067  0.10840  1.0000
  C   C1026     1.0  0.47728  0.72141  0.09638  1.0000
  C   C1027     1.0  0.48573  0.75393  0.10225  1.0000
  C   C1028     1.0  0.48947  0.76022  0.11783  1.0000
  C   C1029     1.0  0.48024  0.77951  0.12281  1.0000
  H   H1239     1.0  0.51915  0.74550  0.07902  1.0000
  H   H1240     1.0  0.51384  0.72078  0.07521  1.0000
  H   H1241     1.0  0.49636  0.74336  0.06940  1.0000
  H   H1242     1.0  0.52262  0.72859  0.10915  1.0000
  H   H1243     1.0  0.51566  0.70548  0.10376  1.0000
  H   H1244     1.0  0.50087  0.71686  0.12156  1.0000
  H   H1245     1.0  0.46668  0.72889  0.08679  1.0000
  H   H1246     1.0  0.48317  0.70552  0.09296  1.0000
  H   H1247     1.0  0.62192  0.88984  0.20916  1.0000
  H   H1248     1.0  0.51304  0.86813  0.16843  1.0000
  C   C1030     1.0  0.61230  0.94363  0.16029  1.0000
  H   H1249     1.0  0.37147  0.68443  0.99857  1.0000
  C   C1031     1.0  0.58089  0.96510  0.17114  1.0000
  H   H1250     1.0  0.50013  0.89004  0.17880  1.0000
  S   S286      1.0  0.61458  0.83393  0.13135  1.0000
  C   C1032     1.0  0.47230  0.76813  0.09210  1.0000
  H   H1251     1.0  0.36683  0.69016  0.14496  1.0000
  C   C1033     1.0  0.59081  0.73923  0.99639  1.0000
  C   C1034     1.0  0.47137  0.93287  0.19496  1.0000
  C   C1035     1.0  0.45222  0.90748  0.18800  1.0000
  C   C1036     1.0  0.46726  0.79309  0.11248  1.0000
  H   H1252     1.0  0.49309  0.87348  0.14587  1.0000
  H   H1253     1.0  0.46802  0.76412  0.08047  1.0000
  H   H1254     1.0  0.45959  0.80773  0.11666  1.0000
  C   C1037     1.0  0.51923  0.65081  0.99222  1.0000
  H   H1255     1.0  0.54262  0.89549  0.14244  1.0000
  H   H1256     1.0  0.47721  0.85605  0.21869  1.0000
  C   C1038     1.0  0.46337  0.78745  0.09713  1.0000
  N   N70       1.0  0.36852  0.69081  0.11743  1.0000
  C   C1039     1.0  0.62291  0.96108  0.15731  1.0000
  H   H1257     1.0  0.53384  0.95492  0.16541  1.0000
  H   H1258     1.0  0.47680  0.89471  0.15505  1.0000
  H   H1259     1.0  0.45256  0.79777  0.08950  1.0000
  S   S287      1.0  0.62252  0.87263  0.16353  1.0000
  H   H1260     1.0  0.62031  0.92876  0.15695  1.0000
  C   C1040     1.0  0.57282  0.68661  0.00865  1.0000
  H   H1261     1.0  0.62771  0.80974  0.10324  1.0000
  C   C1041     1.0  0.36647  0.61996  0.07758  1.0000
  C   C1042     1.0  0.62246  0.89766  0.23454  1.0000
  H   H1262     1.0  0.39582  0.66723  0.11673  1.0000
  C   C1043     1.0  0.47180  0.89904  0.21293  1.0000
  C   C1044     1.0  0.42943  0.98249  0.23572  1.0000
  C   C1045     1.0  0.52152  0.94906  0.16057  1.0000
  C   C1046     1.0  0.52522  0.64793  0.02181  1.0000
  H   H1263     1.0  0.36547  0.83070  0.22222  1.0000
  C   C1047     1.0  0.35682  0.75770  0.10689  1.0000
  C   C1048     1.0  0.39776  0.63487  0.99819  1.0000
  N   N71       1.0  0.47868  0.88494  0.22803  1.0000
  C   C1049     1.0  0.51451  0.64293  0.00940  1.0000
  C   C1050     1.0  0.37146  0.72656  0.12375  1.0000
  H   H1264     1.0  0.36393  0.66241  0.10855  1.0000
  C   C1051     1.0  0.61804  0.71850  0.01160  1.0000
  C   C1052     1.0  0.34882  0.61237  0.07387  1.0000
  H   H1265     1.0  0.62466  0.71299  0.02345  1.0000
  C   C1053     1.0  0.47789  0.91915  0.20900  1.0000
  H   H1266     1.0  0.50867  0.89554  0.22662  1.0000
  H   H1267     1.0  0.63913  0.95952  0.15173  1.0000
  C   C1054     1.0  0.42969  0.64829  0.00269  1.0000
  C   C1055     1.0  0.34885  0.74561  0.09708  1.0000
  H   H1268     1.0  0.58086  0.67174  0.01471  1.0000
  C   C1056     1.0  0.63102  0.76422  0.15360  1.0000
  H   H1269     1.0  0.60844  0.94934  0.21850  1.0000
  H   H1270     1.0  0.38665  0.63779  0.03074  1.0000
  C   C1057     1.0  0.36795  0.74819  0.12027  1.0000
  C   C1058     1.0  0.41903  0.95754  0.20981  1.0000
  C   C1059     1.0  0.63284  0.74582  0.14625  1.0000
  C   C1060     1.0  0.40046  0.64567  0.02529  1.0000
  H   H1271     1.0  0.34253  0.68909  0.13737  1.0000
  H   H1272     1.0  0.43525  0.98153  0.14182  1.0000
  C   C1061     1.0  0.46056  0.66352  0.00614  1.0000
  C   C1062     1.0  0.33985  0.64470  0.05606  1.0000
  C   C1063     1.0  0.56107  0.91580  0.23915  1.0000
  H   H1273     1.0  0.57511  0.84130  0.22856  1.0000
  H   H1274     1.0  0.58511  0.69671  0.00406  1.0000
  C   C1064     1.0  0.45884  0.89354  0.20187  1.0000
  H   H1275     1.0  0.61869  0.76758  0.16399  1.0000
  H   H1276     1.0  0.59892  0.84683  0.23437  1.0000
  H   H1277     1.0  0.47147  0.66630  0.01436  1.0000
  H   H1278     1.0  0.48763  0.92447  0.21686  1.0000
  H   H1279     1.0  0.50371  0.97928  0.15544  1.0000
  C   C1065     1.0  0.58450  0.83976  0.23941  1.0000
  H   H1280     1.0  0.39470  0.66235  0.02160  1.0000
  C   C1066     1.0  0.50185  0.88119  0.22650  1.0000
  H   H1281     1.0  0.53877  0.71039  0.99681  1.0000
  C   C1067     1.0  0.42165  0.61459  0.01641  1.0000
  N   N72       1.0  0.40333  0.96741  0.22276  1.0000
  H   H1282     1.0  0.63278  0.73758  0.10397  1.0000
  H   H1283     1.0  0.65441  0.93937  0.20094  1.0000
  H   H1284     1.0  0.34039  0.75310  0.08655  1.0000
  N   N73       1.0  0.56179  0.68333  0.99436  1.0000
  H   H1285     1.0  0.65538  0.60455  0.07891  1.0000
  C   C1068     1.0  0.33537  0.62472  0.06307  1.0000
  C   C1069     1.0  0.55737  0.88073  0.23557  1.0000
  H   H1286     1.0  0.43157  0.96720  0.20466  1.0000
  C   C1070     1.0  0.59159  0.98242  0.16852  1.0000
  H   H1287     1.0  0.64328  0.70221  0.99582  1.0000
  C   C1071     1.0  0.47140  0.86437  0.23008  1.0000
  N   N74       1.0  0.65074  0.72223  0.12391  1.0000
  H   H1288     1.0  0.55869  0.93231  0.23489  1.0000
  C   C1072     1.0  0.64811  0.72780  0.10548  1.0000
  H   H1289     1.0  0.45410  0.86592  0.23206  1.0000
  C   C1073     1.0  0.64363  0.97941  0.19658  1.0000
  H   H1290     1.0  0.39005  0.65055  0.99338  1.0000
  H   H1291     1.0  0.37370  0.96114  0.23683  1.0000
  C   C1074     1.0  0.41359  0.96958  0.23772  1.0000
  H   H1292     1.0  0.60352  0.97453  0.20642  1.0000
  C   C1075     1.0  0.36579  0.83289  0.23549  1.0000
  C   C1076     1.0  0.65706  0.63711  0.07884  1.0000
  C   C1077     1.0  0.36408  0.85283  0.23997  1.0000
  Fe  Fe145     1.0  0.59735  0.87173  0.32347  1.0000
  S   S288      1.0  0.59403  0.90461  0.31112  1.0000
  S   S289      1.0  0.56839  0.85618  0.33201  1.0000
  Fe  Fe146     1.0  0.61555  0.90915  0.32919  1.0000
  S   S290      1.0  0.61130  0.93529  0.34488  1.0000
  Fe  Fe147     1.0  0.62339  0.89422  0.29421  1.0000
  S   S291      1.0  0.61660  0.87722  0.34329  1.0000
  S   S292      1.0  0.62570  0.86064  0.30550  1.0000
  Fe  Fe148     1.0  0.45626  0.88054  0.29864  1.0000
  S   S293      1.0  0.44267  0.91083  0.28484  1.0000
  S   S294      1.0  0.49113  0.87463  0.28894  1.0000
  Fe  Fe149     1.0  0.41227  0.87216  0.31630  1.0000
  S   S295      1.0  0.39640  0.90169  0.30326  1.0000
  S   S296      1.0  0.39285  0.85085  0.33528  1.0000
  Fe  Fe150     1.0  0.41783  0.89382  0.27958  1.0000
  S   S297      1.0  0.40756  0.90214  0.25315  1.0000
  Fe  Fe151     1.0  0.42284  0.91559  0.30974  1.0000
  S   S298      1.0  0.41459  0.94565  0.32079  1.0000
  S   S299      1.0  0.43218  0.86297  0.29184  1.0000
  S   S300      1.0  0.43789  0.88666  0.32428  1.0000
  C   C1078     1.0  0.36644  0.85791  0.34436  1.0000
  C   C1079     1.0  0.35821  0.84612  0.35936  1.0000
  H   H1293     1.0  0.44122  0.97705  0.27663  1.0000
  C   C1080     1.0  0.35314  0.87413  0.33641  1.0000
  H   H1294     1.0  0.36828  0.83348  0.36562  1.0000
  H   H1295     1.0  0.35910  0.88350  0.32498  1.0000
  H   H1296     1.0  0.39566  0.83083  0.30479  1.0000
  N   N75       1.0  0.37231  0.84101  0.28744  1.0000
  H   H1297     1.0  0.57733  0.84953  0.28087  1.0000
  C   C1081     1.0  0.58554  0.84347  0.26888  1.0000
  H   H1298     1.0  0.60104  0.84906  0.26572  1.0000
  H   H1299     1.0  0.37692  0.86384  0.30292  1.0000
  H   H1300     1.0  0.57063  0.96333  0.35111  1.0000
  C   C1082     1.0  0.56859  0.87240  0.24963  1.0000
  H   H1301     1.0  0.41665  0.85720  0.25891  1.0000
  C   C1083     1.0  0.43510  0.96035  0.31853  1.0000
  H   H1302     1.0  0.33096  0.84121  0.37786  1.0000
  C   C1084     1.0  0.53897  0.95682  0.33351  1.0000
  H   H1303     1.0  0.34010  0.91105  0.37601  1.0000
  C   C1085     1.0  0.46844  0.96957  0.30415  1.0000
  C   C1086     1.0  0.45356  0.95578  0.30746  1.0000
  H   H1304     1.0  0.39137  0.81123  0.29314  1.0000
  H   H1305     1.0  0.35638  0.83603  0.31323  1.0000
  H   H1306     1.0  0.48225  0.96656  0.29502  1.0000
  H   H1307     1.0  0.45603  0.94209  0.30099  1.0000
  C   C1087     1.0  0.54255  0.91885  0.33477  1.0000
  H   H1308     1.0  0.35421  0.97764  0.36880  1.0000
  C   C1088     1.0  0.57543  0.88686  0.25850  1.0000
  H   H1309     1.0  0.61928  0.96175  0.27138  1.0000
  C   C1089     1.0  0.54635  0.86342  0.32064  1.0000
  C   C1090     1.0  0.54789  0.87462  0.30420  1.0000
  C   C1091     1.0  0.53063  0.87854  0.29485  1.0000
  C   C1092     1.0  0.51146  0.87189  0.30202  1.0000
  C   C1093     1.0  0.50964  0.86154  0.31877  1.0000
  C   C1094     1.0  0.52709  0.85712  0.32794  1.0000
  H   H1310     1.0  0.56253  0.87980  0.29853  1.0000
  H   H1311     1.0  0.53219  0.88662  0.28193  1.0000
  H   H1312     1.0  0.49505  0.85617  0.32440  1.0000
  H   H1313     1.0  0.52571  0.84850  0.34066  1.0000
  H   H1314     1.0  0.62991  0.78819  0.38033  1.0000
  H   H1315     1.0  0.35868  0.87314  0.28805  1.0000
  C   C1095     1.0  0.63037  0.95581  0.31578  1.0000
  C   C1096     1.0  0.62500  0.95478  0.33361  1.0000
  C   C1097     1.0  0.63148  0.96877  0.34264  1.0000
  C   C1098     1.0  0.37362  0.86274  0.28975  1.0000
  H   H1316     1.0  0.62753  0.96786  0.35645  1.0000
  H   H1317     1.0  0.53317  0.97847  0.36020  1.0000
  H   H1318     1.0  0.62829  0.85377  0.37627  1.0000
  H   H1319     1.0  0.36980  0.80030  0.24434  1.0000
  H   H1320     1.0  0.47686  0.85407  0.24148  1.0000
  C   C1099     1.0  0.39202  0.82813  0.29205  1.0000
  N   N76       1.0  0.63195  0.82083  0.37553  1.0000
  H   H1321     1.0  0.40552  0.83164  0.28235  1.0000
  C   C1100     1.0  0.33182  0.87793  0.34299  1.0000
  C   C1101     1.0  0.62311  0.97146  0.25939  1.0000
  C   C1102     1.0  0.62086  0.80325  0.38365  1.0000
  H   H1322     1.0  0.33949  0.84332  0.29672  1.0000
  C   C1103     1.0  0.41475  0.86186  0.24556  1.0000
  C   C1104     1.0  0.33387  0.95412  0.37267  1.0000
  H   H1323     1.0  0.58026  0.96493  0.32842  1.0000
  H   H1324     1.0  0.57741  0.91882  0.26011  1.0000
  H   H1325     1.0  0.61844  0.80234  0.39790  1.0000
  C   C1105     1.0  0.55095  0.93679  0.33598  1.0000
  H   H1326     1.0  0.58937  0.82283  0.24274  1.0000
  H   H1327     1.0  0.49399  0.94059  0.32606  1.0000
  C   C1106     1.0  0.62587  0.96313  0.24382  1.0000
  H   H1328     1.0  0.55583  0.98014  0.30681  1.0000
  C   C1107     1.0  0.33702  0.85047  0.36634  1.0000
  H   H1329     1.0  0.35345  0.81750  0.29964  1.0000
  C   C1108     1.0  0.52215  0.92024  0.33110  1.0000
  C   C1109     1.0  0.64220  0.97096  0.30698  1.0000
  H   H1330     1.0  0.50809  0.97229  0.32780  1.0000
  H   H1331     1.0  0.54329  0.84339  0.24866  1.0000
  H   H1332     1.0  0.60515  0.80463  0.37935  1.0000
  C   C1110     1.0  0.36922  0.83860  0.26973  1.0000
  C   C1111     1.0  0.35465  0.83413  0.29976  1.0000
  C   C1112     1.0  0.63797  0.87035  0.25462  1.0000
  H   H1333     1.0  0.62514  0.94517  0.30871  1.0000
  H   H1334     1.0  0.55539  0.82424  0.26380  1.0000
  H   H1335     1.0  0.38644  0.86904  0.28067  1.0000
  Fe  Fe152     1.0  0.64478  0.86966  0.32427  1.0000
  S   S301      1.0  0.64474  0.90219  0.31121  1.0000
  N   N77       1.0  0.54744  0.97624  0.33419  1.0000
  H   H1336     1.0  0.32588  0.91156  0.39724  1.0000
  C   C1113     1.0  0.64195  0.85698  0.24183  1.0000
  H   H1337     1.0  0.55194  0.90369  0.33665  1.0000
  C   C1114     1.0  0.36567  0.85578  0.25683  1.0000
  H   H1338     1.0  0.58876  0.82631  0.27201  1.0000
  C   C1115     1.0  0.62825  0.89074  0.25095  1.0000
  C   C1116     1.0  0.63296  0.82168  0.35658  1.0000
  C   C1117     1.0  0.50995  0.93959  0.32875  1.0000
  C   C1118     1.0  0.43223  0.97783  0.32716  1.0000
  C   C1119     1.0  0.41841  0.96182  0.26829  1.0000
  H   H1339     1.0  0.41425  0.95376  0.28100  1.0000
  H   H1340     1.0  0.37198  0.80479  0.27407  1.0000
  C   C1120     1.0  0.40853  0.95904  0.25445  1.0000
  H   H1341     1.0  0.36482  0.87167  0.25920  1.0000
  H   H1342     1.0  0.54320  0.84891  0.27022  1.0000
  C   C1121     1.0  0.61937  0.84047  0.38048  1.0000
  H   H1343     1.0  0.62360  0.94713  0.24439  1.0000
  C   C1122     1.0  0.65278  0.81805  0.38151  1.0000
  C   C1123     1.0  0.51818  0.95765  0.32987  1.0000
  C   C1124     1.0  0.55283  0.84121  0.25946  1.0000
  C   C1125     1.0  0.36992  0.81854  0.26488  1.0000
  H   H1344     1.0  0.60451  0.84417  0.37460  1.0000
  C   C1126     1.0  0.56925  0.97277  0.33838  1.0000
  S   S302      1.0  0.62313  0.90802  0.26650  1.0000
  H   H1345     1.0  0.39708  0.94846  0.25721  1.0000
  H   H1346     1.0  0.61714  0.82486  0.35227  1.0000
  H   H1347     1.0  0.58424  0.88215  0.26926  1.0000
  N   N78       1.0  0.57288  0.84965  0.25438  1.0000
  C   C1127     1.0  0.57158  0.90821  0.25332  1.0000
  H   H1348     1.0  0.34546  0.94379  0.36561  1.0000
  H   H1349     1.0  0.51579  0.90627  0.33011  1.0000
  C   C1128     1.0  0.36845  0.81578  0.24795  1.0000
  H   H1350     1.0  0.61469  0.83997  0.39455  1.0000
  H   H1351     1.0  0.56689  0.93451  0.33883  1.0000
  H   H1352     1.0  0.47447  0.88404  0.25570  1.0000
  H   H1353     1.0  0.47678  0.90913  0.24435  1.0000
  H   H1354     1.0  0.64620  0.97194  0.29318  1.0000
  H   H1355     1.0  0.64173  0.83426  0.34974  1.0000
  H   H1356     1.0  0.64956  0.84123  0.24465  1.0000
  H   H1357     1.0  0.64271  0.86497  0.26719  1.0000
  C   C1129     1.0  0.43369  0.97484  0.26587  1.0000
  C   C1130     1.0  0.64340  0.98377  0.33388  1.0000
  C   C1131     1.0  0.33899  0.97353  0.37433  1.0000
  C   C1132     1.0  0.47044  0.89456  0.24393  1.0000
  H   H1358     1.0  0.64085  0.82279  0.40811  1.0000
  H   H1359     1.0  0.45309  0.89833  0.24520  1.0000
  H   H1360     1.0  0.64057  0.80677  0.35195  1.0000
  H   H1361     1.0  0.33901  0.84488  0.46900  1.0000
  C   C1133     1.0  0.32675  0.85746  0.47211  1.0000
  H   H1362     1.0  0.41830  0.98113  0.33610  1.0000
  C   C1134     1.0  0.65452  0.81973  0.39890  1.0000
  Fe  Fe153     1.0  0.39177  0.90271  0.64327  1.0000
  S   S303      1.0  0.40700  0.87387  0.63213  1.0000
  S   S304      1.0  0.39251  0.93467  0.62900  1.0000
  Fe  Fe154     1.0  0.37556  0.87924  0.67720  1.0000
  S   S305      1.0  0.38872  0.84821  0.66847  1.0000
  S   S306      1.0  0.36198  0.88792  0.70349  1.0000
  Fe  Fe155     1.0  0.41751  0.86313  0.65811  1.0000
  S   S307      1.0  0.44901  0.84881  0.66645  1.0000
  Fe  Fe156     1.0  0.37668  0.86186  0.64322  1.0000
  S   S308      1.0  0.36324  0.84607  0.62436  1.0000
  S   S309      1.0  0.40471  0.89319  0.66819  1.0000
  S   S310      1.0  0.36107  0.89163  0.65304  1.0000
  Fe  Fe157     1.0  0.60820  0.86663  0.64662  1.0000
  Fe  Fe158     1.0  0.56142  0.88048  0.64347  1.0000
  S   S311      1.0  0.55982  0.90537  0.66008  1.0000
  S   S312      1.0  0.53255  0.88251  0.63025  1.0000
  Fe  Fe159     1.0  0.59062  0.91164  0.64588  1.0000
  S   S313      1.0  0.59516  0.94425  0.63530  1.0000
  Fe  Fe160     1.0  0.57834  0.88165  0.67730  1.0000
  S   S314      1.0  0.56324  0.88467  0.70473  1.0000
  S   S315      1.0  0.59091  0.88892  0.62759  1.0000
  S   S316      1.0  0.57835  0.85586  0.66130  1.0000
  C   C1135     1.0  0.57796  0.87912  0.72216  1.0000
  C   C1136     1.0  0.59796  0.86768  0.72070  1.0000
  C   C1137     1.0  0.60161  0.97760  0.64926  1.0000
  H   H1363     1.0  0.35891  0.89349  0.73896  1.0000
  H   H1364     1.0  0.60527  0.86315  0.70839  1.0000
  N   N79       1.0  0.39399  0.95441  0.70095  1.0000
  C   C1138     1.0  0.60648  0.95618  0.64920  1.0000
  C   C1139     1.0  0.61888  0.94443  0.66112  1.0000
  C   C1140     1.0  0.62569  0.95403  0.67354  1.0000
  C   C1141     1.0  0.38934  0.93842  0.69117  1.0000
  C   C1142     1.0  0.33320  0.84492  0.60375  1.0000
  H   H1365     1.0  0.62335  0.92802  0.66074  1.0000
  H   H1366     1.0  0.63612  0.94777  0.61848  1.0000
  C   C1143     1.0  0.34256  0.92207  0.61677  1.0000
  H   H1367     1.0  0.54562  0.94552  0.63915  1.0000
  H   H1368     1.0  0.40169  0.92469  0.69146  1.0000
  H   H1369     1.0  0.37707  0.95101  0.59476  1.0000
  H   H1370     1.0  0.52404  0.81272  0.72677  1.0000
  H   H1371     1.0  0.52225  0.85208  0.72391  1.0000
  H   H1372     1.0  0.35440  0.93132  0.55305  1.0000
  H   H1373     1.0  0.34616  0.83884  0.59485  1.0000
  C   C1144     1.0  0.37080  0.87123  0.72120  1.0000
  C   C1145     1.0  0.39615  0.94677  0.71923  1.0000
  C   C1146     1.0  0.38143  0.85131  0.71935  1.0000
  H   H1374     1.0  0.65656  0.89868  0.57643  1.0000
  H   H1375     1.0  0.38398  0.84574  0.70693  1.0000
  C   C1147     1.0  0.47216  0.85806  0.65607  1.0000
  C   C1148     1.0  0.49097  0.85116  0.66309  1.0000
  C   C1149     1.0  0.50955  0.85878  0.65550  1.0000
  C   C1150     1.0  0.50956  0.87283  0.64047  1.0000
  C   C1151     1.0  0.49084  0.87940  0.63327  1.0000
  C   C1152     1.0  0.47212  0.87235  0.64120  1.0000
  H   H1376     1.0  0.49114  0.83996  0.67451  1.0000
  H   H1377     1.0  0.52394  0.85342  0.66101  1.0000
  H   H1378     1.0  0.49078  0.89002  0.62150  1.0000
  H   H1379     1.0  0.45776  0.87764  0.63562  1.0000
  C   C1153     1.0  0.41286  0.94527  0.63502  1.0000
  H   H1380     1.0  0.36278  0.97084  0.61663  1.0000
  C   C1154     1.0  0.44406  0.94124  0.64915  1.0000
  C   C1155     1.0  0.42915  0.93247  0.64263  1.0000
  H   H1381     1.0  0.40497  0.97540  0.72505  1.0000
  H   H1382     1.0  0.43027  0.91581  0.64350  1.0000
  H   H1383     1.0  0.52003  0.92173  0.60850  1.0000
  S   S317      1.0  0.60940  0.89013  0.66431  1.0000
  H   H1384     1.0  0.35958  0.88199  0.59343  1.0000
  H   H1385     1.0  0.47757  0.95974  0.62395  1.0000
  C   C1156     1.0  0.42747  0.97553  0.63903  1.0000
  H   H1386     1.0  0.34801  0.93041  0.62568  1.0000
  H   H1387     1.0  0.62355  0.85217  0.73427  1.0000
  H   H1388     1.0  0.45916  0.83893  0.72381  1.0000
  C   C1157     1.0  0.43017  0.88227  0.70633  1.0000
  H   H1389     1.0  0.43551  0.87978  0.69271  1.0000
  C   C1158     1.0  0.34037  0.96161  0.55937  1.0000
  H   H1390     1.0  0.55365  0.82842  0.71615  1.0000
  H   H1391     1.0  0.53975  0.92687  0.61961  1.0000
  H   H1392     1.0  0.45507  0.84627  0.70173  1.0000
  C   C1159     1.0  0.43429  0.87168  0.73598  1.0000
  C   C1160     1.0  0.57510  0.96782  0.70393  1.0000
  C   C1161     1.0  0.41232  0.96679  0.63292  1.0000
  C   C1162     1.0  0.33976  0.97678  0.57014  1.0000
  H   H1393     1.0  0.62762  0.90160  0.59756  1.0000
  H   H1394     1.0  0.33028  0.96438  0.54932  1.0000
  C   C1163     1.0  0.55733  0.82789  0.72951  1.0000
  C   C1164     1.0  0.64238  0.93775  0.58289  1.0000
  C   C1165     1.0  0.38834  0.83833  0.73371  1.0000
  C   C1166     1.0  0.36740  0.87821  0.73741  1.0000
  C   C1167     1.0  0.49546  0.88749  0.69445  1.0000
  H   H1395     1.0  0.54600  0.92859  0.71552  1.0000
  C   C1168     1.0  0.52558  0.85017  0.73747  1.0000
  C   C1169     1.0  0.36706  0.93971  0.57420  1.0000
  C   C1170     1.0  0.62012  0.97537  0.67397  1.0000
  S   S318      1.0  0.45982  0.97416  0.65732  1.0000
  C   C1171     1.0  0.65282  0.94334  0.61781  1.0000
  N   N80       1.0  0.56098  0.95369  0.70057  1.0000
  C   C1172     1.0  0.36656  0.95478  0.58508  1.0000
  C   C1173     1.0  0.46493  0.87887  0.71475  1.0000
  C   C1174     1.0  0.35281  0.97386  0.58334  1.0000
  C   C1175     1.0  0.52694  0.95333  0.68939  1.0000
  H   H1396     1.0  0.54499  0.95097  0.72638  1.0000
  H   H1397     1.0  0.49291  0.94043  0.64993  1.0000
  H   H1398     1.0  0.63514  0.94491  0.68284  1.0000
  C   C1176     1.0  0.34918  0.89495  0.59843  1.0000
  H   H1399     1.0  0.39625  0.82281  0.73225  1.0000
  C   C1177     1.0  0.37671  0.97198  0.70000  1.0000
  H   H1400     1.0  0.41687  0.97576  0.69705  1.0000
  C   C1178     1.0  0.32871  0.89971  0.59436  1.0000
  H   H1401     1.0  0.49988  0.89849  0.73417  1.0000
  C   C1179     1.0  0.56855  0.88471  0.73824  1.0000
  H   H1402     1.0  0.50387  0.88792  0.68155  1.0000
  H   H1403     1.0  0.51896  0.89972  0.70466  1.0000
  N   N81       1.0  0.44478  0.87051  0.71814  1.0000
  N   N82       1.0  0.50977  0.94612  0.62473  1.0000
  H   H1404     1.0  0.58933  0.95911  0.70925  1.0000
  C   C1180     1.0  0.33711  0.85011  0.61947  1.0000
  C   C1181     1.0  0.50915  0.96331  0.68211  1.0000
  H   H1405     1.0  0.43340  0.84164  0.71750  1.0000
  H   H1406     1.0  0.42829  0.89920  0.70718  1.0000
  H   H1407     1.0  0.45615  0.93131  0.65560  1.0000
  H   H1408     1.0  0.32518  0.98031  0.61077  1.0000
  C   C1182     1.0  0.50395  0.89417  0.70743  1.0000
  H   H1409     1.0  0.63070  0.94891  0.58984  1.0000
  H   H1410     1.0  0.38847  0.94439  0.67734  1.0000
  C   C1183     1.0  0.52604  0.93457  0.61314  1.0000
  C   C1184     1.0  0.63555  0.90994  0.60539  1.0000
  C   C1185     1.0  0.47404  0.88582  0.72773  1.0000
  H   H1411     1.0  0.52893  0.93658  0.69187  1.0000
  H   H1412     1.0  0.49680  0.91901  0.63758  1.0000
  H   H1413     1.0  0.37768  0.92529  0.57576  1.0000
  C   C1186     1.0  0.44830  0.84840  0.71519  1.0000
  C   C1187     1.0  0.47623  0.88002  0.69801  1.0000
  C   C1188     1.0  0.44287  0.96283  0.64768  1.0000
  C   C1189     1.0  0.40200  0.95981  0.72996  1.0000
  H   H1414     1.0  0.51804  0.92473  0.64686  1.0000
  H   H1415     1.0  0.39995  0.97681  0.62699  1.0000
  C   C1190     1.0  0.39189  0.92677  0.72709  1.0000
  H   H1416     1.0  0.55930  0.97441  0.64720  1.0000
  S   S319      1.0  0.63687  0.84686  0.63431  1.0000
  H   H1417     1.0  0.47026  0.87501  0.68755  1.0000
  H   H1418     1.0  0.38681  0.91589  0.72016  1.0000
  H   H1419     1.0  0.42732  0.94950  0.69343  1.0000
  N   N83       1.0  0.65221  0.92080  0.59484  1.0000
  H   H1420     1.0  0.37398  0.93311  0.69625  1.0000
  C   C1191     1.0  0.54212  0.96470  0.69309  1.0000
  H   H1421     1.0  0.41291  0.96642  0.67809  1.0000
  C   C1192     1.0  0.49322  0.89342  0.72402  1.0000
  C   C1193     1.0  0.51784  0.96395  0.62960  1.0000
  H   H1422     1.0  0.56633  0.84095  0.72900  1.0000
  H   H1423     1.0  0.48551  0.93850  0.61190  1.0000
  C   C1194     1.0  0.35394  0.94307  0.56142  1.0000
  C   C1195     1.0  0.50415  0.93200  0.64048  1.0000
  H   H1424     1.0  0.37189  0.90210  0.61286  1.0000
  H   H1425     1.0  0.53185  0.94502  0.60172  1.0000
  C   C1196     1.0  0.41361  0.96179  0.69210  1.0000
  H   H1426     1.0  0.56880  0.93304  0.72320  1.0000
  H   H1427     1.0  0.49418  0.96299  0.60370  1.0000
  C   C1197     1.0  0.49098  0.95222  0.61564  1.0000
  C   C1198     1.0  0.55485  0.94112  0.71713  1.0000
  C   C1199     1.0  0.60824  0.86138  0.73539  1.0000
  H   H1428     1.0  0.56481  0.92646  0.68754  1.0000
  H   H1429     1.0  0.57605  0.94795  0.67541  1.0000
  H   H1430     1.0  0.36170  0.96720  0.70669  1.0000
  C   C1200     1.0  0.35609  0.90611  0.60957  1.0000
  H   H1431     1.0  0.58846  0.93239  0.69272  1.0000
  H   H1432     1.0  0.41438  0.87728  0.70924  1.0000
  H   H1433     1.0  0.63393  0.93162  0.57394  1.0000
  C   C1201     1.0  0.57309  0.93957  0.68855  1.0000
  C   C1202     1.0  0.53677  0.96079  0.63698  1.0000
  H   H1434     1.0  0.62307  0.92068  0.61194  1.0000
  H   H1435     1.0  0.49778  0.95439  0.67924  1.0000
  H   H1436     1.0  0.56773  0.81306  0.73255  1.0000
  H   H1437     1.0  0.37447  0.97816  0.68645  1.0000
  H   H1438     1.0  0.41903  0.86571  0.73801  1.0000
  H   H1439     1.0  0.65434  0.94664  0.57503  1.0000
  C   C1203     1.0  0.54481  0.97729  0.64163  1.0000
  H   H1440     1.0  0.33187  0.85443  0.49854  1.0000
  H   H1441     1.0  0.64201  0.89823  0.61553  1.0000
  H   H1442     1.0  0.56720  0.97850  0.71332  1.0000
  H   H1443     1.0  0.38296  0.98200  0.60173  1.0000
  H   H1444     1.0  0.58096  0.97718  0.69189  1.0000
  H   H1445     1.0  0.55300  0.89339  0.73951  1.0000
  H   H1446     1.0  0.43100  0.88796  0.73904  1.0000
  H   H1447     1.0  0.53399  0.86315  0.73883  1.0000
  H   H1448     1.0  0.65437  0.96129  0.63817  1.0000
  H   H1449     1.0  0.65752  0.87833  0.64496  1.0000
  Fe  Fe161     1.0  0.39580  0.71600  0.90047  1.0000
  S   S320      1.0  0.41659  0.69177  0.88624  1.0000
  S   S321      1.0  0.37907  0.74581  0.88734  1.0000
  Fe  Fe162     1.0  0.40007  0.68994  0.93511  1.0000
  S   S322      1.0  0.42190  0.66427  0.92344  1.0000
  S   S323      1.0  0.38634  0.68429  0.96297  1.0000
  Fe  Fe163     1.0  0.43723  0.68997  0.90704  1.0000
  S   S324      1.0  0.47174  0.69086  0.89738  1.0000
  Fe  Fe164     1.0  0.39926  0.66828  0.90392  1.0000
  S   S325      1.0  0.39014  0.63866  0.89697  1.0000
  S   S326      1.0  0.41710  0.71552  0.92040  1.0000
  S   S327      1.0  0.37679  0.69269  0.91645  1.0000
  Fe  Fe165     1.0  0.62396  0.68397  0.91003  1.0000
  S   S328      1.0  0.63363  0.71487  0.91158  1.0000
  C   C1204     1.0  0.39428  0.76724  0.95664  1.0000
  Fe  Fe166     1.0  0.57927  0.69707  0.92758  1.0000
  S   S329      1.0  0.58637  0.72840  0.93097  1.0000
  S   S330      1.0  0.54691  0.69078  0.94016  1.0000
  Fe  Fe167     1.0  0.60222  0.72926  0.90367  1.0000
  S   S331      1.0  0.59152  0.75506  0.88288  1.0000
  Fe  Fe168     1.0  0.61687  0.71119  0.93855  1.0000
  S   S332      1.0  0.63401  0.71192  0.96116  1.0000
  S   S333      1.0  0.59363  0.69847  0.89998  1.0000
  S   S334      1.0  0.60872  0.67970  0.93731  1.0000
  Fe  Fe169     1.0  0.42245  0.83807  0.82139  1.0000
  S   S335      1.0  0.43626  0.82920  0.79537  1.0000
  S   S336      1.0  0.43101  0.81454  0.84432  1.0000
  Fe  Fe170     1.0  0.40570  0.88207  0.80600  1.0000
  S   S337      1.0  0.41782  0.87632  0.77892  1.0000
  S   S338      1.0  0.38935  0.91393  0.81121  1.0000
  Fe  Fe171     1.0  0.40628  0.84567  0.78646  1.0000
  S   S339      1.0  0.39474  0.82925  0.76749  1.0000
  Fe  Fe172     1.0  0.44668  0.86041  0.78989  1.0000
  S   S340      1.0  0.47776  0.86520  0.77458  1.0000
  S   S341      1.0  0.39132  0.85236  0.81294  1.0000
  S   S342      1.0  0.43547  0.86846  0.81661  1.0000
  Fe  Fe173     1.0  0.60336  0.86588  0.83225  1.0000
  S   S343      1.0  0.58132  0.85603  0.81696  1.0000
  S   S344      1.0  0.61938  0.84323  0.85253  1.0000
  Fe  Fe174     1.0  0.60068  0.90998  0.81205  1.0000
  S   S345      1.0  0.57824  0.90304  0.79546  1.0000
  S   S346      1.0  0.61084  0.94173  0.80361  1.0000
  Fe  Fe175     1.0  0.56305  0.88742  0.82000  1.0000
  S   S347      1.0  0.52856  0.89023  0.82789  1.0000
  Fe  Fe176     1.0  0.59886  0.87253  0.79391  1.0000
  S   S348      1.0  0.61131  0.85740  0.76989  1.0000
  S   S349      1.0  0.58374  0.89656  0.83695  1.0000
  S   S350      1.0  0.62252  0.88025  0.80887  1.0000
  C   C1205     1.0  0.37946  0.72939  0.83474  1.0000
  H   H1450     1.0  0.36945  0.73786  0.92484  1.0000
  C   C1206     1.0  0.60059  0.95748  0.83481  1.0000
  C   C1207     1.0  0.60702  0.96136  0.81717  1.0000
  H   H1451     1.0  0.37899  0.95522  0.82066  1.0000
  H   H1452     1.0  0.64784  0.64090  0.93240  1.0000
  C   C1208     1.0  0.35459  0.75287  0.96447  1.0000
  H   H1453     1.0  0.59808  0.94198  0.84053  1.0000
  C   C1209     1.0  0.56613  0.82869  0.78156  1.0000
  C   C1210     1.0  0.36251  0.61132  0.89622  1.0000
  C   C1211     1.0  0.49368  0.87042  0.78889  1.0000
  C   C1212     1.0  0.48914  0.86387  0.80641  1.0000
  C   C1213     1.0  0.50029  0.86962  0.81824  1.0000
  C   C1214     1.0  0.51637  0.88155  0.81261  1.0000
  C   C1215     1.0  0.52193  0.88700  0.79497  1.0000
  C   C1216     1.0  0.51049  0.88149  0.78307  1.0000
  H   H1454     1.0  0.47724  0.85405  0.81086  1.0000
  H   H1455     1.0  0.49657  0.86462  0.83176  1.0000
  H   H1456     1.0  0.53453  0.89606  0.79054  1.0000
  H   H1457     1.0  0.51430  0.88625  0.76948  1.0000
  C   C1217     1.0  0.40477  0.93387  0.81036  1.0000
  C   C1218     1.0  0.42622  0.93084  0.80470  1.0000
  H   H1458     1.0  0.42300  0.85348  0.86276  1.0000
  H   H1459     1.0  0.43341  0.91646  0.79987  1.0000
  C   C1219     1.0  0.59874  0.86678  0.75151  1.0000
  C   C1220     1.0  0.57892  0.87863  0.75285  1.0000
  H   H1460     1.0  0.52489  0.93647  0.81327  1.0000
  H   H1461     1.0  0.57130  0.88254  0.76526  1.0000
  H   H1462     1.0  0.62038  0.75468  0.84852  1.0000
  H   H1463     1.0  0.56472  0.96480  0.78334  1.0000
  C   C1221     1.0  0.40794  0.96801  0.81757  1.0000
  H   H1464     1.0  0.37230  0.87102  0.76411  1.0000
  C   C1222     1.0  0.46510  0.92286  0.86404  1.0000
  C   C1223     1.0  0.36515  0.73629  0.93902  1.0000
  C   C1224     1.0  0.59732  0.97378  0.84505  1.0000
  H   H1465     1.0  0.37639  0.60007  0.89426  1.0000
  C   C1225     1.0  0.41037  0.75522  0.82901  1.0000
  C   C1226     1.0  0.62006  0.71945  0.98054  1.0000
  C   C1227     1.0  0.32763  0.61665  0.95177  1.0000
  C   C1228     1.0  0.64885  0.78824  0.82094  1.0000
  C   C1229     1.0  0.59922  0.77983  0.87541  1.0000
  C   C1230     1.0  0.58738  0.79345  0.86391  1.0000
  C   C1231     1.0  0.59316  0.81300  0.85705  1.0000
  C   C1232     1.0  0.61102  0.81908  0.86146  1.0000
  C   C1233     1.0  0.62285  0.80548  0.87297  1.0000
  C   C1234     1.0  0.61696  0.78596  0.87997  1.0000
  H   H1466     1.0  0.57369  0.78883  0.86023  1.0000
  H   H1467     1.0  0.58381  0.82332  0.84834  1.0000
  H   H1468     1.0  0.62628  0.77560  0.88871  1.0000
  C   C1235     1.0  0.36462  0.63184  0.89802  1.0000
  C   C1236     1.0  0.34653  0.64622  0.90054  1.0000
  H   H1469     1.0  0.57625  0.83044  0.75492  1.0000
  H   H1470     1.0  0.34786  0.66203  0.90198  1.0000
  C   C1237     1.0  0.37493  0.86550  0.75165  1.0000
  C   C1238     1.0  0.52638  0.95174  0.81622  1.0000
  C   C1239     1.0  0.40522  0.71407  0.97359  1.0000
  H   H1471     1.0  0.41282  0.71665  0.96055  1.0000
  C   C1240     1.0  0.49234  0.68966  0.90986  1.0000
  C   C1241     1.0  0.48874  0.69078  0.92756  1.0000
  C   C1242     1.0  0.50565  0.69078  0.93676  1.0000
  C   C1243     1.0  0.52622  0.68978  0.92832  1.0000
  C   C1244     1.0  0.52982  0.68841  0.91069  1.0000
  C   C1245     1.0  0.51295  0.68837  0.90152  1.0000
  H   H1472     1.0  0.47294  0.69180  0.93411  1.0000
  H   H1473     1.0  0.50273  0.69176  0.95043  1.0000
  H   H1474     1.0  0.54561  0.68727  0.90411  1.0000
  H   H1475     1.0  0.51588  0.68730  0.88785  1.0000
  C   C1246     1.0  0.39348  0.76501  0.87555  1.0000
  C   C1247     1.0  0.38334  0.78168  0.86522  1.0000
  C   C1248     1.0  0.39452  0.79709  0.85564  1.0000
  C   C1249     1.0  0.41595  0.79592  0.85632  1.0000
  C   C1250     1.0  0.42589  0.77954  0.86701  1.0000
  C   C1251     1.0  0.41480  0.76406  0.87645  1.0000
  H   H1476     1.0  0.36679  0.78263  0.86460  1.0000
  H   H1477     1.0  0.38651  0.80999  0.84793  1.0000
  H   H1478     1.0  0.44227  0.77874  0.86799  1.0000
  H   H1479     1.0  0.42276  0.75138  0.88444  1.0000
  H   H1480     1.0  0.61777  0.82238  0.82332  1.0000
  H   H1481     1.0  0.49860  0.73393  0.88302  1.0000
  H   H1482     1.0  0.53431  0.79761  0.74526  1.0000
  H   H1483     1.0  0.48801  0.84658  0.86834  1.0000
  H   H1484     1.0  0.40086  0.98202  0.82304  1.0000
  C   C1252     1.0  0.38524  0.84546  0.74985  1.0000
  H   H1485     1.0  0.43880  0.78258  0.93400  1.0000
  C   C1253     1.0  0.40873  0.72588  0.98606  1.0000
  H   H1486     1.0  0.41703  0.76061  0.78725  1.0000
  C   C1254     1.0  0.65364  0.74921  0.84174  1.0000
  C   C1255     1.0  0.41395  0.77560  0.79275  1.0000
  H   H1487     1.0  0.42320  0.73578  0.85041  1.0000
  C   C1256     1.0  0.60106  0.73272  0.98079  1.0000
  H   H1488     1.0  0.36589  0.74781  0.81405  1.0000
  H   H1489     1.0  0.49376  0.96354  0.81569  1.0000
  H   H1490     1.0  0.65725  0.67550  0.94419  1.0000
  H   H1491     1.0  0.40774  0.96367  0.75535  1.0000
  C   C1257     1.0  0.39356  0.92039  0.74455  1.0000
  H   H1492     1.0  0.42233  0.76515  0.82770  1.0000
  H   H1493     1.0  0.33191  0.76684  0.93959  1.0000
  H   H1494     1.0  0.47496  0.78594  0.84896  1.0000
  H   H1495     1.0  0.51014  0.81504  0.74753  1.0000
  H   H1496     1.0  0.37736  0.72473  0.94478  1.0000
  C   C1258     1.0  0.54581  0.95619  0.81860  1.0000
  H   H1497     1.0  0.43558  0.94262  0.84599  1.0000
  H   H1498     1.0  0.42102  0.77733  0.90976  1.0000
  C   C1259     1.0  0.48545  0.77927  0.85838  1.0000
  H   H1499     1.0  0.47512  0.74931  0.86203  1.0000
  H   H1500     1.0  0.49873  0.80725  0.85730  1.0000
  C   C1260     1.0  0.36221  0.63887  0.94818  1.0000
  C   C1261     1.0  0.48553  0.75870  0.86574  1.0000
  C   C1262     1.0  0.34263  0.60525  0.89677  1.0000
  H   H1501     1.0  0.50695  0.73045  0.90952  1.0000
  S   S351      1.0  0.64867  0.66071  0.89687  1.0000
  C   C1263     1.0  0.42955  0.96449  0.81281  1.0000
  C   C1264     1.0  0.49879  0.79130  0.86317  1.0000
  C   C1265     1.0  0.54961  0.82760  0.79478  1.0000
  C   C1266     1.0  0.62505  0.81916  0.81022  1.0000
  C   C1267     1.0  0.49898  0.75007  0.87790  1.0000
  H   H1502     1.0  0.33920  0.74712  0.96628  1.0000
  N   N84       1.0  0.39397  0.77723  0.80446  1.0000
  C   C1268     1.0  0.51230  0.78285  0.87537  1.0000
  C   C1269     1.0  0.51273  0.76191  0.88319  1.0000
  H   H1503     1.0  0.52902  0.77986  0.90699  1.0000
  H   H1504     1.0  0.50318  0.75503  0.91751  1.0000
  H   H1505     1.0  0.52234  0.79300  0.87834  1.0000
  N   N85       1.0  0.52711  0.75225  0.89585  1.0000
  C   C1270     1.0  0.53935  0.76702  0.90096  1.0000
  H   H1506     1.0  0.54965  0.77375  0.88980  1.0000
  C   C1271     1.0  0.56277  0.82918  0.76447  1.0000
  H   H1507     1.0  0.45678  0.91985  0.87726  1.0000
  C   C1272     1.0  0.51517  0.74311  0.91177  1.0000
  H   H1508     1.0  0.57133  0.67414  0.96886  1.0000
  H   H1509     1.0  0.40494  0.79782  0.81899  1.0000
  H   H1510     1.0  0.55009  0.75919  0.91039  1.0000
  H   H1511     1.0  0.46920  0.93278  0.82967  1.0000
  H   H1512     1.0  0.55324  0.72776  0.89753  1.0000
  H   H1513     1.0  0.52560  0.73602  0.92165  1.0000
  C   C1273     1.0  0.45511  0.89119  0.85714  1.0000
  H   H1514     1.0  0.58160  0.82958  0.78451  1.0000
  H   H1515     1.0  0.54433  0.70301  0.97548  1.0000
  C   C1274     1.0  0.63139  0.77986  0.83073  1.0000
  H   H1516     1.0  0.37827  0.61615  0.93217  1.0000
  C   C1275     1.0  0.43473  0.92576  0.84982  1.0000
  C   C1276     1.0  0.54218  0.73556  0.88837  1.0000
  H   H1517     1.0  0.61534  0.80973  0.80501  1.0000
  H   H1518     1.0  0.42408  0.92430  0.86211  1.0000
  H   H1519     1.0  0.48193  0.91674  0.86439  1.0000
  H   H1520     1.0  0.55176  0.74184  0.87652  1.0000
  H   H1521     1.0  0.53433  0.72328  0.88487  1.0000
  H   H1522     1.0  0.39567  0.71319  0.85555  1.0000
  C   C1277     1.0  0.46172  0.67288  0.98918  1.0000
  C   C1278     1.0  0.47362  0.85647  0.86570  1.0000
  C   C1279     1.0  0.54778  0.97575  0.82255  1.0000
  H   H1523     1.0  0.61564  0.78794  0.83099  1.0000
  N   N86       1.0  0.36317  0.75631  0.94601  1.0000
  H   H1524     1.0  0.42729  0.92082  0.83964  1.0000
  C   C1280     1.0  0.43702  0.86044  0.86260  1.0000
  C   C1281     1.0  0.39935  0.93359  0.75466  1.0000
  H   H1525     1.0  0.40568  0.62708  0.98692  1.0000
  H   H1526     1.0  0.62416  0.83445  0.80203  1.0000
  C   C1282     1.0  0.39434  0.75934  0.81816  1.0000
  H   H1527     1.0  0.38788  0.76460  0.97000  1.0000
  H   H1528     1.0  0.55947  0.94439  0.81741  1.0000
  C   C1283     1.0  0.65576  0.80660  0.79223  1.0000
  H   H1529     1.0  0.63669  0.81003  0.87648  1.0000
  C   C1284     1.0  0.38374  0.76384  0.94305  1.0000
  C   C1285     1.0  0.52964  0.82696  0.79098  1.0000
  C   C1286     1.0  0.61035  0.98150  0.80991  1.0000
  H   H1530     1.0  0.34670  0.78719  0.94125  1.0000
  H   H1531     1.0  0.32568  0.57527  0.94954  1.0000
  H   H1532     1.0  0.41376  0.78837  0.78183  1.0000
  H   H1533     1.0  0.36509  0.74087  0.97182  1.0000
  N   N87       1.0  0.45571  0.91359  0.85154  1.0000
  H   H1534     1.0  0.59222  0.97073  0.85868  1.0000
  H   H1535     1.0  0.45550  0.83116  0.86947  1.0000
  H   H1536     1.0  0.37528  0.64759  0.94646  1.0000
  H   H1537     1.0  0.35031  0.72946  0.94168  1.0000
  H   H1538     1.0  0.48514  0.90870  0.83516  1.0000
  H   H1539     1.0  0.55220  0.82762  0.80796  1.0000
  H   H1540     1.0  0.58532  0.65910  0.98540  1.0000
  C   C1287     1.0  0.42354  0.77754  0.93649  1.0000
  H   H1541     1.0  0.59458  0.73842  0.96892  1.0000
  C   C1288     1.0  0.39560  0.95273  0.81634  1.0000
  H   H1542     1.0  0.46673  0.88550  0.74089  1.0000
  C   C1289     1.0  0.34779  0.77157  0.93706  1.0000
  H   H1543     1.0  0.35198  0.77324  0.92284  1.0000
  C   C1290     1.0  0.39395  0.76788  0.92607  1.0000
  C   C1291     1.0  0.37882  0.74587  0.82143  1.0000
  H   H1544     1.0  0.46249  0.90889  0.82488  1.0000
  N   N88       1.0  0.64695  0.80879  0.81035  1.0000
  H   H1545     1.0  0.37716  0.79230  0.78341  1.0000
  H   H1546     1.0  0.38695  0.76563  0.91507  1.0000
  H   H1547     1.0  0.42204  0.89052  0.85488  1.0000
  H   H1548     1.0  0.45521  0.94336  0.80205  1.0000
  C   C1292     1.0  0.47357  0.87782  0.86107  1.0000
  C   C1293     1.0  0.41098  0.73853  0.84212  1.0000
  C   C1294     1.0  0.56731  0.97994  0.77662  1.0000
  H   H1549     1.0  0.46440  0.93999  0.86068  1.0000
  C   C1295     1.0  0.39179  0.69907  0.97811  1.0000
  C   C1296     1.0  0.41391  0.77392  0.95332  1.0000
  C   C1297     1.0  0.37676  0.77889  0.79378  1.0000
  H   H1550     1.0  0.36115  0.78154  0.80156  1.0000
  H   H1551     1.0  0.48834  0.88364  0.85995  1.0000
  C   C1298     1.0  0.43674  0.88182  0.85805  1.0000
  C   C1299     1.0  0.39547  0.72575  0.84506  1.0000
  H   H1552     1.0  0.59954  0.96996  0.77048  1.0000
  C   C1300     1.0  0.39138  0.79671  0.81237  1.0000
  H   H1553     1.0  0.38980  0.81061  0.80258  1.0000
  H   H1554     1.0  0.37714  0.79796  0.82199  1.0000
  H   H1555     1.0  0.42754  0.77674  0.79930  1.0000
  H   H1556     1.0  0.42091  0.65633  0.97652  1.0000
  H   H1557     1.0  0.37787  0.76480  0.78726  1.0000
  C   C1301     1.0  0.43854  0.94610  0.80595  1.0000
  C   C1302     1.0  0.46868  0.91611  0.83459  1.0000
  H   H1558     1.0  0.65646  0.83879  0.81030  1.0000
  H   H1559     1.0  0.59046  0.68500  0.97702  1.0000
  C   C1303     1.0  0.40358  0.95327  0.74737  1.0000
  C   C1304     1.0  0.32655  0.63475  0.95989  1.0000
  C   C1305     1.0  0.45540  0.84779  0.86637  1.0000
  H   H1560     1.0  0.51673  0.82653  0.80126  1.0000
  C   C1306     1.0  0.41354  0.77459  0.92288  1.0000
  H   H1561     1.0  0.44821  0.67725  0.96556  1.0000
  H   H1562     1.0  0.51006  0.82813  0.77170  1.0000
  H   H1563     1.0  0.41906  0.73752  0.98262  1.0000
  H   H1564     1.0  0.40022  0.92870  0.76827  1.0000
  H   H1565     1.0  0.42176  0.77612  0.96393  1.0000
  H   H1566     1.0  0.36736  0.71944  0.83724  1.0000
  C   C1307     1.0  0.34362  0.64565  0.95808  1.0000
  H   H1567     1.0  0.62437  0.97616  0.74582  1.0000
  H   H1568     1.0  0.35215  0.76745  0.97054  1.0000
  H   H1569     1.0  0.38993  0.90525  0.75042  1.0000
  C   C1308     1.0  0.54252  0.82859  0.76014  1.0000
  H   H1570     1.0  0.51079  0.64703  0.98256  1.0000
  C   C1309     1.0  0.50890  0.96693  0.81768  1.0000
  C   C1310     1.0  0.36388  0.62108  0.94020  1.0000
  H   H1571     1.0  0.64972  0.97673  0.83500  1.0000
  C   C1311     1.0  0.52604  0.82767  0.77395  1.0000
  H   H1572     1.0  0.34133  0.58949  0.89515  1.0000
  H   H1573     1.0  0.56269  0.71524  0.98348  1.0000
  C   C1312     1.0  0.58743  0.98315  0.76903  1.0000
  C   C1313     1.0  0.63388  0.76063  0.84094  1.0000
  C   C1314     1.0  0.32668  0.64025  0.90076  1.0000
  H   H1574     1.0  0.44379  0.86204  0.74560  1.0000
  C   C1315     1.0  0.44738  0.66985  0.97875  1.0000
  H   H1575     1.0  0.51032  0.85229  0.74582  1.0000
  H   H1576     1.0  0.34244  0.65961  0.96417  1.0000
  H   H1577     1.0  0.34918  0.59688  0.93480  1.0000
  C   C1316     1.0  0.34690  0.61011  0.94183  1.0000
  C   C1317     1.0  0.43159  0.65773  0.98531  1.0000
  H   H1578     1.0  0.47364  0.68267  0.98417  1.0000
  H   H1579     1.0  0.64798  0.79547  0.78697  1.0000
  H   H1580     1.0  0.56318  0.97853  0.82410  1.0000
  H   H1581     1.0  0.65323  0.82375  0.83103  1.0000
  H   H1582     1.0  0.53748  0.66973  0.97399  1.0000
  S   S352      1.0  0.44610  0.98053  0.81842  1.0000
  N   N89       1.0  0.53816  0.82985  0.74217  1.0000
  C   C1318     1.0  0.57788  0.67499  0.98087  1.0000
  C   C1319     1.0  0.55144  0.70387  0.98724  1.0000
  C   C1320     1.0  0.52615  0.81309  0.74041  1.0000
  H   H1583     1.0  0.63098  0.98108  0.76613  1.0000
  C   C1321     1.0  0.53464  0.66376  0.98743  1.0000
  H   H1584     1.0  0.65354  0.82171  0.78379  1.0000
  H   H1585     1.0  0.65541  0.73441  0.84983  1.0000
  C   C1322     1.0  0.32458  0.61978  0.89881  1.0000
  H   H1586     1.0  0.79703  0.40598  0.09226  1.0000
  H   H1587     1.0  0.84845  0.33117  0.05987  1.0000
  H   H1588     1.0  0.92586  0.36860  0.06902  1.0000
  N   N90       1.0  0.91636  0.34275  0.08688  1.0000
  H   H1589     1.0  0.86090  0.36528  0.05382  1.0000
  H   H1590     1.0  0.89757  0.34798  0.11082  1.0000
  C   C1323     1.0  0.93876  0.34858  0.21907  1.0000
  C   C1324     1.0  0.65982  0.29091  0.06944  1.0000
  C   C1325     1.0  0.86995  0.47622  0.13318  1.0000
  H   H1591     1.0  0.92512  0.34101  0.11230  1.0000
  H   H1592     1.0  0.66323  0.27609  0.11788  1.0000
  H   H1593     1.0  0.74133  0.40495  0.11113  1.0000
  C   C1326     1.0  0.78168  0.34488  0.99516  1.0000
  H   H1594     1.0  0.93848  0.33105  0.06644  1.0000
  C   C1327     1.0  0.81104  0.43625  0.14115  1.0000
  C   C1328     1.0  0.69836  0.24054  0.99667  1.0000
  Fe  Fe177     1.0  0.74398  0.38655  0.06636  1.0000
  S   S353      1.0  0.77789  0.38390  0.05584  1.0000
  S   S354      1.0  0.72818  0.41592  0.07761  1.0000
  Fe  Fe178     1.0  0.73951  0.34278  0.05846  1.0000
  S   S355      1.0  0.77363  0.33759  0.04751  1.0000
  S   S356      1.0  0.72350  0.31528  0.05474  1.0000
  Fe  Fe179     1.0  0.78017  0.35181  0.07003  1.0000
  S   S357      1.0  0.80531  0.33764  0.08710  1.0000
  Fe  Fe180     1.0  0.76807  0.37019  0.03447  1.0000
  S   S358      1.0  0.77710  0.38301  0.00682  1.0000
  S   S359      1.0  0.74652  0.35485  0.08199  1.0000
  S   S360      1.0  0.73383  0.37490  0.04402  1.0000
  C   C1329     1.0  0.93499  0.32843  0.08069  1.0000
  Fe  Fe181     1.0  0.93382  0.35768  0.14053  1.0000
  S   S361      1.0  0.93238  0.37401  0.16349  1.0000
  Fe  Fe182     1.0  0.89079  0.37890  0.13168  1.0000
  S   S362      1.0  0.88581  0.39726  0.15412  1.0000
  S   S363      1.0  0.86950  0.38792  0.11062  1.0000
  Fe  Fe183     1.0  0.91928  0.40197  0.14693  1.0000
  S   S364      1.0  0.93337  0.43067  0.14686  1.0000
  Fe  Fe184     1.0  0.89925  0.36777  0.16920  1.0000
  S   S365      1.0  0.88542  0.35990  0.19673  1.0000
  S   S366      1.0  0.92346  0.38627  0.12327  1.0000
  S   S367      1.0  0.90142  0.34865  0.14744  1.0000
  H   H1595     1.0  0.69142  0.29513  0.10372  1.0000
  C   C1330     1.0  0.89005  0.45813  0.18171  1.0000
  C   C1331     1.0  0.90064  0.44384  0.17072  1.0000
  C   C1332     1.0  0.92099  0.44585  0.16287  1.0000
  C   C1333     1.0  0.93125  0.46113  0.16705  1.0000
  H   H1596     1.0  0.98329  0.37496  0.23279  1.0000
  H   H1597     1.0  0.87387  0.45744  0.18688  1.0000
  H   H1598     1.0  0.89264  0.43202  0.16768  1.0000
  H   H1599     1.0  0.94692  0.46284  0.16115  1.0000
  H   H1600     1.0  0.94913  0.33055  0.08625  1.0000
  C   C1334     1.0  0.92459  0.35061  0.20706  1.0000
  C   C1335     1.0  0.90339  0.35741  0.21171  1.0000
  C   C1336     1.0  0.70286  0.26020  0.99789  1.0000
  H   H1601     1.0  0.95512  0.34329  0.21541  1.0000
  H   H1602     1.0  0.92999  0.34640  0.19433  1.0000
  C   C1337     1.0  0.86406  0.44818  0.11884  1.0000
  C   C1338     1.0  0.73986  0.43892  0.07241  1.0000
  C   C1339     1.0  0.75834  0.43950  0.06109  1.0000
  C   C1340     1.0  0.76833  0.45726  0.05819  1.0000
  C   C1341     1.0  0.90005  0.47412  0.18500  1.0000
  H   H1603     1.0  0.69756  0.22033  0.09810  1.0000
  C   C1342     1.0  0.73104  0.45669  0.08030  1.0000
  H   H1604     1.0  0.76510  0.42623  0.05463  1.0000
  H   H1605     1.0  0.78291  0.45725  0.04971  1.0000
  H   H1606     1.0  0.86725  0.30241  0.07774  1.0000
  H   H1607     1.0  0.71665  0.45646  0.08900  1.0000
  C   C1343     1.0  0.82317  0.35173  0.09348  1.0000
  C   C1344     1.0  0.83482  0.34274  0.10693  1.0000
  C   C1345     1.0  0.84915  0.35352  0.11235  1.0000
  C   C1346     1.0  0.85209  0.37334  0.10421  1.0000
  C   C1347     1.0  0.84058  0.38225  0.09067  1.0000
  C   C1348     1.0  0.82614  0.37154  0.08535  1.0000
  H   H1608     1.0  0.83265  0.32738  0.11325  1.0000
  H   H1609     1.0  0.85780  0.34653  0.12286  1.0000
  H   H1610     1.0  0.84283  0.39755  0.08425  1.0000
  H   H1611     1.0  0.81756  0.37845  0.07479  1.0000
  C   C1349     1.0  0.90959  0.44859  0.22881  1.0000
  H   H1612     1.0  0.78340  0.33812  0.00824  1.0000
  C   C1350     1.0  0.77785  0.43529  0.13128  1.0000
  S   S368      1.0  0.96183  0.33571  0.13099  1.0000
  H   H1613     1.0  0.83571  0.41174  0.13459  1.0000
  H   H1614     1.0  0.74013  0.32638  0.01864  1.0000
  C   C1351     1.0  0.98605  0.42718  0.16483  1.0000
  C   C1352     1.0  0.68179  0.31784  0.06984  1.0000
  C   C1353     1.0  0.69849  0.30683  0.06024  1.0000
  C   C1354     1.0  0.69556  0.28807  0.05495  1.0000
  C   C1355     1.0  0.67641  0.28013  0.05954  1.0000
  H   H1615     1.0  0.88818  0.44589  0.13513  1.0000
  H   H1616     1.0  0.68372  0.33230  0.07398  1.0000
  H   H1617     1.0  0.70836  0.27936  0.04756  1.0000
  C   C1356     1.0  0.75051  0.41386  0.11746  1.0000
  H   H1618     1.0  0.87879  0.48207  0.14157  1.0000
  H   H1619     1.0  0.76202  0.44286  0.13053  1.0000
  H   H1620     1.0  0.98939  0.31634  0.16297  1.0000
  C   C1357     1.0  0.67672  0.26753  0.11115  1.0000
  H   H1621     1.0  0.88002  0.36710  0.23223  1.0000
  C   C1358     1.0  0.89806  0.33980  0.07894  1.0000
  N   N91       1.0  0.66087  0.23451  0.11932  1.0000
  C   C1359     1.0  0.88693  0.35596  0.06845  1.0000
  H   H1622     1.0  0.76405  0.42778  0.01011  1.0000
  H   H1623     1.0  0.93549  0.36586  0.08930  1.0000
  H   H1624     1.0  0.67405  0.33631  0.00121  1.0000
  H   H1625     1.0  0.68835  0.35743  0.01602  1.0000
  C   C1360     1.0  0.77645  0.38371  0.11878  1.0000
  H   H1626     1.0  0.82066  0.44356  0.14784  1.0000
  H   H1627     1.0  0.69757  0.22911  0.00802  1.0000
  C   C1361     1.0  0.71146  0.24777  0.09189  1.0000
  H   H1628     1.0  0.71441  0.37324  0.99394  1.0000
  C   C1362     1.0  0.91417  0.43082  0.22039  1.0000
  H   H1629     1.0  0.70584  0.26393  0.01011  1.0000
  H   H1630     1.0  0.73357  0.36361  0.00838  1.0000
  C   C1363     1.0  0.73211  0.32309  0.00805  1.0000
  H   H1631     1.0  0.72221  0.27760  0.08683  1.0000
  C   C1364     1.0  0.72599  0.35965  0.99781  1.0000
  C   C1365     1.0  0.74076  0.47478  0.07699  1.0000
  C   C1366     1.0  0.87305  0.31724  0.07494  1.0000
  C   C1367     1.0  0.80718  0.40871  0.12521  1.0000
  C   C1368     1.0  0.98234  0.40660  0.16446  1.0000
  C   C1369     1.0  0.76112  0.44285  0.00254  1.0000
  C   C1370     1.0  0.92174  0.36418  0.08304  1.0000
  H   H1632     1.0  0.74633  0.43030  0.11194  1.0000
  H   H1633     1.0  0.90440  0.46290  0.22111  1.0000
  H   H1634     1.0  0.98671  0.39929  0.15287  1.0000
  H   H1635     1.0  0.69350  0.33003  0.02405  1.0000
  H   H1636     1.0  0.98014  0.45179  0.18169  1.0000
  H   H1637     1.0  0.89098  0.37147  0.06583  1.0000
  C   C1371     1.0  0.90441  0.29253  0.22562  1.0000
  C   C1372     1.0  0.86248  0.33340  0.06477  1.0000
  C   C1373     1.0  0.81948  0.41831  0.13375  1.0000
  C   C1374     1.0  0.97262  0.39527  0.17884  1.0000
  H   H1638     1.0  0.86834  0.43224  0.11609  1.0000
  H   H1639     1.0  0.97929  0.36690  0.14578  1.0000
  C   C1375     1.0  0.78019  0.41158  0.09569  1.0000
  H   H1640     1.0  0.78374  0.45874  0.14564  1.0000
  H   H1641     1.0  0.77130  0.40431  0.08780  1.0000
  C   C1376     1.0  0.86951  0.35264  0.06142  1.0000
  H   H1642     1.0  0.91610  0.28238  0.21842  1.0000
  H   H1643     1.0  0.77339  0.37932  0.13291  1.0000
  C   C1377     1.0  0.96852  0.42467  0.19457  1.0000
  C   C1378     1.0  0.96570  0.40428  0.19387  1.0000
  C   C1379     1.0  0.75990  0.46100  0.01008  1.0000
  H   H1644     1.0  0.90862  0.37571  0.08801  1.0000
  C   C1380     1.0  0.97861  0.43603  0.18034  1.0000
  C   C1381     1.0  0.88896  0.30545  0.21727  1.0000
  H   H1645     1.0  0.89821  0.30729  0.08974  1.0000
  H   H1646     1.0  0.74470  0.41200  0.13143  1.0000
  H   H1647     1.0  0.93294  0.31187  0.08440  1.0000
  C   C1382     1.0  0.66504  0.21189  0.11796  1.0000
  C   C1383     1.0  0.78586  0.41666  0.12395  1.0000
  N   N92       1.0  0.77335  0.40666  0.11426  1.0000
  C   C1384     1.0  0.89066  0.32027  0.08183  1.0000
  H   H1648     1.0  0.76196  0.45927  0.02350  1.0000
  C   C1385     1.0  0.77886  0.36645  0.99099  1.0000
  H   H1649     1.0  0.77777  0.42863  0.09165  1.0000
  H   H1650     1.0  0.70856  0.34791  0.02918  1.0000
  H   H1651     1.0  0.90993  0.32169  0.11012  1.0000
  C   C1386     1.0  0.79029  0.44476  0.13987  1.0000
  H   H1652     1.0  0.76597  0.37611  0.11255  1.0000
  H   H1653     1.0  0.81466  0.39507  0.11948  1.0000
  H   H1654     1.0  0.79242  0.37632  0.11425  1.0000
  C   C1387     1.0  0.91204  0.33812  0.10581  1.0000
  N   N93       1.0  0.71596  0.34062  0.00306  1.0000
  H   H1655     1.0  0.82450  0.48065  0.08475  1.0000
  H   H1656     1.0  0.72477  0.24031  0.08406  1.0000
  C   C1388     1.0  0.70081  0.34416  0.01864  1.0000
  H   H1657     1.0  0.67457  0.26551  0.05563  1.0000
  C   C1389     1.0  0.84761  0.46100  0.11145  1.0000
  H   H1658     1.0  0.91245  0.43193  0.20686  1.0000
  C   C1390     1.0  0.75956  0.47502  0.06599  1.0000
  C   C1391     1.0  0.69562  0.23645  0.10009  1.0000
  C   C1392     1.0  0.89641  0.36182  0.22858  1.0000
  H   H1659     1.0  0.88879  0.30565  0.20359  1.0000
  H   H1660     1.0  0.72511  0.30864  0.01275  1.0000
  C   C1393     1.0  0.71010  0.26876  0.09347  1.0000
  C   C1394     1.0  0.87386  0.31847  0.22646  1.0000
  H   H1661     1.0  0.83973  0.45406  0.10318  1.0000
  H   H1662     1.0  0.97009  0.37954  0.17819  1.0000
  C   C1395     1.0  0.87524  0.45579  0.12962  1.0000
  C   C1396     1.0  0.98476  0.44226  0.13515  1.0000
  H   H1663     1.0  0.74454  0.31972  0.99728  1.0000
  H   H1664     1.0  0.86210  0.32876  0.21977  1.0000
  C   C1397     1.0  0.93185  0.35305  0.23586  1.0000
  H   H1665     1.0  0.95787  0.39551  0.20487  1.0000
  H   H1666     1.0  0.97452  0.33359  0.18851  1.0000
  H   H1667     1.0  0.67975  0.20447  0.12311  1.0000
  H   H1668     1.0  0.67262  0.23178  0.14361  1.0000
  H   H1669     1.0  0.96266  0.43182  0.20616  1.0000
  H   H1670     1.0  0.80628  0.47318  0.10333  1.0000
  H   H1671     1.0  0.96985  0.45256  0.13828  1.0000
  C   C1398     1.0  0.69274  0.27862  0.10304  1.0000
  C   C1399     1.0  0.98748  0.34133  0.13078  1.0000
  C   C1400     1.0  0.67783  0.24599  0.11021  1.0000
  H   H1672     1.0  0.98042  0.42776  0.13190  1.0000
  C   C1401     1.0  0.92092  0.47500  0.17830  1.0000
  C   C1402     1.0  0.66260  0.30990  0.07442  1.0000
  C   C1403     1.0  0.92060  0.41158  0.22931  1.0000
  C   C1404     1.0  0.75614  0.48094  0.00054  1.0000
  H   H1673     1.0  0.66586  0.20871  0.10442  1.0000
  H   H1674     1.0  0.92361  0.39784  0.22278  1.0000
  H   H1675     1.0  0.98785  0.46974  0.15572  1.0000
  C   C1405     1.0  0.84190  0.48201  0.11470  1.0000
  H   H1676     1.0  0.65858  0.98423  0.19856  1.0000
  Fe  Fe185     1.0  0.80507  0.06529  0.40545  1.0000
  S   S369      1.0  0.77482  0.08706  0.40621  1.0000
  S   S370      1.0  0.83725  0.07549  0.40424  1.0000
  Fe  Fe186     1.0  0.78213  0.02625  0.41556  1.0000
  S   S371      1.0  0.75067  0.04583  0.41751  1.0000
  H   H1677     1.0  0.91789  0.32434  0.26550  1.0000
  Fe  Fe187     1.0  0.76315  0.06368  0.39291  1.0000
  S   S372      1.0  0.74706  0.06894  0.36871  1.0000
  Fe  Fe188     1.0  0.76540  0.06681  0.43063  1.0000
  S   S373      1.0  0.75037  0.07863  0.45564  1.0000
  S   S374      1.0  0.79441  0.04308  0.39031  1.0000
  S   S375      1.0  0.79588  0.04593  0.43044  1.0000
  H   H1678     1.0  0.78199  0.11252  0.45325  1.0000
  H   H1679     1.0  0.79510  0.06894  0.45620  1.0000
  Fe  Fe189     1.0  0.92469  0.38197  0.30581  1.0000
  S   S376      1.0  0.95603  0.37468  0.29042  1.0000
  S   S377      1.0  0.91024  0.41570  0.30710  1.0000
  Fe  Fe190     1.0  0.91765  0.33604  0.31294  1.0000
  S   S378      1.0  0.94827  0.32610  0.29757  1.0000
  S   S379      1.0  0.89892  0.30926  0.32267  1.0000
  Fe  Fe191     1.0  0.96073  0.34788  0.31105  1.0000
  H   H1680     1.0  0.87977  0.33971  0.27144  1.0000
  Fe  Fe192     1.0  0.94044  0.35357  0.27835  1.0000
  S   S380      1.0  0.95043  0.35040  0.25028  1.0000
  S   S381      1.0  0.93069  0.35655  0.32782  1.0000
  S   S382      1.0  0.90857  0.36218  0.29232  1.0000
  Fe  Fe193     1.0  0.94016  0.17969  0.39754  1.0000
  S   S383      1.0  0.93380  0.20260  0.41655  1.0000
  S   S384      1.0  0.97331  0.17356  0.38429  1.0000
  Fe  Fe194     1.0  0.89331  0.17681  0.39833  1.0000
  S   S385      1.0  0.88399  0.20050  0.41699  1.0000
  S   S386      1.0  0.86579  0.16580  0.38907  1.0000
  Fe  Fe195     1.0  0.90837  0.21819  0.40085  1.0000
  S   S387      1.0  0.90693  0.25320  0.39465  1.0000
  Fe  Fe196     1.0  0.91037  0.18274  0.43061  1.0000
  S   S388      1.0  0.90845  0.17029  0.45882  1.0000
  S   S389      1.0  0.91574  0.19615  0.38112  1.0000
  S   S390      1.0  0.91863  0.15814  0.41274  1.0000
  H   H1681     1.0  0.97901  0.21736  0.40496  1.0000
  H   H1682     1.0  0.94706  0.26699  0.39298  1.0000
  C   C1406     1.0  0.75614  0.01780  0.47029  1.0000
  H   H1683     1.0  0.79655  0.15135  0.43242  1.0000
  H   H1684     1.0  0.95016  0.24459  0.40825  1.0000
  H   H1685     1.0  0.91722  0.28248  0.24904  1.0000
  C   C1407     1.0  0.91062  0.35964  0.24067  1.0000
  H   H1686     1.0  0.88671  0.21169  0.46411  1.0000
  C   C1408     1.0  0.90363  0.29305  0.34207  1.0000
  C   C1409     1.0  0.90018  0.27221  0.34411  1.0000
  C   C1410     1.0  0.90219  0.25945  0.35987  1.0000
  C   C1411     1.0  0.90689  0.26766  0.37393  1.0000
  C   C1412     1.0  0.91061  0.28839  0.37180  1.0000
  C   C1413     1.0  0.90930  0.30093  0.35590  1.0000
  H   H1687     1.0  0.89571  0.26598  0.33352  1.0000
  H   H1688     1.0  0.89929  0.24355  0.36136  1.0000
  H   H1689     1.0  0.91414  0.29494  0.38260  1.0000
  H   H1690     1.0  0.91182  0.31697  0.35457  1.0000
  N   N94       1.0  0.77199  0.00632  0.48116  1.0000
  H   H1691     1.0  0.79339  0.99763  0.45900  1.0000
  H   H1692     1.0  0.90519  0.36338  0.25355  1.0000
  H   H1693     1.0  0.98475  0.18861  0.46187  1.0000
  H   H1694     1.0  0.95521  0.22182  0.38441  1.0000
  C   C1414     1.0  0.95799  0.44749  0.31041  1.0000
  C   C1415     1.0  0.94668  0.43130  0.30935  1.0000
  C   C1416     1.0  0.92512  0.43549  0.30869  1.0000
  C   C1417     1.0  0.91508  0.45606  0.30891  1.0000
  H   H1695     1.0  0.95459  0.41555  0.30931  1.0000
  C   C1418     1.0  0.82095  0.14285  0.47052  1.0000
  C   C1419     1.0  0.95904  0.25566  0.39923  1.0000
  N   N95       1.0  0.73839  0.00307  0.37282  1.0000
  C   C1420     1.0  0.84505  0.10065  0.39934  1.0000
  C   C1421     1.0  0.86440  0.10363  0.40368  1.0000
  C   C1422     1.0  0.87100  0.12339  0.40064  1.0000
  C   C1423     1.0  0.85847  0.14042  0.39289  1.0000
  C   C1424     1.0  0.83933  0.13737  0.38819  1.0000
  C   C1425     1.0  0.83254  0.11767  0.39155  1.0000
  H   H1696     1.0  0.87431  0.09056  0.40958  1.0000
  H   H1697     1.0  0.88584  0.12539  0.40419  1.0000
  H   H1698     1.0  0.82956  0.15035  0.38206  1.0000
  H   H1699     1.0  0.81772  0.11561  0.38798  1.0000
  H   H1700     1.0  0.67177  0.07403  0.39073  1.0000
  H   H1701     1.0  0.72066  0.00559  0.39790  1.0000
  N   N96       1.0  0.89176  0.30724  0.27113  1.0000
  C   C1426     1.0  0.83417  0.15441  0.47626  1.0000
  C   C1427     1.0  0.89546  0.20567  0.47477  1.0000
  C   C1428     1.0  0.72004  0.06992  0.36722  1.0000
  C   C1429     1.0  0.71375  0.06943  0.35108  1.0000
  C   C1430     1.0  0.69247  0.07052  0.34920  1.0000
  C   C1431     1.0  0.67717  0.07229  0.36346  1.0000
  C   C1432     1.0  0.68348  0.07261  0.37963  1.0000
  C   C1433     1.0  0.70480  0.07129  0.38155  1.0000
  H   H1702     1.0  0.72539  0.06837  0.33992  1.0000
  H   H1703     1.0  0.68789  0.07023  0.33669  1.0000
  H   H1704     1.0  0.73783  0.99275  0.34054  1.0000
  H   H1705     1.0  0.70938  0.07179  0.39403  1.0000
  C   C1434     1.0  0.85699  0.15319  0.44951  1.0000
  C   C1435     1.0  0.76606  0.07541  0.47238  1.0000
  C   C1436     1.0  0.78774  0.07035  0.46909  1.0000
  C   C1437     1.0  0.91836  0.42767  0.25523  1.0000
  C   C1438     1.0  0.88699  0.28735  0.28114  1.0000
  H   H1706     1.0  0.92008  0.42556  0.26877  1.0000
  H   H1707     1.0  0.70902  0.00047  0.32291  1.0000
  C   C1439     1.0  0.98814  0.22868  0.39650  1.0000
  H   H1708     1.0  0.78250  0.13612  0.46168  1.0000
  H   H1709     1.0  0.91424  0.31159  0.28709  1.0000
  S   S391      1.0  0.66187  0.00502  0.30509  1.0000
  H   H1710     1.0  0.66939  0.02990  0.36294  1.0000
  H   H1711     1.0  0.80519  0.99656  0.47828  1.0000
  C   C1440     1.0  0.92646  0.47231  0.30962  1.0000
  C   C1441     1.0  0.73376  0.01207  0.38935  1.0000
  H   H1712     1.0  0.97644  0.16942  0.42083  1.0000
  C   C1442     1.0  0.84388  0.14168  0.44362  1.0000
  H   H1713     1.0  0.89837  0.45942  0.30867  1.0000
  C   C1443     1.0  0.92472  0.46913  0.26356  1.0000
  C   C1444     1.0  0.68754  0.01546  0.34193  1.0000
  H   H1714     1.0  0.79561  0.11177  0.47128  1.0000
  C   C1445     1.0  0.82529  0.13635  0.45384  1.0000
  H   H1715     1.0  0.72986  0.02930  0.38714  1.0000
  H   H1716     1.0  0.97458  0.44398  0.31122  1.0000
  H   H1717     1.0  0.87111  0.28442  0.27958  1.0000
  C   C1446     1.0  0.70074  0.01786  0.36843  1.0000
  H   H1718     1.0  0.92792  0.39500  0.25359  1.0000
  C   C1447     1.0  0.70680  0.00502  0.33575  1.0000
  H   H1719     1.0  0.86238  0.16854  0.47021  1.0000
  H   H1720     1.0  0.87914  0.32496  0.29224  1.0000
  N   N97       1.0  0.97448  0.24486  0.38661  1.0000
  H   H1721     1.0  0.93809  0.47134  0.25337  1.0000
  C   C1448     1.0  0.72316  0.00088  0.34588  1.0000
  H   H1722     1.0  0.88760  0.28736  0.29514  1.0000
  C   C1449     1.0  0.80012  0.06783  0.48244  1.0000
  H   H1723     1.0  0.81359  0.09459  0.43815  1.0000
  H   H1724     1.0  0.96680  0.26425  0.40695  1.0000
  H   H1725     1.0  0.83757  0.10479  0.43482  1.0000
  H   H1726     1.0  0.69736  0.02384  0.38068  1.0000
  H   H1727     1.0  0.76986  0.01036  0.37090  1.0000
  C   C1450     1.0  0.79213  0.12115  0.45891  1.0000
  H   H1728     1.0  0.86050  0.32229  0.27880  1.0000
  C   C1451     1.0  0.87710  0.32431  0.27862  1.0000
  C   C1452     1.0  0.98602  0.26013  0.37505  1.0000
  H   H1729     1.0  0.79710  0.02109  0.46621  1.0000
  C   C1453     1.0  0.76722  0.98501  0.48722  1.0000
  C   C1454     1.0  0.79282  0.00529  0.47072  1.0000
  C   C1455     1.0  0.72073  0.00746  0.36245  1.0000
  H   H1730     1.0  0.74744  0.00874  0.39673  1.0000
  H   H1731     1.0  0.82768  0.09454  0.45606  1.0000
  H   H1732     1.0  0.97671  0.30388  0.34630  1.0000
  H   H1733     1.0  0.75270  0.02856  0.35844  1.0000
  H   H1734     1.0  0.89835  0.27394  0.27706  1.0000
  C   C1456     1.0  0.92288  0.41002  0.24666  1.0000
  N   N98       1.0  0.84600  0.22315  0.36307  1.0000
  C   C1457     1.0  0.83279  0.21240  0.37740  1.0000
  C   C1458     1.0  0.83709  0.22256  0.34698  1.0000
  C   C1459     1.0  0.86732  0.21133  0.36155  1.0000
  C   C1460     1.0  0.84723  0.24443  0.36653  1.0000
  C   C1461     1.0  0.84392  0.26219  0.35413  1.0000
  C   C1462     1.0  0.85323  0.24770  0.38231  1.0000
  C   C1463     1.0  0.84641  0.28189  0.35749  1.0000
  C   C1464     1.0  0.85536  0.26750  0.38561  1.0000
  C   C1465     1.0  0.85211  0.28454  0.37319  1.0000
  H   H1735     1.0  0.83074  0.19674  0.37468  1.0000
  H   H1736     1.0  0.83990  0.20934  0.38959  1.0000
  H   H1737     1.0  0.81705  0.22159  0.37988  1.0000
  H   H1738     1.0  0.84735  0.22841  0.33541  1.0000
  H   H1739     1.0  0.82121  0.23175  0.34712  1.0000
  H   H1740     1.0  0.83553  0.20639  0.34520  1.0000
  H   H1741     1.0  0.87412  0.20943  0.37382  1.0000
  H   H1742     1.0  0.86743  0.19535  0.35837  1.0000
  H   H1743     1.0  0.87810  0.21924  0.35146  1.0000
  H   H1744     1.0  0.83981  0.26127  0.34161  1.0000
  H   H1745     1.0  0.85710  0.23490  0.39204  1.0000
  H   H1746     1.0  0.84448  0.29517  0.34772  1.0000
  H   H1747     1.0  0.86058  0.26949  0.39757  1.0000
  H   H1748     1.0  0.85466  0.29971  0.37554  1.0000
  C   C1466     1.0  0.97503  0.27675  0.36496  1.0000
  H   H1749     1.0  0.87115  0.15701  0.44147  1.0000
  C   C1467     1.0  0.89039  0.30665  0.25273  1.0000
  C   C1468     1.0  0.85205  0.15969  0.46573  1.0000
  H   H1750     1.0  0.89100  0.11823  0.47287  1.0000
  H   H1751     1.0  0.84851  0.13695  0.43096  1.0000
  H   H1752     1.0  0.76339  0.00386  0.35150  1.0000
  C   C1469     1.0  0.75685  0.01175  0.36298  1.0000
  H   H1753     1.0  0.81691  0.06401  0.47973  1.0000
  C   C1470     1.0  0.90842  0.18655  0.47460  1.0000
  H   H1754     1.0  0.97428  0.22656  0.36622  1.0000
  H   H1755     1.0  0.75667  0.01122  0.45806  1.0000
  C   C1471     1.0  0.91317  0.31012  0.27348  1.0000
  H   H1756     1.0  0.95821  0.27854  0.36547  1.0000
  H   H1757     1.0  0.74004  0.01792  0.47725  1.0000
  C   C1472     1.0  0.94796  0.46807  0.31052  1.0000
  H   H1758     1.0  0.79462  0.12700  0.42526  1.0000
  C   C1473     1.0  0.68441  0.02155  0.35830  1.0000
  C   C1474     1.0  0.91140  0.44752  0.24660  1.0000
  H   H1759     1.0  0.80749  0.13914  0.47940  1.0000
  C   C1475     1.0  0.96327  0.23418  0.37632  1.0000
  S   S392      1.0  0.78095  0.99229  0.42579  1.0000
  H   H1760     1.0  0.67507  0.01916  0.33391  1.0000
  H   H1761     1.0  0.95098  0.24493  0.36994  1.0000
  H   H1762     1.0  0.75862  0.03426  0.46636  1.0000
  N   N99       1.0  0.81153  0.12444  0.44712  1.0000
  C   C1476     1.0  0.82307  0.10374  0.44395  1.0000
  H   H1763     1.0  0.83062  0.15914  0.48902  1.0000
  C   C1477     1.0  0.80502  0.13557  0.43068  1.0000
  H   H1764     1.0  0.81850  0.13744  0.42063  1.0000
  H   H1765     1.0  0.92520  0.29688  0.27020  1.0000
  H   H1766     1.0  0.97740  0.37714  0.32425  1.0000
  C   C1478     1.0  0.88063  0.11855  0.48489  1.0000
  H   H1767     1.0  0.86430  0.09443  0.48018  1.0000
  H   H1768     1.0  0.89363  0.44875  0.27985  1.0000
  H   H1769     1.0  0.80331  0.98722  0.39151  1.0000
  N   N100      1.0  0.90614  0.46586  0.25612  1.0000
  C   C1479     1.0  0.87446  0.31917  0.24391  1.0000
  C   C1480     1.0  0.90503  0.29291  0.24313  1.0000
  H   H1770     1.0  0.86257  0.33008  0.25001  1.0000
  H   H1771     1.0  0.93003  0.45581  0.27299  1.0000
  C   C1481     1.0  0.98226  0.19154  0.48873  1.0000
  C   C1482     1.0  0.86557  0.10524  0.48894  1.0000
  H   H1772     1.0  0.88440  0.47586  0.27764  1.0000
  H   H1773     1.0  0.87497  0.45919  0.26529  1.0000
  C   C1483     1.0  0.88907  0.46226  0.27030  1.0000
  H   H1774     1.0  0.92943  0.16395  0.48856  1.0000
  C   C1484     1.0  0.91942  0.17875  0.48858  1.0000
  C   C1485     1.0  0.89293  0.21647  0.48922  1.0000
  C   C1486     1.0  0.98548  0.29134  0.35388  1.0000
  H   H1775     1.0  0.88239  0.23092  0.48952  1.0000
  C   C1487     1.0  0.75682  0.07794  0.48923  1.0000
  H   H1776     1.0  0.92141  0.48298  0.27066  1.0000
  Fe  Fe197     1.0  0.75821  0.06694  0.57305  1.0000
  S   S393      1.0  0.78011  0.05750  0.59286  1.0000
  S   S394      1.0  0.72281  0.07256  0.57962  1.0000
  Fe  Fe198     1.0  0.79413  0.06369  0.54344  1.0000
  S   S395      1.0  0.81845  0.05337  0.56144  1.0000
  S   S396      1.0  0.80732  0.06706  0.51538  1.0000
  Fe  Fe199     1.0  0.79519  0.03310  0.57585  1.0000
  H   H1777     1.0  0.97883  0.21063  0.60546  1.0000
  Fe  Fe200     1.0  0.80111  0.07887  0.57630  1.0000
  S   S397      1.0  0.81300  0.10538  0.58622  1.0000
  S   S398      1.0  0.77227  0.04167  0.55674  1.0000
  S   S399      1.0  0.77777  0.09007  0.55751  1.0000
  H   H1778     1.0  0.73594  0.06574  0.61384  1.0000
  Fe  Fe201     1.0  0.96354  0.33393  0.65237  1.0000
  S   S400      1.0  0.96082  0.34737  0.62510  1.0000
  Fe  Fe202     1.0  0.91870  0.34918  0.66485  1.0000
  S   S401      1.0  0.91184  0.36292  0.63828  1.0000
  S   S402      1.0  0.89693  0.35750  0.68843  1.0000
  Fe  Fe203     1.0  0.93078  0.33363  0.62947  1.0000
  S   S403      1.0  0.92599  0.31829  0.60659  1.0000
  Fe  Fe204     1.0  0.94228  0.37525  0.63624  1.0000
  S   S404      1.0  0.94228  0.40899  0.62526  1.0000
  S   S405      1.0  0.93469  0.31860  0.65641  1.0000
  S   S406      1.0  0.94803  0.36301  0.66314  1.0000
  Fe  Fe205     1.0  0.91457  0.16523  0.57146  1.0000
  S   S407      1.0  0.89280  0.19531  0.57032  1.0000
  S   S408      1.0  0.90418  0.13323  0.57349  1.0000
  Fe  Fe206     1.0  0.95368  0.18782  0.56092  1.0000
  S   S409      1.0  0.93416  0.21922  0.55855  1.0000
  C   C1488     1.0  0.97543  0.27315  0.60656  1.0000
  Fe  Fe207     1.0  0.91628  0.20728  0.58328  1.0000
  S   S410      1.0  0.90785  0.22625  0.60578  1.0000
  Fe  Fe208     1.0  0.91300  0.20439  0.54570  1.0000
  S   S411      1.0  0.89833  0.22083  0.52226  1.0000
  S   S412      1.0  0.93683  0.17627  0.58646  1.0000
  S   S413      1.0  0.93374  0.17389  0.54621  1.0000
  C   C1489     1.0  0.90347  0.20829  0.50347  1.0000
  C   C1490     1.0  0.91713  0.18967  0.50283  1.0000
  H   H1779     1.0  0.76732  0.98530  0.51495  1.0000
  H   H1780     1.0  0.87898  0.23827  0.55412  1.0000
  H   H1781     1.0  0.92568  0.18338  0.51341  1.0000
  C   C1491     1.0  0.69974  0.99443  0.60374  1.0000
  H   H1782     1.0  0.87596  0.32297  0.60385  1.0000
  C   C1492     1.0  0.90797  0.34877  0.70761  1.0000
  H   H1783     1.0  0.86193  0.24690  0.57213  1.0000
  H   H1784     1.0  0.94145  0.37718  0.70709  1.0000
  C   C1493     1.0  0.92285  0.29195  0.60702  1.0000
  C   C1494     1.0  0.91657  0.27969  0.62226  1.0000
  C   C1495     1.0  0.91242  0.25942  0.62176  1.0000
  C   C1496     1.0  0.91498  0.25106  0.60611  1.0000
  C   C1497     1.0  0.92218  0.26299  0.59101  1.0000
  C   C1498     1.0  0.92577  0.28343  0.59142  1.0000
  H   H1785     1.0  0.91422  0.28606  0.63435  1.0000
  H   H1786     1.0  0.90691  0.25028  0.63354  1.0000
  H   H1787     1.0  0.92435  0.25665  0.57897  1.0000
  H   H1788     1.0  0.93050  0.29286  0.57957  1.0000
  H   H1789     1.0  0.93244  0.32703  0.69619  1.0000
  C   C1499     1.0  0.95071  0.42727  0.63593  1.0000
  C   C1500     1.0  0.96428  0.42120  0.64842  1.0000
  C   C1501     1.0  0.97183  0.43633  0.65572  1.0000
  C   C1502     1.0  0.96525  0.45756  0.65110  1.0000
  C   C1503     1.0  0.95123  0.46359  0.63899  1.0000
  C   C1504     1.0  0.94426  0.44849  0.63124  1.0000
  H   H1790     1.0  0.96970  0.40491  0.65185  1.0000
  C   C1505     1.0  0.97361  0.22295  0.59523  1.0000
  C   C1506     1.0  0.95181  0.43122  0.73543  1.0000
  H   H1791     1.0  0.93389  0.45328  0.62149  1.0000
  C   C1507     1.0  0.85226  0.10572  0.50436  1.0000
  C   C1508     1.0  0.83846  0.11294  0.58218  1.0000
  C   C1509     1.0  0.85608  0.09979  0.57589  1.0000
  C   C1510     1.0  0.87605  0.10617  0.57354  1.0000
  C   C1511     1.0  0.87865  0.12592  0.57706  1.0000
  C   C1512     1.0  0.86098  0.13918  0.58312  1.0000
  C   C1513     1.0  0.84107  0.13264  0.58579  1.0000
  H   H1792     1.0  0.85441  0.08453  0.57317  1.0000
  H   H1793     1.0  0.88959  0.09573  0.56893  1.0000
  H   H1794     1.0  0.86272  0.15432  0.58603  1.0000
  H   H1795     1.0  0.82761  0.14290  0.59077  1.0000
  C   C1514     1.0  0.79093  0.07019  0.49927  1.0000
  C   C1515     1.0  0.76922  0.07520  0.50271  1.0000
  C   C1516     1.0  0.92018  0.40939  0.67654  1.0000
  H   H1796     1.0  0.76204  0.07713  0.51568  1.0000
  H   H1797     1.0  0.93508  0.41464  0.67804  1.0000
  C   C1517     1.0  0.70901  0.06907  0.60061  1.0000
  C   C1518     1.0  0.68716  0.06995  0.60265  1.0000
  C   C1519     1.0  0.67553  0.06888  0.61914  1.0000
  S   S414      1.0  0.97570  0.47602  0.66008  1.0000
  C   C1520     1.0  0.70754  0.06600  0.63170  1.0000
  C   C1521     1.0  0.71919  0.06655  0.61525  1.0000
  H   H1798     1.0  0.67914  0.07184  0.59140  1.0000
  C   C1522     1.0  0.74782  0.00964  0.61782  1.0000
  H   H1799     1.0  0.98728  0.24275  0.65055  1.0000
  N   N101      1.0  0.87125  0.14836  0.52371  1.0000
  C   C1523     1.0  0.85601  0.14761  0.53957  1.0000
  H   H1800     1.0  0.96610  0.29965  0.62050  1.0000
  H   H1801     1.0  0.88542  0.36872  0.72274  1.0000
  C   C1524     1.0  0.86903  0.13344  0.51200  1.0000
  C   C1525     1.0  0.89918  0.35713  0.72280  1.0000
  H   H1802     1.0  0.84073  0.09510  0.50760  1.0000
  C   C1526     1.0  0.90217  0.43221  0.69716  1.0000
  H   H1803     1.0  0.96326  0.38124  0.69071  1.0000
  S   S415      1.0  0.67156  0.06901  0.65451  1.0000
  H   H1804     1.0  0.96395  0.26001  0.57743  1.0000
  H   H1805     1.0  0.67500  0.11763  0.64919  1.0000
  C   C1527     1.0  0.88240  0.13242  0.49621  1.0000
  H   H1806     1.0  0.73318  0.02764  0.58826  1.0000
  H   H1807     1.0  0.84321  0.11883  0.52757  1.0000
  H   H1808     1.0  0.79558  0.99839  0.55207  1.0000
  C   C1528     1.0  0.77227  0.01868  0.49538  1.0000
  H   H1809     1.0  0.85221  0.17398  0.51083  1.0000
  H   H1810     1.0  0.89564  0.12772  0.53556  1.0000
  N   N102      1.0  0.98636  0.24020  0.59206  1.0000
  C   C1529     1.0  0.97240  0.28329  0.62126  1.0000
  S   S416      1.0  0.80069  0.99948  0.58790  1.0000
  C   C1530     1.0  0.98726  0.24092  0.62358  1.0000
  H   H1811     1.0  0.75697  0.02022  0.50372  1.0000
  N   N103      1.0  0.75201  0.11651  0.61321  1.0000
  C   C1531     1.0  0.76587  0.09892  0.62148  1.0000
  C   C1532     1.0  0.75288  0.11337  0.59493  1.0000
  C   C1533     1.0  0.76057  0.13598  0.61351  1.0000
  C   C1534     1.0  0.73062  0.11776  0.62267  1.0000
  C   C1535     1.0  0.72733  0.11923  0.64059  1.0000
  C   C1536     1.0  0.71263  0.11734  0.61462  1.0000
  C   C1537     1.0  0.70745  0.11934  0.64998  1.0000
  C   C1538     1.0  0.69281  0.11764  0.62414  1.0000
  C   C1539     1.0  0.69027  0.11837  0.64179  1.0000
  H   H1812     1.0  0.76856  0.10135  0.63449  1.0000
  H   H1813     1.0  0.75923  0.08418  0.62273  1.0000
  H   H1814     1.0  0.78168  0.09652  0.61394  1.0000
  H   H1815     1.0  0.74703  0.09872  0.59373  1.0000
  H   H1816     1.0  0.76912  0.11230  0.58821  1.0000
  H   H1817     1.0  0.74368  0.12651  0.58759  1.0000
  H   H1818     1.0  0.76184  0.13876  0.62679  1.0000
  H   H1819     1.0  0.77662  0.13557  0.60627  1.0000
  H   H1820     1.0  0.75050  0.14963  0.60759  1.0000
  H   H1821     1.0  0.74018  0.11991  0.64753  1.0000
  H   H1822     1.0  0.71344  0.11595  0.60112  1.0000
  H   H1823     1.0  0.70537  0.11973  0.66376  1.0000
  H   H1824     1.0  0.67946  0.11636  0.61790  1.0000
  H   H1825     1.0  0.98338  0.24422  0.56494  1.0000
  C   C1540     1.0  0.87962  0.31943  0.57696  1.0000
  C   C1541     1.0  0.90188  0.41731  0.71205  1.0000
  C   C1542     1.0  0.89251  0.14390  0.52905  1.0000
  H   H1826     1.0  0.88323  0.31193  0.55143  1.0000
  H   H1827     1.0  0.86920  0.28699  0.61346  1.0000
  C   C1543     1.0  0.67815  0.99656  0.60872  1.0000
  H   H1828     1.0  0.87014  0.26289  0.59304  1.0000
  H   H1829     1.0  0.91201  0.26733  0.55263  1.0000
  C   C1544     1.0  0.87181  0.29234  0.59982  1.0000
  C   C1545     1.0  0.90367  0.44289  0.66570  1.0000
  H   H1830     1.0  0.94626  0.47991  0.63520  1.0000
  H   H1831     1.0  0.89957  0.28596  0.53709  1.0000
  C   C1546     1.0  0.87249  0.27857  0.58781  1.0000
  H   H1832     1.0  0.86155  0.29327  0.53935  1.0000
  C   C1547     1.0  0.92560  0.33361  0.70783  1.0000
  N   N104      1.0  0.96975  0.37969  0.71695  1.0000
  H   H1833     1.0  0.75686  0.00987  0.58455  1.0000
  C   C1548     1.0  0.86096  0.27740  0.54630  1.0000
  H   H1834     1.0  0.86133  0.26684  0.53641  1.0000
  H   H1835     1.0  0.84559  0.27759  0.55454  1.0000
  C   C1549     1.0  0.89847  0.27083  0.54517  1.0000
  C   C1550     1.0  0.87559  0.31264  0.59443  1.0000
  N   N105      1.0  0.87842  0.27060  0.55675  1.0000
  C   C1551     1.0  0.87707  0.28485  0.56986  1.0000
  H   H1836     1.0  0.90062  0.25907  0.53601  1.0000
  H   H1837     1.0  0.90164  0.47495  0.71772  1.0000
  C   C1552     1.0  0.98292  0.25155  0.60730  1.0000
  H   H1838     1.0  0.88988  0.24275  0.57249  1.0000
  C   C1553     1.0  0.86813  0.16985  0.51478  1.0000
  H   H1839     1.0  0.88996  0.45528  0.66684  1.0000
  H   H1840     1.0  0.77533  0.03469  0.49042  1.0000
  C   C1554     1.0  0.87724  0.24873  0.56427  1.0000
  C   C1555     1.0  0.88014  0.30587  0.56481  1.0000
  C   C1556     1.0  0.85387  0.11956  0.51579  1.0000
  H   H1841     1.0  0.90245  0.46570  0.68922  1.0000
  H   H1842     1.0  0.88278  0.33521  0.57290  1.0000
  H   H1843     1.0  0.71232  0.02031  0.63442  1.0000
  H   H1844     1.0  0.94726  0.31419  0.72345  1.0000
  C   C1557     1.0  0.88265  0.41707  0.67968  1.0000
  N   N106      1.0  0.90217  0.42570  0.68003  1.0000
  H   H1845     1.0  0.85836  0.15871  0.54824  1.0000
  H   H1846     1.0  0.91821  0.44990  0.66516  1.0000
  H   H1847     1.0  0.88202  0.41217  0.66690  1.0000
  C   C1558     1.0  0.90139  0.44376  0.73045  1.0000
  H   H1848     1.0  0.92153  0.40528  0.66321  1.0000
  C   C1559     1.0  0.90216  0.45320  0.69969  1.0000
  H   H1849     1.0  0.91870  0.39464  0.68512  1.0000
  H   H1850     1.0  0.85780  0.13199  0.54714  1.0000
  H   H1851     1.0  0.97443  0.21508  0.58355  1.0000
  H   H1852     1.0  0.98447  0.19422  0.51503  1.0000
  H   H1853     1.0  0.89461  0.15438  0.53833  1.0000
  C   C1560     1.0  0.96376  0.40211  0.71846  1.0000
  H   H1854     1.0  0.65868  0.07001  0.62050  1.0000
  C   C1561     1.0  0.95650  0.40988  0.73444  1.0000
  H   H1855     1.0  0.86862  0.42865  0.68260  1.0000
  C   C1562     1.0  0.70357  0.01321  0.62693  1.0000
  C   C1563     1.0  0.96107  0.43832  0.70479  1.0000
  C   C1564     1.0  0.90159  0.42305  0.72841  1.0000
  H   H1856     1.0  0.88119  0.40298  0.68917  1.0000
  H   H1857     1.0  0.99042  0.43940  0.60859  1.0000
  C   C1565     1.0  0.68564  0.06736  0.63373  1.0000
  H   H1858     1.0  0.83960  0.15157  0.53666  1.0000
  H   H1859     1.0  0.76490  0.00758  0.61321  1.0000
  C   C1566     1.0  0.90170  0.45879  0.71612  1.0000
  H   H1860     1.0  0.90422  0.43739  0.65295  1.0000
  H   H1861     1.0  0.94791  0.36888  0.73821  1.0000
  C   C1567     1.0  0.93397  0.32636  0.72327  1.0000
  H   H1862     1.0  0.90171  0.40112  0.71114  1.0000
  H   H1863     1.0  0.78492  0.01198  0.50340  1.0000
  C   C1568     1.0  0.98418  0.25124  0.63819  1.0000
  H   H1864     1.0  0.71548  0.06497  0.64291  1.0000
  H   H1865     1.0  0.90499  0.14591  0.51806  1.0000
  H   H1866     1.0  0.87033  0.18144  0.52308  1.0000
  H   H1867     1.0  0.97128  0.28257  0.59490  1.0000
  H   H1868     1.0  0.74004  0.08194  0.49188  1.0000
  H   H1869     1.0  0.97190  0.41233  0.69120  1.0000
  C   C1569     1.0  0.90794  0.35028  0.73817  1.0000
  N   N107      1.0  0.73592  0.00048  0.60695  1.0000
  C   C1570     1.0  0.92513  0.33457  0.73849  1.0000
  C   C1571     1.0  0.68198  0.01512  0.63187  1.0000
  H   H1870     1.0  0.96564  0.19061  0.49106  1.0000
  C   C1572     1.0  0.66929  0.00686  0.62278  1.0000
  H   H1871     1.0  0.74288  0.02664  0.61749  1.0000
  H   H1872     1.0  0.87938  0.17207  0.50300  1.0000
  H   H1873     1.0  0.96289  0.44946  0.69332  1.0000
  C   C1573     1.0  0.95870  0.37357  0.70383  1.0000
  C   C1574     1.0  0.71314  0.00275  0.61266  1.0000
  H   H1874     1.0  0.95683  0.22865  0.59918  1.0000
  H   H1875     1.0  0.67502  0.02340  0.64268  1.0000
  H   H1876     1.0  0.73296  0.00388  0.57977  1.0000
  C   C1575     1.0  0.73984  0.01089  0.58914  1.0000
  C   C1576     1.0  0.96599  0.41703  0.70369  1.0000
  H   H1877     1.0  0.95024  0.46193  0.72145  1.0000
  C   C1577     1.0  0.97674  0.27239  0.63703  1.0000
  C   C1578     1.0  0.95405  0.44540  0.72064  1.0000
  H   H1878     1.0  0.97407  0.28033  0.64842  1.0000
  C   C1579     1.0  0.96483  0.36607  0.73320  1.0000
  H   H1879     1.0  0.74604  0.00218  0.63137  1.0000
  H   H1880     1.0  0.96230  0.35658  0.70290  1.0000
  H   H1881     1.0  0.96838  0.34930  0.73147  1.0000
  S   S417      1.0  0.98800  0.18839  0.55097  1.0000
  C   C1580     1.0  0.98074  0.25336  0.57607  1.0000
  H   H1882     1.0  0.98317  0.43163  0.66467  1.0000
  H   H1883     1.0  0.89439  0.14236  0.49243  1.0000
  H   H1884     1.0  0.99033  0.26622  0.57247  1.0000
  H   H1885     1.0  0.99084  0.36008  0.65626  1.0000
  H   H1886     1.0  0.70589  0.98632  0.59275  1.0000
  H   H1887     1.0  0.66820  0.99020  0.60165  1.0000
  H   H1888     1.0  0.99114  0.17549  0.58764  1.0000
  H   H1889     1.0  0.90150  0.41142  0.73963  1.0000
  H   H1890     1.0  0.73542  0.33345  0.97074  1.0000
  H   H1891     1.0  0.70306  0.38629  0.90226  1.0000
  C   C1581     1.0  0.68901  0.46639  0.91380  1.0000
  H   H1892     1.0  0.86810  0.37111  0.89659  1.0000
  H   H1893     1.0  0.77473  0.39175  0.97066  1.0000
  C   C1582     1.0  0.68729  0.44680  0.90973  1.0000
  H   H1894     1.0  0.89142  0.42735  0.83755  1.0000
  Fe  Fe209     1.0  0.76840  0.34030  0.92522  1.0000
  S   S418      1.0  0.73943  0.36364  0.92459  1.0000
  S   S419      1.0  0.77970  0.32422  0.94987  1.0000
  Fe  Fe210     1.0  0.77567  0.34067  0.88642  1.0000
  S   S420      1.0  0.74648  0.36326  0.88290  1.0000
  S   S421      1.0  0.79661  0.32807  0.86362  1.0000
  Fe  Fe211     1.0  0.75746  0.38026  0.90178  1.0000
  S   S422      1.0  0.76152  0.41387  0.89279  1.0000
  Fe  Fe212     1.0  0.73101  0.34437  0.90590  1.0000
  S   S423      1.0  0.69711  0.33788  0.91062  1.0000
  S   S424      1.0  0.78729  0.35844  0.90421  1.0000
  S   S425      1.0  0.75927  0.32023  0.90780  1.0000
  Fe  Fe213     1.0  0.92356  0.38758  0.78801  1.0000
  S   S426      1.0  0.93034  0.37792  0.81513  1.0000
  S   S427      1.0  0.91517  0.42078  0.77700  1.0000
  Fe  Fe214     1.0  0.92931  0.34374  0.77986  1.0000
  S   S428      1.0  0.93556  0.33024  0.80673  1.0000
  S   S429      1.0  0.93603  0.32483  0.75759  1.0000
  Fe  Fe215     1.0  0.90887  0.35427  0.81555  1.0000
  S   S430      1.0  0.88668  0.35513  0.84059  1.0000
  Fe  Fe216     1.0  0.95620  0.35501  0.80421  1.0000
  S   S431      1.0  0.90073  0.36542  0.78876  1.0000
  S   S432      1.0  0.95136  0.36703  0.77708  1.0000
  H   H1895     1.0  0.80575  0.41079  0.87627  1.0000
  C   C1583     1.0  0.92053  0.45702  0.78779  1.0000
  C   C1584     1.0  0.92778  0.43586  0.78746  1.0000
  C   C1585     1.0  0.94430  0.42638  0.79650  1.0000
  C   C1586     1.0  0.95283  0.43769  0.80667  1.0000
  H   H1896     1.0  0.90788  0.46444  0.78064  1.0000
  H   H1897     1.0  0.95050  0.41027  0.79574  1.0000
  H   H1898     1.0  0.96529  0.43013  0.81398  1.0000
  H   H1899     1.0  0.69383  0.40426  0.91743  1.0000
  C   C1587     1.0  0.66788  0.25873  0.94686  1.0000
  H   H1900     1.0  0.84995  0.44472  0.80897  1.0000
  H   H1901     1.0  0.67005  0.00816  0.88898  1.0000
  C   C1588     1.0  0.70425  0.25236  0.93517  1.0000
  H   H1902     1.0  0.70760  0.39681  0.87202  1.0000
  H   H1903     1.0  0.84668  0.38322  0.92273  1.0000
  H   H1904     1.0  0.90098  0.35663  0.74988  1.0000
  H   H1905     1.0  0.79920  0.47458  0.95977  1.0000
  C   C1589     1.0  0.77998  0.34065  0.96541  1.0000
  C   C1590     1.0  0.77716  0.36221  0.96122  1.0000
  S   S433      1.0  0.95506  0.47203  0.82126  1.0000
  H   H1906     1.0  0.66421  0.41895  0.90159  1.0000
  H   H1907     1.0  0.72000  0.40335  0.90674  1.0000
  H   H1908     1.0  0.77525  0.36899  0.94817  1.0000
  C   C1591     1.0  0.74400  0.46933  0.92355  1.0000
  H   H1909     1.0  0.79783  0.41885  0.84638  1.0000
  C   C1592     1.0  0.75570  0.43446  0.90552  1.0000
  C   C1593     1.0  0.74355  0.43267  0.92159  1.0000
  C   C1594     1.0  0.73758  0.45014  0.93049  1.0000
  H   H1910     1.0  0.85278  0.40789  0.80548  1.0000
  C   C1595     1.0  0.70994  0.32935  0.95837  1.0000
  C   C1596     1.0  0.76253  0.45352  0.89879  1.0000
  H   H1911     1.0  0.73829  0.41806  0.92693  1.0000
  H   H1912     1.0  0.72758  0.44889  0.94264  1.0000
  H   H1913     1.0  0.70436  0.26940  0.93262  1.0000
  H   H1914     1.0  0.77189  0.45502  0.88634  1.0000
  C   C1597     1.0  0.82073  0.33733  0.85595  1.0000
  C   C1598     1.0  0.83367  0.32912  0.84201  1.0000
  C   C1599     1.0  0.85363  0.33508  0.83652  1.0000
  C   C1600     1.0  0.86086  0.34909  0.84513  1.0000
  C   C1601     1.0  0.84774  0.35756  0.85879  1.0000
  C   C1602     1.0  0.82774  0.35191  0.86408  1.0000
  H   H1915     1.0  0.82839  0.31785  0.83561  1.0000
  H   H1916     1.0  0.86365  0.32832  0.82603  1.0000
  H   H1917     1.0  0.85326  0.36832  0.86553  1.0000
  H   H1918     1.0  0.81798  0.35855  0.87468  1.0000
  C   C1603     1.0  0.68004  0.17559  0.81850  1.0000
  C   C1604     1.0  0.69272  0.28135  0.89654  1.0000
  C   C1605     1.0  0.70078  0.29917  0.89912  1.0000
  C   C1606     1.0  0.68789  0.31482  0.90742  1.0000
  C   C1607     1.0  0.80938  0.46746  0.91766  1.0000
  C   C1608     1.0  0.66739  0.20755  0.83999  1.0000
  H   H1919     1.0  0.70285  0.26947  0.88996  1.0000
  H   H1920     1.0  0.71689  0.30093  0.89444  1.0000
  H   H1921     1.0  0.67583  0.24834  0.83651  1.0000
  C   C1609     1.0  0.69414  0.23563  0.98107  1.0000
  C   C1610     1.0  0.69869  0.43912  0.89472  1.0000
  H   H1922     1.0  0.78772  0.45597  0.93863  1.0000
  C   C1611     1.0  0.94510  0.45863  0.80756  1.0000
  C   C1612     1.0  0.67180  0.27872  0.90244  1.0000
  H   H1923     1.0  0.84224  0.40699  0.88244  1.0000
  C   C1613     1.0  0.92925  0.46844  0.79784  1.0000
  C   C1614     1.0  0.71876  0.33292  0.97251  1.0000
  H   H1924     1.0  0.82349  0.36043  0.94125  1.0000
  H   H1925     1.0  0.67386  0.21877  0.95880  1.0000
  N   N108      1.0  0.68839  0.24633  0.94971  1.0000
  C   C1615     1.0  0.67404  0.01899  0.83308  1.0000
  C   C1616     1.0  0.67604  0.33104  0.97528  1.0000
  C   C1617     1.0  0.84589  0.36800  0.91938  1.0000
  C   C1618     1.0  0.68859  0.32865  0.95969  1.0000
  N   N109      1.0  0.84140  0.30762  0.90602  1.0000
  C   C1619     1.0  0.84803  0.29130  0.91990  1.0000
  C   C1620     1.0  0.81926  0.30683  0.90428  1.0000
  C   C1621     1.0  0.85416  0.30251  0.88964  1.0000
  C   C1622     1.0  0.84343  0.32825  0.91046  1.0000
  C   C1623     1.0  0.83175  0.33556  0.92551  1.0000
  C   C1624     1.0  0.85681  0.34160  0.90024  1.0000
  C   C1625     1.0  0.70365  0.40236  0.90493  1.0000
  C   C1626     1.0  0.85790  0.36118  0.90468  1.0000
  C   C1627     1.0  0.83889  0.41073  0.86928  1.0000
  H   H1926     1.0  0.83781  0.29287  0.93232  1.0000
  H   H1927     1.0  0.84741  0.27548  0.91673  1.0000
  H   H1928     1.0  0.86431  0.29200  0.92213  1.0000
  H   H1929     1.0  0.80870  0.30828  0.91654  1.0000
  H   H1930     1.0  0.81714  0.29207  0.89989  1.0000
  H   H1931     1.0  0.81346  0.31964  0.89465  1.0000
  H   H1932     1.0  0.85201  0.28711  0.88648  1.0000
  H   H1933     1.0  0.84961  0.31396  0.87857  1.0000
  H   H1934     1.0  0.87116  0.30197  0.89019  1.0000
  H   H1935     1.0  0.82143  0.32623  0.93402  1.0000
  H   H1936     1.0  0.86646  0.33740  0.88863  1.0000
  S   S434      1.0  0.66296  0.25531  0.89955  1.0000
  H   H1937     1.0  0.66894  0.25149  0.85876  1.0000
  H   H1938     1.0  0.69054  0.23266  0.85272  1.0000
  C   C1628     1.0  0.83000  0.41979  0.83541  1.0000
  C   C1629     1.0  0.81388  0.41738  0.84895  1.0000
  H   H1939     1.0  0.90155  0.41776  0.81770  1.0000
  H   H1940     1.0  0.73852  0.35797  0.98683  1.0000
  C   C1630     1.0  0.66834  0.00148  0.82806  1.0000
  H   H1941     1.0  0.67446  0.99685  0.81550  1.0000
  H   H1942     1.0  0.75253  0.46409  0.96215  1.0000
  C   C1631     1.0  0.77688  0.37507  0.97395  1.0000
  C   C1632     1.0  0.69220  0.19136  0.81765  1.0000
  C   C1633     1.0  0.85519  0.41290  0.85583  1.0000
  C   C1634     1.0  0.65893  0.29430  0.91085  1.0000
  H   H1943     1.0  0.83089  0.48150  0.89883  1.0000
  C   C1635     1.0  0.75856  0.44396  0.98529  1.0000
  H   H1944     1.0  0.98443  0.39040  0.80606  1.0000
  H   H1945     1.0  0.68304  0.22140  0.93655  1.0000
  H   H1946     1.0  0.87759  0.44347  0.80368  1.0000
  H   H1947     1.0  0.69838  0.28276  0.95724  1.0000
  H   H1948     1.0  0.88042  0.40557  0.80084  1.0000
  H   H1949     1.0  0.72178  0.44763  0.87272  1.0000
  C   C1636     1.0  0.83289  0.35517  0.92980  1.0000
  H   H1950     1.0  0.86495  0.45290  0.82336  1.0000
  H   H1951     1.0  0.89295  0.39997  0.83560  1.0000
  C   C1637     1.0  0.70198  0.47894  0.90304  1.0000
  C   C1638     1.0  0.68608  0.20716  0.82822  1.0000
  N   N110      1.0  0.69674  0.41819  0.89083  1.0000
  C   C1639     1.0  0.80020  0.46537  0.93471  1.0000
  H   H1952     1.0  0.71970  0.32732  0.94623  1.0000
  H   H1953     1.0  0.72644  0.41222  0.87511  1.0000
  H   H1954     1.0  0.66207  0.25498  0.93534  1.0000
  C   C1640     1.0  0.70944  0.41259  0.87458  1.0000
  H   H1955     1.0  0.78492  0.31533  0.98558  1.0000
  H   H1956     1.0  0.67434  0.20504  0.87268  1.0000
  C   C1641     1.0  0.75687  0.47087  0.90784  1.0000
  C   C1642     1.0  0.68672  0.22414  0.94927  1.0000
  C   C1643     1.0  0.71192  0.45229  0.88407  1.0000
  H   H1957     1.0  0.69626  0.21884  0.82693  1.0000
  N   N111      1.0  0.86799  0.41981  0.82378  1.0000
  C   C1644     1.0  0.88933  0.41605  0.82901  1.0000
  C   C1645     1.0  0.86738  0.40488  0.81158  1.0000
  C   C1646     1.0  0.86491  0.44115  0.81458  1.0000
  C   C1647     1.0  0.85120  0.41747  0.83840  1.0000
  H   H1958     1.0  0.68453  0.02803  0.82433  1.0000
  H   H1959     1.0  0.72024  0.24486  0.93760  1.0000
  H   H1960     1.0  0.66857  0.42923  0.87932  1.0000
  C   C1648     1.0  0.66693  0.31224  0.91327  1.0000
  H   H1961     1.0  0.86870  0.38867  0.81816  1.0000
  C   C1649     1.0  0.67461  0.41699  0.88934  1.0000
  C   C1650     1.0  0.81831  0.41283  0.86584  1.0000
  C   C1651     1.0  0.69412  0.25052  0.96614  1.0000
  H   H1962     1.0  0.68181  0.32626  0.94856  1.0000
  H   H1963     1.0  0.82574  0.42328  0.82254  1.0000
  H   H1964     1.0  0.66925  0.03525  0.88103  1.0000
  H   H1965     1.0  0.70116  0.24779  0.92288  1.0000
  H   H1966     1.0  0.67720  0.43758  0.91860  1.0000
  H   H1967     1.0  0.87078  0.41055  0.85939  1.0000
  H   H1968     1.0  0.70483  0.42363  0.86331  1.0000
  S   S435      1.0  0.98920  0.34508  0.81072  1.0000
  H   H1969     1.0  0.68061  0.47179  0.92554  1.0000
  H   H1970     1.0  0.97421  0.36822  0.74325  1.0000
  H   H1971     1.0  0.68485  0.16334  0.81035  1.0000
  C   C1652     1.0  0.71336  0.47193  0.88821  1.0000
  H   H1972     1.0  0.94621  0.43678  0.74777  1.0000
  H   H1973     1.0  0.75948  0.42981  0.97954  1.0000
  C   C1653     1.0  0.66579  0.02528  0.84912  1.0000
  H   H1974     1.0  0.70157  0.21396  0.95176  1.0000
  H   H1975     1.0  0.95428  0.39988  0.74642  1.0000
  C   C1654     1.0  0.67464  0.23970  0.84969  1.0000
  H   H1976     1.0  0.70651  0.19131  0.80876  1.0000
  C   C1655     1.0  0.78256  0.33201  0.98233  1.0000
  H   H1977     1.0  0.80396  0.45956  0.90843  1.0000
  H   H1978     1.0  0.69033  0.22020  0.98129  1.0000
  C   C1656     1.0  0.75473  0.46325  0.97554  1.0000
  C   C1657     1.0  0.69864  0.27047  0.96788  1.0000
  H   H1979     1.0  0.72393  0.48155  0.88018  1.0000
  C   C1658     1.0  0.80669  0.47584  0.94658  1.0000
  H   H1980     1.0  0.66863  0.27569  0.94490  1.0000
  C   C1659     1.0  0.66164  0.17557  0.82987  1.0000
  H   H1981     1.0  0.67272  0.40163  0.88586  1.0000
  H   H1982     1.0  0.90120  0.44810  0.74317  1.0000
  C   C1660     1.0  0.75355  0.48154  0.98294  1.0000
  H   H1983     1.0  0.67021  0.03933  0.85218  1.0000
  C   C1661     1.0  0.65907  0.21395  0.86969  1.0000
  C   C1662     1.0  0.82494  0.48019  0.91232  1.0000
  C   C1663     1.0  0.70312  0.27510  0.98350  1.0000
  C   C1664     1.0  0.70636  0.33599  0.98850  1.0000
  H   H1984     1.0  0.98877  0.47817  0.83919  1.0000
  C   C1665     1.0  0.68469  0.33459  0.98955  1.0000
  H   H1985     1.0  0.70653  0.29041  0.98453  1.0000
  N   N112      1.0  0.66043  0.22377  0.85158  1.0000
  H   H1986     1.0  0.65944  0.33030  0.97629  1.0000
  C   C1666     1.0  0.65952  0.02320  0.88732  1.0000
  H   H1987     1.0  0.87209  0.48273  0.92831  1.0000
  H   H1988     1.0  0.85029  0.50501  0.12887  1.0000
  H   H1989     1.0  0.84539  0.50852  0.08537  1.0000
  H   H1990     1.0  0.73568  0.52097  0.99243  1.0000
  H   H1991     1.0  0.68492  0.64913  0.02572  1.0000
  H   H1992     1.0  0.74162  0.48705  0.03394  1.0000
  H   H1993     1.0  0.72318  0.49968  0.01974  1.0000
  Fe  Fe217     1.0  0.73139  0.56878  0.07694  1.0000
  S   S436      1.0  0.75694  0.58846  0.07390  1.0000
  S   S437      1.0  0.69680  0.58235  0.08101  1.0000
  Fe  Fe218     1.0  0.76240  0.52963  0.06811  1.0000
  S   S438      1.0  0.78988  0.54728  0.06395  1.0000
  Fe  Fe219     1.0  0.77538  0.56085  0.08810  1.0000
  S   S439      1.0  0.79120  0.55931  0.11222  1.0000
  Fe  Fe220     1.0  0.76892  0.57280  0.05019  1.0000
  S   S440      1.0  0.77409  0.59129  0.02397  1.0000
  S   S441      1.0  0.74867  0.54195  0.09293  1.0000
  S   S442      1.0  0.74265  0.55423  0.05258  1.0000
  Fe  Fe221     1.0  0.90046  0.52142  0.17911  1.0000
  S   S443      1.0  0.91487  0.51820  0.15191  1.0000
  H   H1994     1.0  0.74020  0.62474  0.01564  1.0000
  Fe  Fe222     1.0  0.91350  0.56337  0.17821  1.0000
  S   S444      1.0  0.92912  0.56375  0.15104  1.0000
  S   S445      1.0  0.91565  0.58845  0.19405  1.0000
  Fe  Fe223     1.0  0.90041  0.55136  0.14622  1.0000
  S   S446      1.0  0.88551  0.56363  0.12180  1.0000
  Fe  Fe224     1.0  0.94198  0.53063  0.15930  1.0000
  S   S447      1.0  0.97536  0.51455  0.15529  1.0000
  S   S448      1.0  0.88388  0.55359  0.17298  1.0000
  S   S449      1.0  0.92844  0.53131  0.18684  1.0000
  C   C1667     1.0  0.71876  0.59957  0.00185  1.0000
  C   C1668     1.0  0.97060  0.55013  0.20253  1.0000
  H   H1995     1.0  0.92883  0.48714  0.18100  1.0000
  H   H1996     1.0  0.97419  0.55811  0.15785  1.0000
  H   H1997     1.0  0.72931  0.64084  0.03186  1.0000
  C   C1669     1.0  0.80904  0.50440  0.12061  1.0000
  C   C1670     1.0  0.89925  0.56198  0.22069  1.0000
  C   C1671     1.0  0.90960  0.57935  0.21588  1.0000
  H   H1998     1.0  0.72147  0.64721  0.01062  1.0000
  C   C1672     1.0  0.81379  0.48631  0.09589  1.0000
  H   H1999     1.0  0.89431  0.55449  0.21101  1.0000
  S   S450      1.0  0.77299  0.49681  0.06140  1.0000
  H   H2000     1.0  0.85973  0.59073  0.21104  1.0000
  C   C1673     1.0  0.81755  0.56061  0.11441  1.0000
  C   C1674     1.0  0.83195  0.56665  0.10044  1.0000
  C   C1675     1.0  0.85278  0.56727  0.10288  1.0000
  C   C1676     1.0  0.85947  0.56159  0.11920  1.0000
  C   C1677     1.0  0.84510  0.55537  0.13313  1.0000
  C   C1678     1.0  0.82422  0.55509  0.13075  1.0000
  H   H2001     1.0  0.82702  0.57103  0.08781  1.0000
  H   H2002     1.0  0.86376  0.57222  0.09205  1.0000
  H   H2003     1.0  0.85001  0.55107  0.14577  1.0000
  H   H2004     1.0  0.81316  0.55049  0.14165  1.0000
  C   C1679     1.0  0.78081  0.57590  0.00703  1.0000
  C   C1680     1.0  0.79201  0.55598  0.00963  1.0000
  H   H2005     1.0  0.81778  0.57071  0.18218  1.0000
  H   H2006     1.0  0.79677  0.54999  0.02212  1.0000
  S   S451      1.0  0.88610  0.49503  0.19495  1.0000
  H   H2007     1.0  0.69420  0.64060  0.04589  1.0000
  H   H2008     1.0  0.80106  0.49748  0.09027  1.0000
  H   H2009     1.0  0.97160  0.53702  0.19485  1.0000
  H   H2010     1.0  0.83183  0.59061  0.15619  1.0000
  H   H2011     1.0  0.84588  0.64411  0.15924  1.0000
  H   H2012     1.0  0.66045  0.73654  0.09817  1.0000
  H   H2013     1.0  0.77925  0.48653  0.02508  1.0000
  H   H2014     1.0  0.67670  0.62625  0.03910  1.0000
  C   C1681     1.0  0.72550  0.63419  0.02074  1.0000
  H   H2015     1.0  0.83139  0.57042  0.20975  1.0000
  H   H2016     1.0  0.95443  0.55863  0.20220  1.0000
  C   C1682     1.0  0.68682  0.60923  0.08079  1.0000
  C   C1683     1.0  0.69964  0.62408  0.08162  1.0000
  C   C1684     1.0  0.69122  0.64527  0.08105  1.0000
  H   H2017     1.0  0.86848  0.64733  0.14362  1.0000
  H   H2018     1.0  0.71602  0.61922  0.08283  1.0000
  H   H2019     1.0  0.70131  0.65657  0.08172  1.0000
  H   H2020     1.0  0.96083  0.62207  0.23012  1.0000
  N   N113      1.0  0.75534  0.49988  0.00886  1.0000
  H   H2021     1.0  0.71797  0.60976  0.05075  1.0000
  H   H2022     1.0  0.67466  0.70626  0.13891  1.0000
  H   H2023     1.0  0.98304  0.57112  0.22651  1.0000
  N   N114      1.0  0.70814  0.62167  0.02592  1.0000
  H   H2024     1.0  0.67140  0.62974  0.00975  1.0000
  C   C1685     1.0  0.79783  0.54413  0.99588  1.0000
  S   S452      1.0  0.66036  0.67895  0.07844  1.0000
  H   H2025     1.0  0.73387  0.59456  0.00620  1.0000
  C   C1686     1.0  0.70345  0.61351  0.01067  1.0000
  H   H2026     1.0  0.95023  0.61628  0.20262  1.0000
  H   H2027     1.0  0.68446  0.71908  0.11844  1.0000
  C   C1687     1.0  0.67185  0.71032  0.12523  1.0000
  C   C1688     1.0  0.71468  0.60421  0.03896  1.0000
  H   H2028     1.0  0.81534  0.51445  0.12812  1.0000
  C   C1689     1.0  0.66194  0.75651  0.12612  1.0000
  H   H2029     1.0  0.70238  0.59393  0.04293  1.0000
  C   C1690     1.0  0.66548  0.61589  0.07946  1.0000
  H   H2030     1.0  0.96353  0.51395  0.22102  1.0000
  H   H2031     1.0  0.91131  0.48944  0.23452  1.0000
  C   C1691     1.0  0.69013  0.63498  0.03439  1.0000
  H   H2032     1.0  0.66986  0.78658  0.12831  1.0000
  H   H2033     1.0  0.80724  0.52909  0.99779  1.0000
  H   H2034     1.0  0.73382  0.48841  0.08306  1.0000
  H   H2035     1.0  0.73744  0.51453  0.03013  1.0000
  C   C1692     1.0  0.89479  0.55449  0.23812  1.0000
  H   H2036     1.0  0.66542  0.94940  0.21702  1.0000
  C   C1693     1.0  0.96649  0.61259  0.20482  1.0000
  H   H2037     1.0  0.72934  0.59451  0.03436  1.0000
  C   C1694     1.0  0.77566  0.49981  0.01510  1.0000
  C   C1695     1.0  0.68404  0.61929  0.00392  1.0000
  C   C1696     1.0  0.96085  0.52774  0.22813  1.0000
  C   C1697     1.0  0.85357  0.48919  0.12586  1.0000
  H   H2038     1.0  0.87450  0.61114  0.18540  1.0000
  N   N115      1.0  0.86409  0.61553  0.15254  1.0000
  C   C1698     1.0  0.88649  0.60703  0.14890  1.0000
  C   C1699     1.0  0.85417  0.61510  0.13691  1.0000
  C   C1700     1.0  0.86244  0.63756  0.15540  1.0000
  C   C1701     1.0  0.85452  0.60343  0.16811  1.0000
  C   C1702     1.0  0.83823  0.59153  0.16782  1.0000
  C   C1703     1.0  0.86182  0.60293  0.18420  1.0000
  C   C1704     1.0  0.82996  0.57991  0.18274  1.0000
  C   C1705     1.0  0.85348  0.59123  0.19901  1.0000
  C   C1706     1.0  0.83759  0.57973  0.19828  1.0000
  H   H2039     1.0  0.88826  0.59053  0.14663  1.0000
  H   H2040     1.0  0.89432  0.61552  0.13718  1.0000
  H   H2041     1.0  0.89549  0.60759  0.15966  1.0000
  H   H2042     1.0  0.85581  0.59904  0.13349  1.0000
  H   H2043     1.0  0.86170  0.62429  0.12542  1.0000
  H   H2044     1.0  0.83728  0.62153  0.13859  1.0000
  H   H2045     1.0  0.87165  0.63951  0.16563  1.0000
  N   N116      1.0  0.97524  0.54278  0.22039  1.0000
  C   C1707     1.0  0.66991  0.65194  0.07962  1.0000
  H   H2046     1.0  0.82115  0.52526  0.09022  1.0000
  C   C1708     1.0  0.97252  0.61589  0.22024  1.0000
  H   H2047     1.0  0.97658  0.60166  0.18030  1.0000
  H   H2048     1.0  0.92335  0.60271  0.22494  1.0000
  C   C1709     1.0  0.83358  0.51391  0.09600  1.0000
  C   C1710     1.0  0.75111  0.51948  0.99720  1.0000
  H   H2049     1.0  0.98148  0.56087  0.19573  1.0000
  N   N117      1.0  0.82486  0.49622  0.10688  1.0000
  C   C1711     1.0  0.97064  0.56103  0.23008  1.0000
  H   H2050     1.0  0.79541  0.51431  0.11524  1.0000
  H   H2051     1.0  0.80304  0.49159  0.12976  1.0000
  H   H2052     1.0  0.84143  0.52280  0.10340  1.0000
  C   C1712     1.0  0.98137  0.60432  0.19225  1.0000
  H   H2053     1.0  0.75096  0.53341  0.00374  1.0000
  C   C1713     1.0  0.91559  0.58913  0.22856  1.0000
  H   H2054     1.0  0.67388  0.69559  0.11934  1.0000
  C   C1714     1.0  0.73866  0.50028  0.02376  1.0000
  C   C1715     1.0  0.98999  0.55046  0.15868  1.0000
  H   H2055     1.0  0.94417  0.53486  0.22791  1.0000
  H   H2056     1.0  0.77584  0.51400  0.02120  1.0000
  H   H2057     1.0  0.67403  0.75435  0.11541  1.0000
  H   H2058     1.0  0.95552  0.57065  0.22767  1.0000
  H   H2059     1.0  0.78869  0.49897  0.00435  1.0000
  C   C1716     1.0  0.77505  0.58370  0.99069  1.0000
  C   C1717     1.0  0.65980  0.77495  0.13345  1.0000
  H   H2060     1.0  0.88463  0.48438  0.23970  1.0000
  Fe  Fe225     1.0  0.78341  0.85616  0.42658  1.0000
  S   S453      1.0  0.80990  0.86064  0.40551  1.0000
  S   S454      1.0  0.79661  0.85161  0.45193  1.0000
  Fe  Fe226     1.0  0.75188  0.85914  0.40056  1.0000
  S   S455      1.0  0.77659  0.86336  0.37800  1.0000
  S   S456      1.0  0.71711  0.86160  0.39808  1.0000
  Fe  Fe227     1.0  0.79711  0.83801  0.39282  1.0000
  S   S457      1.0  0.81521  0.80845  0.38295  1.0000
  Fe  Fe228     1.0  0.78698  0.88548  0.39319  1.0000
  S   S458      1.0  0.79527  0.91718  0.38126  1.0000
  S   S459      1.0  0.77150  0.83227  0.41451  1.0000
  S   S460      1.0  0.76136  0.88257  0.41509  1.0000
  H   H2061     1.0  0.76014  0.92640  0.35264  1.0000
  H   H2062     1.0  0.89510  0.69823  0.48054  1.0000
  S   S461      1.0  0.67621  0.85295  0.33157  1.0000
  H   H2063     1.0  0.79094  0.90171  0.43628  1.0000
  Fe  Fe229     1.0  0.93279  0.69111  0.38086  1.0000
  S   S462      1.0  0.94905  0.71935  0.37313  1.0000
  S   S463      1.0  0.92981  0.67663  0.35681  1.0000
  Fe  Fe230     1.0  0.92805  0.69796  0.41903  1.0000
  S   S464      1.0  0.94498  0.72574  0.41352  1.0000
  S   S465      1.0  0.91110  0.69108  0.44586  1.0000
  Fe  Fe231     1.0  0.92498  0.73528  0.39208  1.0000
  S   S466      1.0  0.91020  0.76919  0.38796  1.0000
  Fe  Fe232     1.0  0.96731  0.70713  0.39517  1.0000
  S   S467      1.0  0.90717  0.70825  0.39818  1.0000
  S   S468      1.0  0.95192  0.67822  0.40238  1.0000
  Fe  Fe233     1.0  0.93965  0.56652  0.31810  1.0000
  S   S469      1.0  0.93743  0.58199  0.29100  1.0000
  S   S470      1.0  0.93720  0.58218  0.34257  1.0000
  Fe  Fe234     1.0  0.95139  0.52236  0.30643  1.0000
  S   S471      1.0  0.95110  0.53497  0.27871  1.0000
  N   N118      1.0  0.69317  0.92641  0.33827  1.0000
  Fe  Fe235     1.0  0.96689  0.56047  0.28425  1.0000
  C   C1718     1.0  0.71784  0.91422  0.38017  1.0000
  Fe  Fe236     1.0  0.92170  0.55493  0.28794  1.0000
  S   S472      1.0  0.89573  0.55415  0.27250  1.0000
  S   S473      1.0  0.97015  0.54630  0.31128  1.0000
  S   S474      1.0  0.92100  0.54101  0.31567  1.0000
  C   C1719     1.0  0.90128  0.56391  0.25078  1.0000
  H   H2064     1.0  0.97662  0.65605  0.33639  1.0000
  C   C1720     1.0  0.79229  0.85245  0.48646  1.0000
  C   C1721     1.0  0.81857  0.93875  0.46876  1.0000
  H   H2065     1.0  0.89527  0.49891  0.25282  1.0000
  C   C1722     1.0  0.97215  0.54313  0.35786  1.0000
  C   C1723     1.0  0.84034  0.80647  0.44698  1.0000
  H   H2066     1.0  0.97179  0.67876  0.47786  1.0000
  H   H2067     1.0  0.84276  0.89411  0.45206  1.0000
  H   H2068     1.0  0.74984  0.91498  0.38326  1.0000
  C   C1724     1.0  0.93263  0.65018  0.35311  1.0000
  C   C1725     1.0  0.93425  0.63375  0.36641  1.0000
  C   C1726     1.0  0.93586  0.61309  0.36287  1.0000
  C   C1727     1.0  0.93598  0.60853  0.34603  1.0000
  C   C1728     1.0  0.93489  0.62493  0.33267  1.0000
  C   C1729     1.0  0.93312  0.64561  0.33623  1.0000
  H   H2069     1.0  0.93378  0.63696  0.37948  1.0000
  H   H2070     1.0  0.93658  0.60054  0.37332  1.0000
  H   H2071     1.0  0.93498  0.62171  0.31966  1.0000
  H   H2072     1.0  0.93190  0.65815  0.32581  1.0000
  H   H2073     1.0  0.82171  0.87977  0.46081  1.0000
  C   C1730     1.0  0.92386  0.69065  0.46409  1.0000
  C   C1731     1.0  0.94555  0.68556  0.46336  1.0000
  C   C1732     1.0  0.89907  0.48543  0.24529  1.0000
  H   H2074     1.0  0.67098  0.90735  0.35271  1.0000
  H   H2075     1.0  0.95488  0.68249  0.45130  1.0000
  H   H2076     1.0  0.86940  0.79607  0.45667  1.0000
  H   H2077     1.0  0.77954  0.92215  0.44903  1.0000
  H   H2078     1.0  0.83736  0.82054  0.45314  1.0000
  H   H2079     1.0  0.90111  0.73265  0.43267  1.0000
  C   C1733     1.0  0.73829  0.91772  0.37438  1.0000
  H   H2080     1.0  0.71363  0.90850  0.39358  1.0000
  C   C1734     1.0  0.77413  0.95480  0.41854  1.0000
  C   C1735     1.0  0.84112  0.79748  0.38643  1.0000
  C   C1736     1.0  0.85597  0.80967  0.38861  1.0000
  C   C1737     1.0  0.87697  0.80068  0.38940  1.0000
  C   C1738     1.0  0.88323  0.77936  0.38850  1.0000
  C   C1739     1.0  0.86813  0.76697  0.38727  1.0000
  C   C1740     1.0  0.84730  0.77607  0.38589  1.0000
  H   H2081     1.0  0.85146  0.82617  0.38899  1.0000
  H   H2082     1.0  0.88848  0.81042  0.39040  1.0000
  H   H2083     1.0  0.87255  0.75052  0.38691  1.0000
  H   H2084     1.0  0.83592  0.76651  0.38420  1.0000
  C   C1741     1.0  0.70648  0.86107  0.37876  1.0000
  C   C1742     1.0  0.71871  0.85373  0.36427  1.0000
  C   C1743     1.0  0.70930  0.85172  0.34979  1.0000
  C   C1744     1.0  0.68766  0.85745  0.34946  1.0000
  C   C1745     1.0  0.67556  0.86555  0.36368  1.0000
  C   C1746     1.0  0.68489  0.86713  0.37830  1.0000
  H   H2085     1.0  0.73531  0.84892  0.36445  1.0000
  H   H2086     1.0  0.71881  0.84538  0.33888  1.0000
  H   H2087     1.0  0.91669  0.58859  0.25573  1.0000
  H   H2088     1.0  0.67528  0.87274  0.38946  1.0000
  C   C1747     1.0  0.79911  0.95662  0.38681  1.0000
  C   C1748     1.0  0.79017  0.93854  0.39324  1.0000
  C   C1749     1.0  0.77738  0.93786  0.40902  1.0000
  H   H2089     1.0  0.80897  0.95732  0.37456  1.0000
  H   H2090     1.0  0.77002  0.92429  0.41393  1.0000
  C   C1750     1.0  0.70023  0.91102  0.32592  1.0000
  C   C1751     1.0  0.78173  0.85289  0.47222  1.0000
  H   H2091     1.0  0.79914  0.89325  0.48319  1.0000
  C   C1752     1.0  0.79100  0.90775  0.44870  1.0000
  H   H2092     1.0  0.75172  0.85446  0.46360  1.0000
  H   H2093     1.0  0.97942  0.62675  0.35860  1.0000
  N   N119      1.0  0.89408  0.73902  0.33969  1.0000
  C   C1753     1.0  0.88747  0.72220  0.33199  1.0000
  C   C1754     1.0  0.91454  0.74334  0.33010  1.0000
  C   C1755     1.0  0.89707  0.73102  0.35770  1.0000
  C   C1756     1.0  0.87876  0.75825  0.33954  1.0000
  C   C1757     1.0  0.85815  0.75924  0.33536  1.0000
  C   C1758     1.0  0.88379  0.77638  0.34482  1.0000
  C   C1759     1.0  0.84361  0.77725  0.33654  1.0000
  C   C1760     1.0  0.86921  0.79434  0.34576  1.0000
  C   C1761     1.0  0.84910  0.79472  0.34180  1.0000
  H   H2094     1.0  0.88450  0.72736  0.31846  1.0000
  H   H2095     1.0  0.89966  0.70819  0.33191  1.0000
  H   H2096     1.0  0.87323  0.71665  0.33954  1.0000
  H   H2097     1.0  0.91271  0.75097  0.31682  1.0000
  H   H2098     1.0  0.92591  0.72884  0.32918  1.0000
  H   H2099     1.0  0.92222  0.75349  0.33649  1.0000
  H   H2100     1.0  0.88210  0.72750  0.36540  1.0000
  H   H2101     1.0  0.90837  0.71650  0.35853  1.0000
  H   H2102     1.0  0.90321  0.74231  0.36410  1.0000
  H   H2103     1.0  0.85270  0.74621  0.33148  1.0000
  H   H2104     1.0  0.89874  0.77658  0.34905  1.0000
  H   H2105     1.0  0.82780  0.77759  0.33375  1.0000
  H   H2106     1.0  0.89960  0.78003  0.42252  1.0000
  H   H2107     1.0  0.66513  0.93463  0.35548  1.0000
  N   N120      1.0  0.88303  0.76017  0.44192  1.0000
  C   C1762     1.0  0.88426  0.75132  0.46012  1.0000
  C   C1763     1.0  0.88573  0.74251  0.43169  1.0000
  C   C1764     1.0  0.90084  0.77194  0.43577  1.0000
  C   C1765     1.0  0.86306  0.77422  0.44049  1.0000
  C   C1766     1.0  0.81164  0.91967  0.46745  1.0000
  H   H2108     1.0  0.93973  0.53890  0.36372  1.0000
  C   C1767     1.0  0.72930  0.92718  0.34546  1.0000
  C   C1768     1.0  0.67176  0.81328  0.37058  1.0000
  H   H2109     1.0  0.82419  0.94882  0.45763  1.0000
  H   H2110     1.0  0.89883  0.74008  0.46152  1.0000
  H   H2111     1.0  0.88424  0.76341  0.46855  1.0000
  H   H2112     1.0  0.87085  0.74276  0.46530  1.0000
  H   H2113     1.0  0.68705  0.95967  0.33756  1.0000
  H   H2114     1.0  0.82414  0.95977  0.48558  1.0000
  H   H2115     1.0  0.70544  0.80829  0.36789  1.0000
  H   H2116     1.0  0.90174  0.78386  0.44410  1.0000
  H   H2117     1.0  0.91615  0.76161  0.43534  1.0000
  C   C1769     1.0  0.97861  0.50350  0.34778  1.0000
  C   C1770     1.0  0.82666  0.89193  0.45045  1.0000
  H   H2118     1.0  0.82740  0.88534  0.43814  1.0000
  H   H2119     1.0  0.70693  0.95077  0.32098  1.0000
  H   H2120     1.0  0.79174  0.80131  0.46926  1.0000
  C   C1771     1.0  0.67402  0.81784  0.40471  1.0000
  H   H2121     1.0  0.87372  0.73204  0.43624  1.0000
  H   H2122     1.0  0.87320  0.80775  0.35037  1.0000
  H   H2123     1.0  0.71554  0.91334  0.31830  1.0000
  H   H2124     1.0  0.68030  0.95010  0.31934  1.0000
  C   C1772     1.0  0.80461  0.90789  0.48311  1.0000
  H   H2125     1.0  0.68890  0.91184  0.31654  1.0000
  C   C1773     1.0  0.79071  0.79936  0.48317  1.0000
  C   C1774     1.0  0.69192  0.94761  0.32867  1.0000
  H   H2126     1.0  0.78502  0.89583  0.45880  1.0000
  H   H2127     1.0  0.80909  0.94146  0.43510  1.0000
  C   C1775     1.0  0.78357  0.97259  0.41237  1.0000
  C   C1776     1.0  0.79584  0.97362  0.39634  1.0000
  H   H2128     1.0  0.88534  0.74796  0.41780  1.0000
  C   C1777     1.0  0.91190  0.69442  0.47987  1.0000
  H   H2129     1.0  0.82391  0.79296  0.48336  1.0000
  H   H2130     1.0  0.84960  0.75727  0.42384  1.0000
  H   H2131     1.0  0.96289  0.52212  0.24179  1.0000
  H   H2132     1.0  0.73465  0.93168  0.33208  1.0000
  H   H2133     1.0  0.81836  0.78216  0.42087  1.0000
  H   H2134     1.0  0.81203  0.81386  0.43514  1.0000
  H   H2135     1.0  0.83757  0.80839  0.34331  1.0000
  H   H2136     1.0  0.75643  0.97630  0.38532  1.0000
  C   C1778     1.0  0.82593  0.80273  0.43691  1.0000
  C   C1779     1.0  0.85860  0.79241  0.44886  1.0000
  H   H2137     1.0  0.67506  0.82000  0.41785  1.0000
  H   H2138     1.0  0.70195  0.89491  0.33272  1.0000
  H   H2139     1.0  0.98495  0.67925  0.36337  1.0000
  H   H2140     1.0  0.81867  0.92002  0.42329  1.0000
  H   H2141     1.0  0.65894  0.87005  0.36362  1.0000
  H   H2142     1.0  0.96839  0.55834  0.36202  1.0000
  H   H2143     1.0  0.76439  0.95403  0.43083  1.0000
  N   N121      1.0  0.81215  0.91171  0.45080  1.0000
  C   C1780     1.0  0.81922  0.92614  0.43561  1.0000
  H   H2144     1.0  0.73011  0.97312  0.38362  1.0000
  H   H2145     1.0  0.83566  0.92866  0.43557  1.0000
  C   C1781     1.0  0.84773  0.77063  0.43067  1.0000
  C   C1782     1.0  0.75997  0.85418  0.47452  1.0000
  C   C1783     1.0  0.69115  0.81112  0.37662  1.0000
  C   C1784     1.0  0.70297  0.91720  0.36871  1.0000
  H   H2146     1.0  0.96978  0.65872  0.36866  1.0000
  C   C1785     1.0  0.70827  0.92382  0.35092  1.0000
  C   C1786     1.0  0.74402  0.92420  0.35707  1.0000
  C   C1787     1.0  0.95510  0.68346  0.47843  1.0000
  H   H2147     1.0  0.67219  0.81185  0.35713  1.0000
  H   H2148     1.0  0.97757  0.59163  0.29659  1.0000
  C   C1788     1.0  0.81858  0.94533  0.48479  1.0000
  C   C1789     1.0  0.82952  0.78478  0.42893  1.0000
  H   H2149     1.0  0.88642  0.54130  0.24181  1.0000
  C   C1790     1.0  0.95540  0.53195  0.35912  1.0000
  C   C1791     1.0  0.74387  0.98028  0.37686  1.0000
  H   H2150     1.0  0.80914  0.85125  0.48478  1.0000
  S   S475      1.0  0.96277  0.48783  0.31231  1.0000
  C   C1792     1.0  0.76465  0.97177  0.47528  1.0000
  C   C1793     1.0  0.91189  0.58112  0.24597  1.0000
  H   H2151     1.0  0.94548  0.50385  0.35448  1.0000
  H   H2152     1.0  0.75759  0.94201  0.47141  1.0000
  C   C1794     1.0  0.98613  0.66217  0.36695  1.0000
  C   C1795     1.0  0.75982  0.95171  0.48072  1.0000
  H   H2153     1.0  0.74966  0.97254  0.36516  1.0000
  H   H2154     1.0  0.68758  0.91372  0.37409  1.0000
  C   C1796     1.0  0.95858  0.51227  0.35392  1.0000
  H   H2155     1.0  0.75728  0.80657  0.48679  1.0000
  C   C1797     1.0  0.67163  0.92338  0.34616  1.0000
  H   H2156     1.0  0.98077  0.48815  0.34384  1.0000
  H   H2157     1.0  0.91851  0.48804  0.30990  1.0000
  H   H2158     1.0  0.70739  0.81293  0.39794  1.0000
  C   C1798     1.0  0.69229  0.81368  0.39356  1.0000
  H   H2159     1.0  0.96931  0.55667  0.24423  1.0000
  H   H2160     1.0  0.66067  0.92567  0.33634  1.0000
  H   H2161     1.0  0.76633  0.97688  0.46162  1.0000
  Fe  Fe237     1.0  0.78054  0.89493  0.55943  1.0000
  S   S476      1.0  0.74707  0.89117  0.55924  1.0000
  S   S477      1.0  0.78935  0.92630  0.54698  1.0000
  Fe  Fe238     1.0  0.79253  0.84866  0.57262  1.0000
  S   S478      1.0  0.75947  0.84205  0.57360  1.0000
  S   S479      1.0  0.81675  0.82193  0.58250  1.0000
  Fe  Fe239     1.0  0.76017  0.86180  0.54788  1.0000
  S   S480      1.0  0.74540  0.85343  0.52619  1.0000
  Fe  Fe240     1.0  0.74914  0.87199  0.58495  1.0000
  S   S481      1.0  0.72439  0.87973  0.60759  1.0000
  S   S482      1.0  0.79366  0.86665  0.54616  1.0000
  S   S483      1.0  0.78219  0.87753  0.58593  1.0000
  H   H2162     1.0  0.79931  0.95592  0.59842  1.0000
  H   H2163     1.0  0.97841  0.54002  0.71537  1.0000
  Fe  Fe241     1.0  0.95703  0.72402  0.56015  1.0000
  H   H2164     1.0  0.81168  0.93843  0.51229  1.0000
  Fe  Fe242     1.0  0.91080  0.73190  0.55334  1.0000
  S   S484      1.0  0.91031  0.69783  0.55227  1.0000
  S   S485      1.0  0.88660  0.75881  0.54381  1.0000
  Fe  Fe243     1.0  0.92826  0.69200  0.57526  1.0000
  S   S486      1.0  0.91960  0.67028  0.59964  1.0000
  Fe  Fe244     1.0  0.94205  0.69786  0.53680  1.0000
  S   S487      1.0  0.95552  0.68242  0.51304  1.0000
  S   S488      1.0  0.92639  0.72630  0.57744  1.0000
  S   S489      1.0  0.94146  0.73189  0.53620  1.0000
  Fe  Fe245     1.0  0.93961  0.55251  0.64445  1.0000
  S   S490      1.0  0.93384  0.56553  0.66976  1.0000
  S   S491      1.0  0.93729  0.57175  0.61807  1.0000
  Fe  Fe246     1.0  0.95927  0.50925  0.66038  1.0000
  H   H2165     1.0  0.75925  0.78029  0.54484  1.0000
  C   C1799     1.0  0.79504  0.98299  0.55891  1.0000
  Fe  Fe247     1.0  0.92401  0.53459  0.68120  1.0000
  S   S492      1.0  0.90154  0.52602  0.70469  1.0000
  C   C1800     1.0  0.66317  0.95129  0.62907  1.0000
  S   S493      1.0  0.92650  0.52263  0.65554  1.0000
  H   H2166     1.0  0.71276  0.92899  0.61707  1.0000
  C   C1801     1.0  0.90644  0.53535  0.72329  1.0000
  C   C1802     1.0  0.90854  0.55624  0.72283  1.0000
  S   S494      1.0  0.97268  0.53771  0.64731  1.0000
  C   C1803     1.0  0.94315  0.68714  0.49421  1.0000
  H   H2167     1.0  0.90779  0.56652  0.71091  1.0000
  N   N122      1.0  0.78699  0.79511  0.53842  1.0000
  H   H2168     1.0  0.94748  0.61708  0.51747  1.0000
  H   H2169     1.0  0.97797  0.58264  0.62761  1.0000
  H   H2170     1.0  0.79395  0.92723  0.58303  1.0000
  H   H2171     1.0  0.91217  0.69576  0.50694  1.0000
  H   H2172     1.0  0.69265  0.95209  0.63775  1.0000
  C   C1804     1.0  0.92647  0.64306  0.60508  1.0000
  C   C1805     1.0  0.91766  0.63351  0.62093  1.0000
  C   C1806     1.0  0.92145  0.61181  0.62534  1.0000
  C   C1807     1.0  0.93398  0.59932  0.61386  1.0000
  C   C1808     1.0  0.94332  0.60891  0.59821  1.0000
  C   C1809     1.0  0.93979  0.63067  0.59393  1.0000
  H   H2173     1.0  0.90740  0.64294  0.62970  1.0000
  H   H2174     1.0  0.91408  0.60470  0.63739  1.0000
  H   H2175     1.0  0.95304  0.59940  0.58923  1.0000
  H   H2176     1.0  0.94690  0.63786  0.58186  1.0000
  C   C1810     1.0  0.83592  0.80447  0.57139  1.0000
  C   C1811     1.0  0.84440  0.78578  0.58051  1.0000
  C   C1812     1.0  0.86012  0.77175  0.57240  1.0000
  C   C1813     1.0  0.86743  0.77619  0.55497  1.0000
  C   C1814     1.0  0.85893  0.79486  0.54584  1.0000
  C   C1815     1.0  0.84349  0.80904  0.55404  1.0000
  H   H2177     1.0  0.83881  0.78216  0.59399  1.0000
  H   H2178     1.0  0.86638  0.75741  0.57959  1.0000
  H   H2179     1.0  0.86461  0.79855  0.53240  1.0000
  H   H2180     1.0  0.83779  0.82371  0.54704  1.0000
  C   C1816     1.0  0.75950  0.85422  0.50540  1.0000
  C   C1817     1.0  0.78120  0.85349  0.50293  1.0000
  C   C1818     1.0  0.79361  0.81435  0.54192  1.0000
  H   H2181     1.0  0.78957  0.85321  0.51371  1.0000
  C   C1819     1.0  0.66126  0.85598  0.62704  1.0000
  C   C1820     1.0  0.70053  0.86967  0.61506  1.0000
  C   C1821     1.0  0.69427  0.85403  0.60761  1.0000
  C   C1822     1.0  0.67481  0.84713  0.61368  1.0000
  H   H2182     1.0  0.93905  0.76841  0.55477  1.0000
  C   C1823     1.0  0.68472  0.94618  0.62881  1.0000
  C   C1824     1.0  0.68710  0.87827  0.62860  1.0000
  H   H2183     1.0  0.70443  0.84721  0.59723  1.0000
  C   C1825     1.0  0.91043  0.56411  0.73798  1.0000
  H   H2184     1.0  0.97336  0.58428  0.72001  1.0000
  H   H2185     1.0  0.69184  0.89022  0.63460  1.0000
  C   C1826     1.0  0.80880  0.79477  0.49113  1.0000
  Fe  Fe248     1.0  0.96607  0.54936  0.67293  1.0000
  C   C1827     1.0  0.79259  0.96659  0.55012  1.0000
  C   C1828     1.0  0.79200  0.94643  0.55876  1.0000
  C   C1829     1.0  0.79413  0.94274  0.57628  1.0000
  C   C1830     1.0  0.79717  0.95903  0.58497  1.0000
  H   H2186     1.0  0.74062  0.96944  0.62018  1.0000
  H   H2187     1.0  0.81802  0.77861  0.54184  1.0000
  H   H2188     1.0  0.82206  0.79037  0.51451  1.0000
  C   C1831     1.0  0.74891  0.85457  0.49114  1.0000
  H   H2189     1.0  0.92136  0.79076  0.54746  1.0000
  S   S495      1.0  0.95595  0.51983  0.68639  1.0000
  H   H2190     1.0  0.79130  0.96950  0.53653  1.0000
  C   C1832     1.0  0.81168  0.93330  0.49987  1.0000
  C   C1833     1.0  0.76077  0.95645  0.51016  1.0000
  C   C1834     1.0  0.96872  0.54445  0.72736  1.0000
  C   C1835     1.0  0.75785  0.94408  0.49813  1.0000
  H   H2191     1.0  0.96482  0.78684  0.56081  1.0000
  C   C1836     1.0  0.66372  0.92970  0.60611  1.0000
  H   H2192     1.0  0.79921  0.90542  0.51086  1.0000
  H   H2193     1.0  0.99020  0.61000  0.66185  1.0000
  H   H2194     1.0  0.97260  0.62818  0.61841  1.0000
  C   C1837     1.0  0.78794  0.79570  0.51957  1.0000
  H   H2195     1.0  0.75461  0.80822  0.54476  1.0000
  C   C1838     1.0  0.74453  0.97815  0.60729  1.0000
  S   S496      1.0  0.98886  0.56625  0.68175  1.0000
  C   C1839     1.0  0.97580  0.59303  0.63784  1.0000
  C   C1840     1.0  0.80124  0.77707  0.54571  1.0000
  S   S497      1.0  0.98280  0.74348  0.55995  1.0000
  H   H2196     1.0  0.76566  0.79229  0.56201  1.0000
  C   C1841     1.0  0.79747  0.97926  0.57638  1.0000
  H   H2197     1.0  0.69552  0.91531  0.59729  1.0000
  H   H2198     1.0  0.67338  0.89233  0.59274  1.0000
  C   C1842     1.0  0.76534  0.97663  0.50489  1.0000
  H   H2199     1.0  0.80918  0.81676  0.53487  1.0000
  C   C1843     1.0  0.66758  0.87158  0.63450  1.0000
  H   H2200     1.0  0.79936  0.77545  0.56004  1.0000
  C   C1844     1.0  0.68578  0.92539  0.60579  1.0000
  H   H2201     1.0  0.97560  0.58343  0.65054  1.0000
  C   C1845     1.0  0.76981  0.80062  0.51099  1.0000
  H   H2202     1.0  0.79448  0.81421  0.55585  1.0000
  H   H2203     1.0  0.75431  0.80405  0.51776  1.0000
  H   H2204     1.0  0.95424  0.55387  0.72307  1.0000
  C   C1846     1.0  0.92609  0.78045  0.55909  1.0000
  C   C1847     1.0  0.69602  0.93337  0.61711  1.0000
  H   H2205     1.0  0.79827  0.76234  0.54181  1.0000
  H   H2206     1.0  0.67019  0.83490  0.60794  1.0000
  N   N123      1.0  0.92957  0.62912  0.53997  1.0000
  C   C1848     1.0  0.91737  0.64489  0.52851  1.0000
  C   C1849     1.0  0.94709  0.63828  0.54432  1.0000
  C   C1850     1.0  0.93861  0.61162  0.52998  1.0000
  C   C1851     1.0  0.91629  0.62274  0.55610  1.0000
  C   C1852     1.0  0.91632  0.60161  0.56329  1.0000
  C   C1853     1.0  0.90402  0.63790  0.56582  1.0000
  C   C1854     1.0  0.90464  0.59620  0.57912  1.0000
  C   C1855     1.0  0.89226  0.63231  0.58153  1.0000
  C   C1856     1.0  0.89263  0.61151  0.58820  1.0000
  H   H2207     1.0  0.92664  0.64880  0.51580  1.0000
  H   H2208     1.0  0.90294  0.63936  0.52618  1.0000
  H   H2209     1.0  0.91276  0.65997  0.53373  1.0000
  H   H2210     1.0  0.94148  0.65254  0.55065  1.0000
  H   H2211     1.0  0.90549  0.58008  0.58475  1.0000
  H   H2212     1.0  0.95638  0.62714  0.55324  1.0000
  H   H2213     1.0  0.92614  0.60346  0.52705  1.0000
  H   H2214     1.0  0.97186  0.62838  0.65053  1.0000
  H   H2215     1.0  0.95000  0.60024  0.53690  1.0000
  H   H2216     1.0  0.92564  0.58895  0.55723  1.0000
  H   H2217     1.0  0.90406  0.65426  0.56178  1.0000
  H   H2218     1.0  0.88366  0.64425  0.58900  1.0000
  H   H2219     1.0  0.88423  0.60727  0.60075  1.0000
  N   N124      1.0  0.93231  0.79236  0.57153  1.0000
  H   H2220     1.0  0.95981  0.60187  0.63793  1.0000
  C   C1857     1.0  0.95225  0.79994  0.56375  1.0000
  C   C1858     1.0  0.93659  0.77806  0.58730  1.0000
  C   C1859     1.0  0.91512  0.80917  0.57581  1.0000
  C   C1860     1.0  0.89514  0.80432  0.58342  1.0000
  C   C1861     1.0  0.91744  0.83058  0.57240  1.0000
  C   C1862     1.0  0.87855  0.81988  0.58733  1.0000
  C   C1863     1.0  0.90067  0.84601  0.57631  1.0000
  C   C1864     1.0  0.88127  0.84066  0.58370  1.0000
  H   H2221     1.0  0.78242  0.82811  0.53782  1.0000
  H   H2222     1.0  0.75966  0.95027  0.52369  1.0000
  C   C1865     1.0  0.80753  0.79310  0.50904  1.0000
  H   H2223     1.0  0.95048  0.80997  0.55133  1.0000
  H   H2224     1.0  0.91266  0.77217  0.56467  1.0000
  H   H2225     1.0  0.95821  0.80856  0.57263  1.0000
  H   H2226     1.0  0.92306  0.76997  0.59305  1.0000
  H   H2227     1.0  0.94994  0.76558  0.58458  1.0000
  H   H2228     1.0  0.94053  0.78654  0.59728  1.0000
  H   H2229     1.0  0.89209  0.78843  0.58622  1.0000
  H   H2230     1.0  0.93197  0.83585  0.56664  1.0000
  H   H2231     1.0  0.86336  0.81585  0.59306  1.0000
  H   H2232     1.0  0.90267  0.86226  0.57352  1.0000
  H   H2233     1.0  0.86822  0.85263  0.58658  1.0000
  H   H2234     1.0  0.95794  0.64281  0.53266  1.0000
  C   C1866     1.0  0.76569  0.79382  0.54781  1.0000
  S   S498      1.0  0.96001  0.68966  0.55963  1.0000
  N   N125      1.0  0.97950  0.55610  0.73725  1.0000
  H   H2235     1.0  0.91117  0.58048  0.73760  1.0000
  C   C1867     1.0  0.92153  0.69300  0.49484  1.0000
  H   H2236     1.0  0.73871  0.97060  0.59763  1.0000
  C   C1868     1.0  0.90717  0.52219  0.73889  1.0000
  C   C1869     1.0  0.98657  0.57421  0.72581  1.0000
  H   H2237     1.0  0.98719  0.71661  0.51881  1.0000
  H   H2238     1.0  0.90549  0.50603  0.73933  1.0000
  H   H2239     1.0  0.67798  0.91277  0.57536  1.0000
  H   H2240     1.0  0.96413  0.53007  0.73524  1.0000
  C   C1870     1.0  0.66568  0.90556  0.58439  1.0000
  C   C1871     1.0  0.80467  0.91464  0.49903  1.0000
  C   C1872     1.0  0.98808  0.61987  0.64936  1.0000
  H   H2241     1.0  0.73211  0.85508  0.49298  1.0000
  C   C1873     1.0  0.98915  0.62069  0.61867  1.0000
  H   H2242     1.0  0.75433  0.92844  0.50234  1.0000
  H   H2243     1.0  0.76187  0.97589  0.60427  1.0000
  C   C1874     1.0  0.77128  0.80225  0.49307  1.0000
  Fe  Fe249     1.0  0.74024  0.56872  0.92598  1.0000
  S   S499      1.0  0.77477  0.57170  0.92188  1.0000
  S   S500      1.0  0.71383  0.59363  0.93508  1.0000
  Fe  Fe250     1.0  0.74878  0.52111  0.92655  1.0000
  S   S501      1.0  0.78329  0.52068  0.92238  1.0000
  H   H2244     1.0  0.67338  0.61432  0.94675  1.0000
  Fe  Fe251     1.0  0.77812  0.54347  0.94151  1.0000
  S   S502      1.0  0.79832  0.53598  0.96296  1.0000
  Fe  Fe252     1.0  0.77761  0.54857  0.90291  1.0000
  S   S503      1.0  0.79807  0.54774  0.87692  1.0000
  S   S504      1.0  0.74395  0.54205  0.94712  1.0000
  S   S505      1.0  0.74267  0.54749  0.90557  1.0000
  Fe  Fe253     1.0  0.96234  0.54510  0.81505  1.0000
  S   S506      1.0  0.95658  0.52568  0.79570  1.0000
  C   C1875     1.0  0.84876  0.59378  0.83711  1.0000
  Fe  Fe254     1.0  0.91814  0.54187  0.83526  1.0000
  S   S507      1.0  0.90987  0.52197  0.81723  1.0000
  S   S508      1.0  0.89582  0.55260  0.85840  1.0000
  Fe  Fe255     1.0  0.94281  0.50586  0.81840  1.0000
  C   C1876     1.0  0.67107  0.75692  0.83228  1.0000
  Fe  Fe256     1.0  0.92469  0.54397  0.79614  1.0000
  S   S509      1.0  0.91226  0.56214  0.77235  1.0000
  S   S510      1.0  0.95036  0.52395  0.83792  1.0000
  S   S511      1.0  0.93100  0.56502  0.81410  1.0000
  C   C1877     1.0  0.84413  0.59058  0.82083  1.0000
  H   H2245     1.0  0.88895  0.59676  0.79336  1.0000
  C   C1878     1.0  0.69571  0.59764  0.98110  1.0000
  H   H2246     1.0  0.84442  0.51169  0.89178  1.0000
  H   H2247     1.0  0.76344  0.52049  0.98593  1.0000
  H   H2248     1.0  0.91031  0.51973  0.76596  1.0000
  H   H2249     1.0  0.83203  0.52838  0.93536  1.0000
  C   C1879     1.0  0.77988  0.57137  0.97717  1.0000
  C   C1880     1.0  0.82267  0.59122  0.81905  1.0000
  C   C1881     1.0  0.66186  0.63412  0.92499  1.0000
  H   H2250     1.0  0.77512  0.57733  0.96468  1.0000
  H   H2251     1.0  0.86021  0.50080  0.94311  1.0000
  C   C1882     1.0  0.82548  0.54812  0.87267  1.0000
  C   C1883     1.0  0.83683  0.53913  0.85844  1.0000
  C   C1884     1.0  0.85848  0.53972  0.85424  1.0000
  C   C1885     1.0  0.86892  0.54992  0.86391  1.0000
  C   C1886     1.0  0.85763  0.55871  0.87827  1.0000
  C   C1887     1.0  0.83605  0.55776  0.88267  1.0000
  H   H2252     1.0  0.82879  0.53165  0.85061  1.0000
  H   H2253     1.0  0.86702  0.53242  0.84344  1.0000
  H   H2254     1.0  0.86554  0.56668  0.88582  1.0000
  H   H2255     1.0  0.82745  0.56513  0.89344  1.0000
  H   H2256     1.0  0.66630  0.67302  0.96478  1.0000
  C   C1888     1.0  0.67634  0.61898  0.93307  1.0000
  C   C1889     1.0  0.69474  0.61007  0.92367  1.0000
  C   C1890     1.0  0.69819  0.61602  0.90593  1.0000
  H   H2257     1.0  0.67572  0.81729  0.81590  1.0000
  S   S512      1.0  0.73459  0.49131  0.93430  1.0000
  H   H2258     1.0  0.71228  0.60936  0.89852  1.0000
  H   H2259     1.0  0.69983  0.70781  0.93718  1.0000
  H   H2260     1.0  0.67281  0.80104  0.79077  1.0000
  C   C1891     1.0  0.73151  0.63583  0.96126  1.0000
  C   C1892     1.0  0.80700  0.59476  0.83280  1.0000
  C   C1893     1.0  0.74133  0.64688  0.97060  1.0000
  H   H2261     1.0  0.86095  0.55254  0.81527  1.0000
  C   C1894     1.0  0.66564  0.64057  0.90736  1.0000
  H   H2262     1.0  0.79999  0.59998  0.85934  1.0000
  C   C1895     1.0  0.96378  0.56411  0.75114  1.0000
  H   H2263     1.0  0.97009  0.57441  0.75844  1.0000
  C   C1896     1.0  0.81213  0.59791  0.84856  1.0000
  H   H2264     1.0  0.75052  0.49588  0.97454  1.0000
  H   H2265     1.0  0.86877  0.61623  0.80158  1.0000
  H   H2266     1.0  0.82459  0.53222  0.91417  1.0000
  H   H2267     1.0  0.79078  0.59461  0.83138  1.0000
  C   C1897     1.0  0.71787  0.67814  0.96252  1.0000
  H   H2268     1.0  0.84418  0.57226  0.79073  1.0000
  H   H2269     1.0  0.84499  0.59997  0.78577  1.0000
  H   H2270     1.0  0.87973  0.56366  0.82411  1.0000
  H   H2271     1.0  0.86732  0.58145  0.78001  1.0000
  C   C1898     1.0  0.83294  0.59768  0.85064  1.0000
  H   H2272     1.0  0.95794  0.55119  0.76030  1.0000
  C   C1899     1.0  0.71483  0.64579  0.95259  1.0000
  C   C1900     1.0  0.68034  0.61141  0.98934  1.0000
  H   H2273     1.0  0.72687  0.58116  0.98075  1.0000
  C   C1901     1.0  0.79152  0.55164  0.97971  1.0000
  H   H2274     1.0  0.68076  0.70492  0.95619  1.0000
  H   H2275     1.0  0.86471  0.59244  0.83979  1.0000
  C   C1902     1.0  0.86519  0.49920  0.92928  1.0000
  H   H2276     1.0  0.88443  0.55882  0.80219  1.0000
  H   H2277     1.0  0.70889  0.67900  0.91850  1.0000
  H   H2278     1.0  0.88520  0.59916  0.81555  1.0000
  C   C1903     1.0  0.90991  0.52993  0.75397  1.0000
  C   C1904     1.0  0.69424  0.67332  0.92502  1.0000
  H   H2279     1.0  0.73684  0.61942  0.96059  1.0000
  C   C1905     1.0  0.67075  0.66907  0.95141  1.0000
  C   C1906     1.0  0.87659  0.60001  0.80433  1.0000
  H   H2280     1.0  0.71335  0.69446  0.96362  1.0000
  H   H2281     1.0  0.67254  0.65195  0.95209  1.0000
  H   H2282     1.0  0.69586  0.65658  0.92367  1.0000
  H   H2283     1.0  0.70761  0.63635  0.94578  1.0000
  C   C1907     1.0  0.68589  0.70040  0.94305  1.0000
  H   H2284     1.0  0.86455  0.49047  0.89740  1.0000
  C   C1908     1.0  0.85395  0.58476  0.79022  1.0000
  H   H2285     1.0  0.81759  0.58857  0.80732  1.0000
  H   H2286     1.0  0.92345  0.48471  0.79830  1.0000
  C   C1909     1.0  0.70768  0.66735  0.95267  1.0000
  H   H2287     1.0  0.83691  0.59968  0.86304  1.0000
  C   C1910     1.0  0.87205  0.56413  0.81240  1.0000
  H   H2288     1.0  0.74218  0.67653  0.97858  1.0000
  C   C1911     1.0  0.68368  0.63116  0.89784  1.0000
  N   N126      1.0  0.84765  0.50553  0.91882  1.0000
  C   C1912     1.0  0.83802  0.52697  0.92164  1.0000
  H   H2289     1.0  0.94985  0.57360  0.74597  1.0000
  C   C1913     1.0  0.85665  0.50602  0.90043  1.0000
  H   H2290     1.0  0.67284  0.70749  0.93549  1.0000
  C   C1914     1.0  0.91112  0.55104  0.75358  1.0000
  C   C1915     1.0  0.66878  0.77614  0.82204  1.0000
  H   H2291     1.0  0.86853  0.51683  0.89686  1.0000
  C   C1916     1.0  0.71489  0.59176  0.98732  1.0000
  H   H2292     1.0  0.84933  0.53827  0.91759  1.0000
  N   N127      1.0  0.69003  0.67749  0.94323  1.0000
  H   H2293     1.0  0.75435  0.63909  0.97724  1.0000
  H   H2294     1.0  0.68665  0.63590  0.88416  1.0000
  N   N128      1.0  0.86123  0.58509  0.80708  1.0000
  C   C1917     1.0  0.82226  0.48858  0.94141  1.0000
  H   H2295     1.0  0.68124  0.68087  0.91756  1.0000
  H   H2296     1.0  0.68278  0.78161  0.81514  1.0000
  H   H2297     1.0  0.87789  0.50897  0.92505  1.0000
  C   C1918     1.0  0.73447  0.66797  0.97130  1.0000
  H   H2298     1.0  0.76184  0.48560  0.90238  1.0000
  H   H2299     1.0  0.69276  0.59145  0.96987  1.0000
  H   H2300     1.0  0.68644  0.74800  0.83302  1.0000
  H   H2301     1.0  0.70375  0.49388  0.90649  1.0000
  H   H2302     1.0  0.76676  0.59924  0.98850  1.0000
  C   C1919     1.0  0.83181  0.49127  0.92408  1.0000
  H   H2303     1.0  0.66541  0.61584  0.98444  1.0000
  H   H2304     1.0  0.82616  0.49697  0.95098  1.0000
  C   C1920     1.0  0.65865  0.82270  0.81713  1.0000
