data_image0
_chemical_formula_structural       FeSCNSCNHFeS2FeS2FeSFeS3FeS2FeSCFeSFeS3CSH5C2HCH2C6H4C3SH3CNHC6H4C6H4NC8H12CHCH3CH4CHFeHSHCNC6H2CH11FeH2CHC3HNC9H9CH2CHCHCHSFeHC3SC2H4CHCSC2H2CH2CH3CHC2H2C2H2CHCH2CHCH2SHCFeH4CHSC4HCHCH2SCH5CH2CHSHCHC2SFeH2SHFeS2FeS2FeSFeCS2FeS2H2FeCFeS3C4HCHC2FeHC6H4SFeC6H4C6H4C2SH4SCNHFeC5FeH2SH2CH2CHSNC9H14NC9H18CH3CHCH3SHCH2C2NSC2H4C2SFeH3CHCNHC2HCH7CH6NC3H2CH3NCFeS2FeS2FeSFeS3FeS2FeS2FeSFeS4C2HCFeS2CSFeSFeSH4C4H4SHC2HC5H3C3HCHCH2C6H4C6H4NCH5C7H4C4HC2HC3HC2HC2HCHCH4CH2NC5H8C3HC2H2CHCH2CHCH9CH4CFeCH6C2H3CHNHCSH4CH2C3NCH2CNH3CSH3CHCHCHNC2HCHC2H3C2HCHC2HCHC2H2NCH2C2HSC2H2CHCFeS2FeS2FeSFeS3CHFeS2FeS2FeSFeS3HFeSH4FeSHSHCNHCH2C3FeH3C8H4C6H4C2NH3C7H4C6H8NHCHC2HCHS2HCH7C2HC2SHFeCHCH3CNC9H15CH2C2HC2H3NC3H4SCHC2HC2HC2H4CS2HCHCHSH2CH4CHCHCH4C3HCH4C3H3CNCHCH2C3HC3HCH3CH3C2HCHC2HCFeS2FeS2FeSFeS3FeS2FeS2FeSFeS3FeSHCSFeSFeSC2HS2CHCHCH2CSCHFeCHC3HCH6C7H4C2H2CH2C3HCHC8H6C4H6CHSH2CHCHCNC9H15CFeCN2HCHCSNH2C2HCHCHC6HCH5C4H5CHCNC7H12CH2C3NC2FeH2CH2CSH7CHSFeCHC4SHC2HC2H4CHSC2HFeNHCH2C2HC2SH6SHCHFeS2FeS2FeSFeS3FeS2FeS2FeSFeS3HFeSCFeSHFeSFeHSHFeS2C2H6CFe2SCSH2CH3C6H3C6H4C6H4C6H6CH3C3H3C3HC5NHCH2C2H2CH2CH4CHSCH4SH5SNC9H14CNH3SH5NCSC2HC2H5CNH2C2HCH2C5H4NC9H10CHSCHC3H2FeH3CHCHCHNH3CH2C3HCH3CHFeSCFeS2Fe2S3HFeHFeSHFeS3FeS2FeS2FeSFeS3FeS2FeS2FeSFeS3CHC4H2NHCHC6H4C6H5CHSH2C6H4C2SCNHCH2CH3CHC2HC3HC3HNC9H15C3H2C2H4C2HC2HCHC2H2C3H5CH5CHC2HCH2CHSC2H4CH2CNCHSHSHC2H3C2NH3CHCHCNCHCH2CHSH4SH5CHCSH2CHCH2C3HCHC3HC2HCHCHCHCH4CH3CH3C4H2CHCHC2HCFeSFeS2FeSFeS2CHCFeS2FeS2FeSFeS3FeSHFeS2Fe2S3FeHSFeSFeSCSHC6H4C6H5C2SC2HCH2C4H3CH2CH2SHCHC6H4C4HCH2C2NCH3CH2CHC2H3CH7SHCH3CH3CH2NH2C2HC3H3C3H3CH2CHCHC3H4CH2CH3C4HCH3CH2CHNC9H18C2SCSCNCSC3HCHNCHSCH2C2H2C3H4CSHCH3C2H2C2HNHC2HCHCHNC9H11CNHCNHCH3C2HCHCHCSH2SCFeSFeS2HFeS2Fe2SFeS2CHCH2CHC5H2C6H5SHFeSH3CHNHC3S2H3CHCH2C2HCH4C3HCHCH2NC9H15FeCSH2C3HCHCH2CHC3HCH3NCHC2H3C2H2C2SCH2CFeCSFeCFeHNSFeS2FeS2FeSFeS3C6H5C3H2NHC2HCH4SH5CH3C2HSHCHC2HCHC4HC4HCH2C3HC3H4CH2FeCHCNH2CHCHCH3CH3NSCH2CH5CS2NHCH2CHC2HC3H4CH2C2HC2H2C2H5C2HC3HCHC2H2CHC2HS2FeSCFeCHS2HC2HFeSHFeS2FeSFeS3H5SHCH5C2NCHCSC7H4CSC7H4C2H3C6HC2SHCFeSC2H4CFeNC7HNHC2H5CH13CH2CH5NCHNH3C2HC2HC3HCH6CH2CH5CH4CH2C6H2CSHCHCHCFeS2H2FeSHSFeS2FeSCFeSFeS3CHCHC2SC6H4C6H2CHCH2CH3C2H2C2H4C2HCH9NHCH6CHCH3C3NCHCH3CHC4HC2NCSHNH3CNC3HCH2CHFeHCH3C5HCHCH2CNHC2HCHC2H5CHCFeSCH3CHFeS2FeS2FeSFeS3FeSHFeSHFeSFeSHS2CNSHFeS2HCFeH2CH4SC6H7C6H5CH2C3H2C4SHC6H5NHCHC2HCHCH2CFeHC3H2C3H3CNHCH4C2HNH2FeCHCH6C2H7C2HC2H3CH4S2H5C3HSHC2HC3HC5HC2SH7C2HC2SCFeCHC2HS2HFeS2FeSFeS2HFeS2FeSCFeSFeS3FeS2FeSCSHSC7SH5FeHC6H4C6H4CHC4H4NCHC3H5C3HSCNC9H12C4H4C2HC2HCH2CH3CHCH3CHSH2CFeCH2C4NC2HC3NC4H4CFeHC2H2CH3C4H5CH6C2HCH3CHCH4C5HCH2CH3CNHNH9CHCHCFeCH4C2H2CHSHSH3CH2NH2CHC2H2C2HC2HCHSCHSFeSHFeS2FeSFeHS2C3SHCH2C6H4C3H5CH6CHCHCNH3C3HC2H2C2H3C3HC3NCNC2HC2HCH2FeS2FeSHFeCFeHS2HC2HCH2NHC2H6CHC3HCH6SC2SC2H3C2HCH3C2H2CHCSH2CH3CH2C2H2CFeS2FeS2FeS3FeSFeS3FeS2FeS2FeSFeS5FeS2FeSHFeSFeS3H5SCHCHC7H4C2H2C2HCNC2HSC6H5CHFeC2HC6H7C6H5C6H4NC6H10NC9H14S2HFeH2FeNCNCH2CH5NHCH2CHCHCHCH2NC9H11C2H2CHCHCH2NCHC2HC3H2C3FeC2H2CHC2H2C2HC3HCHCH2CH6C2H2CH2CHC2HCH3CSHCHC2S2HCFeCHC4H6C3H5C2H3C2H2CH4C3HCHNCH2C2HC2HFeHC2HCHCHCFeS2FeS2CFeS4FeS2FeS2FeSFeS5FeHFeS2FeSFeSFeS3C6H4FeC2HNH3C7H11CHCHCHC5H3C6H4C6H2C3HSH2Fe2HCNFeH2SNC9H14SHC3HC2H5CH4FeCS2HC2HCHC3HNC4HC2HC2HCH5CH2C2HNC9H14C2HCH2SHCFeCFeSHSH3CH2CH2NH3CH3CHCHSH4CH2C2HCHC2HCNC2H2C2H2SHCH2CHSCSHSCH2CH4NH2CH2CH2CH2CH2CHFeSFeS2FeHFeS3CHCH6NHCH2CH4C2HC2H5CHC4H3C2HCSH3C7HSH2SH3NH2C4HC6H3CFeS2FeS2FeSFeHS2HC4H3SC2HC4H2CH2C4H2C2H3C5HCH3C4H2NC2HCH4CHSCH2C2HCH2CSCHCH2C3HCHSHNCH4CH3CNCFeSCHSNFeS2FeHSHCFeS3CFeS2FeH2CHFeS3FeS2FeS2FeSFeS3CHC2FeC3HSH2CHC6H4CHC7H4C2HCH4CH2C6H4C6H2CH3CH2CH3CH3CHCH2NC3H4CHCH5CH4CH2CH3C2NC2HCSCNH3C2H5NCHCH5CFeHFeH5CHCH2CHC3H2SNHCHFeHC2HCH2S2C6HCH2SC2H2CHC2HFeNC2H2CH2CH2C2HCH5CNSCH3SHCH3C2H2CSCHCHC2HCSHC2H4C3H2C3HC2H6CHC2HC5HCHCH4FeS2FeS2FeHFeS3FeS2FeSHSFeS2FeS2FeSFeS3HFeS2FeS2Fe2S3C6H4C6H4CHCH2C2HCH4CHCH2C6H4C6H4C6H4SHNC2H5C6H6NHC2NHCHC3HCNC9H14NH2C7H2CH2C3H7FeC2SHSHCH3CSHNHC2HCH5CH2NH6CH3C2H3SH2FeHCNC5HC3HCHC2HCHC4NH8CHCHC2H2C2H2CHCHCSC3H2CHCH2CH4
_chemical_formula_sum              "Fe256 S512 C1920 N128 H2304"
_cell_length_a       89.4145
_cell_length_b       89.5122
_cell_length_c       39.136
_cell_angle_alpha    77.6245
_cell_angle_beta     77.7442
_cell_angle_gamma    76.9432

_space_group_name_H-M_alt    "P 1"
_space_group_IT_number       1

loop_
  _space_group_symop_operation_xyz
  'x, y, z'

loop_
  _atom_site_type_symbol
  _atom_site_label
  _atom_site_symmetry_multiplicity
  _atom_site_fract_x
  _atom_site_fract_y
  _atom_site_fract_z
  _atom_site_occupancy
  Fe  Fe1       1.0  0.19476  0.02390  0.20144  1.0000
  S   S1        1.0  0.17521  0.02685  0.24765  1.0000
  C   C1        1.0  0.01654  0.14986  0.06334  1.0000
  N   N1        1.0  0.17317  0.25893  0.40626  1.0000
  S   S2        1.0  0.01743  0.10096  0.20673  1.0000
  C   C2        1.0  0.15596  0.05050  0.05948  1.0000
  N   N2        1.0  0.15321  0.06278  0.11411  1.0000
  H   H1        1.0  0.14071  0.11222  0.02813  1.0000
  Fe  Fe2       1.0  0.12026  0.10750  0.23228  1.0000
  S   S3        1.0  0.13997  0.11773  0.19718  1.0000
  S   S4        1.0  0.12272  0.08596  0.27362  1.0000
  Fe  Fe3       1.0  0.09501  0.13216  0.20218  1.0000
  S   S5        1.0  0.11267  0.14504  0.16475  1.0000
  S   S6        1.0  0.06891  0.14075  0.20248  1.0000
  Fe  Fe4       1.0  0.12541  0.12134  0.15489  1.0000
  S   S7        1.0  0.13667  0.11559  0.10101  1.0000
  Fe  Fe5       1.0  0.12601  0.14069  0.21019  1.0000
  S   S8        1.0  0.13951  0.15910  0.21383  1.0000
  S   S9        1.0  0.10698  0.10880  0.18891  1.0000
  S   S10       1.0  0.10707  0.13014  0.24869  1.0000
  Fe  Fe6       1.0  0.17834  0.19107  0.35280  1.0000
  S   S11       1.0  0.20160  0.19595  0.32186  1.0000
  S   S12       1.0  0.16269  0.17551  0.34375  1.0000
  Fe  Fe7       1.0  0.18136  0.20633  0.41544  1.0000
  S   S13       1.0  0.20431  0.21286  0.38833  1.0000
  C   C3        1.0  0.16348  0.09671  0.27294  1.0000
  Fe  Fe8       1.0  0.19412  0.21957  0.33815  1.0000
  S   S14       1.0  0.19749  0.24153  0.29759  1.0000
  Fe  Fe9       1.0  0.21012  0.18900  0.37418  1.0000
  S   S15       1.0  0.19358  0.01258  0.15633  1.0000
  S   S16       1.0  0.17014  0.21526  0.36641  1.0000
  S   S17       1.0  0.18781  0.18204  0.40387  1.0000
  C   C4        1.0  0.03544  0.14193  0.01183  1.0000
  S   S18       1.0  0.16988  0.20844  0.47285  1.0000
  H   H2        1.0  0.14472  0.14159  0.12944  1.0000
  H   H3        1.0  0.23227  0.25386  0.42597  1.0000
  H   H4        1.0  0.05413  0.08568  0.03508  1.0000
  H   H5        1.0  0.10492  0.17647  0.05119  1.0000
  H   H6        1.0  0.16824  0.28371  0.40397  1.0000
  C   C5        1.0  0.12909  0.11872  0.03534  1.0000
  C   C6        1.0  0.10432  0.13271  0.01879  1.0000
  H   H7        1.0  0.13373  0.16870  0.14077  1.0000
  C   C7        1.0  0.19510  0.00667  0.03300  1.0000
  H   H8        1.0  0.14095  0.18490  0.11056  1.0000
  H   H9        1.0  0.19964  0.01115  0.08129  1.0000
  C   C8        1.0  0.15685  0.17088  0.30686  1.0000
  C   C9        1.0  0.16072  0.17848  0.27190  1.0000
  C   C10       1.0  0.15539  0.17466  0.24389  1.0000
  C   C11       1.0  0.14619  0.16313  0.25028  1.0000
  C   C12       1.0  0.14248  0.15539  0.28515  1.0000
  C   C13       1.0  0.14773  0.15928  0.31316  1.0000
  H   H10       1.0  0.16769  0.18743  0.26651  1.0000
  H   H11       1.0  0.15835  0.18077  0.21713  1.0000
  H   H12       1.0  0.13540  0.14655  0.29067  1.0000
  H   H13       1.0  0.14464  0.15333  0.34004  1.0000
  C   C14       1.0  0.12405  0.12208  0.06975  1.0000
  C   C15       1.0  0.10907  0.13064  0.07877  1.0000
  C   C16       1.0  0.09929  0.13605  0.05323  1.0000
  S   S19       1.0  0.21773  0.00894  0.21253  1.0000
  H   H14       1.0  0.16214  0.14556  0.13834  1.0000
  H   H15       1.0  0.10507  0.13325  0.10528  1.0000
  H   H16       1.0  0.15928  0.14721  0.03968  1.0000
  C   C17       1.0  0.16647  0.16741  0.07850  1.0000
  N   N3        1.0  0.15172  0.16226  0.09713  1.0000
  H   H17       1.0  0.01963  0.13877  0.27497  1.0000
  C   C18       1.0  0.03203  0.11231  0.20101  1.0000
  C   C19       1.0  0.04730  0.10470  0.20510  1.0000
  C   C20       1.0  0.05895  0.11324  0.20364  1.0000
  C   C21       1.0  0.05534  0.12952  0.19916  1.0000
  C   C22       1.0  0.04019  0.13713  0.19392  1.0000
  C   C23       1.0  0.02864  0.12860  0.19440  1.0000
  H   H18       1.0  0.05006  0.09211  0.21029  1.0000
  H   H19       1.0  0.07058  0.10717  0.20707  1.0000
  H   H20       1.0  0.03726  0.14971  0.19038  1.0000
  H   H21       1.0  0.01694  0.13463  0.19136  1.0000
  C   C24       1.0  0.16091  0.04374  0.25229  1.0000
  C   C25       1.0  0.14984  0.04332  0.28344  1.0000
  C   C26       1.0  0.13826  0.05634  0.28930  1.0000
  C   C27       1.0  0.13751  0.06998  0.26400  1.0000
  C   C28       1.0  0.14857  0.07058  0.23255  1.0000
  C   C29       1.0  0.16036  0.05744  0.22674  1.0000
  H   H22       1.0  0.15024  0.03282  0.30332  1.0000
  H   H23       1.0  0.12983  0.05581  0.31366  1.0000
  H   H24       1.0  0.14818  0.08118  0.21310  1.0000
  H   H25       1.0  0.16909  0.05794  0.20296  1.0000
  N   N4        1.0  0.03652  0.09419  0.09933  1.0000
  C   C30       1.0  0.03749  0.08340  0.13360  1.0000
  C   C31       1.0  0.02665  0.10929  0.10635  1.0000
  C   C32       1.0  0.02839  0.08760  0.07827  1.0000
  C   C33       1.0  0.05237  0.09656  0.08147  1.0000
  C   C34       1.0  0.06112  0.10381  0.09723  1.0000
  C   C35       1.0  0.05972  0.09152  0.04881  1.0000
  C   C36       1.0  0.07610  0.10621  0.08093  1.0000
  C   C37       1.0  0.08289  0.10129  0.04877  1.0000
  H   H26       1.0  0.15127  0.09578  0.27995  1.0000
  H   H27       1.0  0.04246  0.08806  0.15194  1.0000
  H   H28       1.0  0.02577  0.08134  0.14802  1.0000
  H   H29       1.0  0.04494  0.07193  0.12960  1.0000
  H   H30       1.0  0.02590  0.11777  0.08122  1.0000
  H   H31       1.0  0.03086  0.11454  0.12491  1.0000
  H   H32       1.0  0.01455  0.10803  0.11883  1.0000
  H   H33       1.0  0.03449  0.07571  0.07384  1.0000
  H   H34       1.0  0.01631  0.08651  0.09206  1.0000
  H   H35       1.0  0.02707  0.09531  0.05223  1.0000
  H   H36       1.0  0.05649  0.10764  0.12247  1.0000
  H   H37       1.0  0.15491  0.24527  0.42335  1.0000
  C   C38       1.0  0.14972  0.06302  0.07858  1.0000
  H   H38       1.0  0.15861  0.12169  0.26844  1.0000
  C   C39       1.0  0.12332  0.16260  0.02017  1.0000
  H   H39       1.0  0.04504  0.13892  0.28683  1.0000
  H   H40       1.0  0.07132  0.13557  0.28043  1.0000
  H   H41       1.0  0.08272  0.12760  0.31459  1.0000
  C   C40       1.0  0.19744  0.01618  0.05476  1.0000
  H   H42       1.0  0.17439  0.23429  0.42004  1.0000
  H   H43       1.0  0.15762  0.04151  0.01161  1.0000
  H   H44       1.0  0.01093  0.11402  0.27926  1.0000
  H   H45       1.0  0.02821  0.08896  0.29586  1.0000
  C   C41       1.0  0.21554  0.24807  0.28447  1.0000
  H   H46       1.0  0.06236  0.13500  0.32668  1.0000
  Fe  Fe10      1.0  0.21744  0.99916  0.16396  1.0000
  H   H47       1.0  0.16295  0.27276  0.44741  1.0000
  S   S20       1.0  0.20001  0.04405  0.06934  1.0000
  H   H48       1.0  0.05388  0.08823  0.30921  1.0000
  C   C42       1.0  0.21745  0.26001  0.25488  1.0000
  N   N5        1.0  0.20361  0.07028  0.25794  1.0000
  C   C43       1.0  0.19781  0.05541  0.26503  1.0000
  C   C44       1.0  0.21270  0.07198  0.22134  1.0000
  C   C45       1.0  0.21421  0.06889  0.28343  1.0000
  C   C46       1.0  0.19107  0.08417  0.26128  1.0000
  C   C47       1.0  0.19483  0.09923  0.25510  1.0000
  C   C48       1.0  0.17498  0.08329  0.27052  1.0000
  H   H49       1.0  0.21620  0.15420  0.45268  1.0000
  H   H50       1.0  0.14085  0.06698  0.16616  1.0000
  C   C49       1.0  0.07478  0.09386  0.03290  1.0000
  H   H51       1.0  0.20752  0.04521  0.26221  1.0000
  H   H52       1.0  0.19120  0.05305  0.29249  1.0000
  H   H53       1.0  0.19023  0.05537  0.24589  1.0000
  H   H54       1.0  0.20496  0.07407  0.20126  1.0000
  H   H55       1.0  0.22156  0.06132  0.21701  1.0000
  H   H56       1.0  0.21922  0.08169  0.21522  1.0000
  H   H57       1.0  0.20768  0.06841  0.31111  1.0000
  H   H58       1.0  0.22698  0.25622  0.36535  1.0000
  H   H59       1.0  0.22054  0.07876  0.27754  1.0000
  H   H60       1.0  0.16616  0.24430  0.45656  1.0000
  H   H61       1.0  0.18393  0.25597  0.46867  1.0000
  Fe  Fe11      1.0  0.99384  0.10954  0.18864  1.0000
  H   H62       1.0  0.23342  0.29536  0.03470  1.0000
  H   H63       1.0  0.15122  0.27488  0.41445  1.0000
  C   C50       1.0  0.14177  0.16249  0.07110  1.0000
  H   H64       1.0  0.17093  0.07239  0.27607  1.0000
  C   C51       1.0  0.19304  0.01276  0.99789  1.0000
  C   C52       1.0  0.13722  0.07693  0.02745  1.0000
  C   C53       1.0  0.14769  0.15420  0.04243  1.0000
  H   H65       1.0  0.16406  0.17913  0.06176  1.0000
  N   N6        1.0  0.06758  0.11285  0.30897  1.0000
  C   C54       1.0  0.06881  0.10385  0.34517  1.0000
  C   C55       1.0  0.07977  0.10503  0.28304  1.0000
  C   C56       1.0  0.07106  0.12846  0.30765  1.0000
  C   C57       1.0  0.05199  0.11347  0.30079  1.0000
  C   C58       1.0  0.04179  0.12770  0.29056  1.0000
  C   C59       1.0  0.04663  0.09949  0.30266  1.0000
  C   C60       1.0  0.02706  0.12781  0.28356  1.0000
  C   C61       1.0  0.03192  0.09975  0.29530  1.0000
  C   C62       1.0  0.02213  0.11388  0.28599  1.0000
  H   H66       1.0  0.08015  0.10382  0.35279  1.0000
  H   H67       1.0  0.05930  0.10885  0.36532  1.0000
  H   H68       1.0  0.06822  0.09141  0.34738  1.0000
  H   H69       1.0  0.07840  0.09303  0.28283  1.0000
  H   H70       1.0  0.09165  0.10394  0.28901  1.0000
  H   H71       1.0  0.07958  0.11173  0.25565  1.0000
  H   H72       1.0  0.17382  0.16811  0.09761  1.0000
  H   H73       1.0  0.09451  0.10318  0.03617  1.0000
  H   H74       1.0  0.08780  0.14287  0.06019  1.0000
  C   C63       1.0  0.14425  0.17259  0.12356  1.0000
  H   H75       1.0  0.15215  0.17251  0.14219  1.0000
  H   H76       1.0  0.20814  0.26460  0.23961  1.0000
  C   C64       1.0  0.12599  0.17051  0.07369  1.0000
  H   H77       1.0  0.13602  0.08667  0.07314  1.0000
  C   C65       1.0  0.16348  0.27319  0.41857  1.0000
  H   H78       1.0  0.16248  0.13789  0.09924  1.0000
  C   C66       1.0  0.15551  0.14616  0.11680  1.0000
  H   H79       1.0  0.17381  0.15928  0.06106  1.0000
  S   S21       1.0  0.20501  0.04375  0.16712  1.0000
  Fe  Fe12      1.0  0.20612  0.03113  0.12247  1.0000
  H   H80       1.0  0.05341  0.14408  0.07966  1.0000
  C   C67       1.0  0.16458  0.07304  0.11013  1.0000
  C   C68       1.0  0.19707  0.03204  0.04208  1.0000
  C   C69       1.0  0.20223  0.25740  0.38220  1.0000
  S   S22       1.0  0.23235  0.17392  0.38892  1.0000
  C   C70       1.0  0.21744  0.25619  0.38775  1.0000
  C   C71       1.0  0.16686  0.24520  0.42751  1.0000
  H   H81       1.0  0.23077  0.17563  0.31527  1.0000
  H   H82       1.0  0.17177  0.04254  0.11757  1.0000
  H   H83       1.0  0.20085  0.25814  0.35507  1.0000
  H   H84       1.0  0.00451  0.15301  0.07606  1.0000
  C   C72       1.0  0.19297  0.25619  0.44539  1.0000
  H   H85       1.0  0.21059  0.25375  0.47727  1.0000
  C   C73       1.0  0.19433  0.03835  0.00738  1.0000
  S   S23       1.0  0.99361  0.11752  0.06125  1.0000
  C   C74       1.0  0.18322  0.11256  0.25775  1.0000
  C   C75       1.0  0.04401  0.14469  0.06552  1.0000
  H   H86       1.0  0.16365  0.04013  0.06976  1.0000
  H   H87       1.0  0.12025  0.17668  0.09520  1.0000
  C   C76       1.0  0.17150  0.25982  0.36887  1.0000
  H   H88       1.0  0.15233  0.03846  0.13325  1.0000
  H   H89       1.0  0.17579  0.27002  0.35099  1.0000
  C   C77       1.0  0.18947  0.25749  0.41099  1.0000
  H   H90       1.0  0.18635  0.12395  0.25318  1.0000
  H   H91       1.0  0.20681  0.10081  0.24827  1.0000
  H   H92       1.0  0.19533  0.99442  0.04322  1.0000
  C   C78       1.0  0.13862  0.15442  0.01722  1.0000
  H   H93       1.0  0.22636  0.23307  0.32682  1.0000
  C   C79       1.0  0.02860  0.14916  0.08144  1.0000
  C   C80       1.0  0.16757  0.11131  0.26650  1.0000
  H   H94       1.0  0.12932  0.06241  0.13877  1.0000
  H   H95       1.0  0.22337  0.05818  0.28288  1.0000
  C   C81       1.0  0.01982  0.14623  0.02913  1.0000
  C   C82       1.0  0.04742  0.14108  0.03132  1.0000
  H   H96       1.0  0.02598  0.15193  0.10801  1.0000
  H   H97       1.0  0.20974  0.18187  0.44747  1.0000
  C   C83       1.0  0.22767  0.24223  0.30399  1.0000
  H   H98       1.0  0.23252  0.27543  0.22241  1.0000
  C   C84       1.0  0.14052  0.07640  0.06113  1.0000
  H   H99       1.0  0.13453  0.08133  0.13095  1.0000
  H   H100      1.0  0.11621  0.16243  0.00101  1.0000
  C   C85       1.0  0.21274  0.18121  0.47390  1.0000
  H   H101      1.0  0.17552  0.06914  0.09193  1.0000
  C   C86       1.0  0.13885  0.06861  0.13835  1.0000
  H   H102      1.0  0.16778  0.07312  0.13607  1.0000
  H   H103      1.0  0.19746  0.22157  0.46961  1.0000
  S   S24       1.0  0.98839  0.09438  0.15543  1.0000
  H   H104      1.0  0.17799  0.24907  0.35865  1.0000
  C   C87       1.0  0.15993  0.04695  0.13165  1.0000
  Fe  Fe13      1.0  0.22808  0.02835  0.17540  1.0000
  H   H105      1.0  0.15991  0.08532  0.09881  1.0000
  H   H106      1.0  0.16148  0.04676  0.15923  1.0000
  H   H107      1.0  0.08252  0.11185  0.09340  1.0000
  H   H108      1.0  0.15916  0.26086  0.36606  1.0000
  C   C88       1.0  0.22044  0.25489  0.42186  1.0000
  H   H109      1.0  0.23254  0.15436  0.47148  1.0000
  S   S25       1.0  0.98890  0.13191  0.15053  1.0000
  C   C89       1.0  0.20823  0.25488  0.45065  1.0000
  C   C90       1.0  0.11699  0.17051  0.04849  1.0000
  C   C91       1.0  0.11920  0.12391  0.00998  1.0000
  C   C92       1.0  0.15264  0.05118  0.02572  1.0000
  H   H110      1.0  0.22494  0.18292  0.46963  1.0000
  C   C93       1.0  0.21998  0.15354  0.47848  1.0000
  H   H111      1.0  0.19045  0.16425  0.47789  1.0000
  C   C94       1.0  0.14321  0.06431  0.00984  1.0000
  H   H112      1.0  0.20512  0.19129  0.48466  1.0000
  H   H113      1.0  0.13015  0.08725  0.01467  1.0000
  S   S26       1.0  0.23001  0.01734  0.12740  1.0000
  C   C95       1.0  0.23127  0.26615  0.24501  1.0000
  H   H114      1.0  0.99788  0.10832  0.99334  1.0000
  H   H115      1.0  0.19385  0.05068  0.99758  1.0000
  H   H116      1.0  0.05958  0.13770  0.02015  1.0000
  H   H117      1.0  0.08027  0.08988  0.00809  1.0000
  H   H118      1.0  0.00987  0.14674  0.01705  1.0000
  C   C96       1.0  0.23648  0.98974  0.05551  1.0000
  H   H119      1.0  0.14330  0.14783  0.99581  1.0000
  H   H120      1.0  0.04007  0.11381  0.99363  1.0000
  C   C97       1.0  0.23704  0.00044  0.99198  1.0000
  H   H121      1.0  0.22466  0.03041  0.98215  1.0000
  S   S27       1.0  0.16734  0.03770  0.81555  1.0000
  H   H122      1.0  0.12322  0.12136  0.98348  1.0000
  C   C98       1.0  0.16799  0.09586  0.84640  1.0000
  H   H123      1.0  0.22119  0.01402  0.93738  1.0000
  C   C99       1.0  0.21772  0.25320  0.75913  1.0000
  C   C100      1.0  0.17105  0.21034  0.54156  1.0000
  S   S28       1.0  0.19106  0.99995  0.97140  1.0000
  Fe  Fe14      1.0  0.20918  0.19516  0.71498  1.0000
  H   H124      1.0  0.18962  0.07782  0.77923  1.0000
  H   H125      1.0  0.15988  0.10712  0.84944  1.0000
  S   S29       1.0  0.01389  0.08057  0.88796  1.0000
  H   H126      1.0  0.22643  0.98702  0.96587  1.0000
  Fe  Fe15      1.0  0.11019  0.10030  0.90618  1.0000
  S   S30       1.0  0.12263  0.11836  0.91232  1.0000
  S   S31       1.0  0.11934  0.07504  0.92544  1.0000
  Fe  Fe16      1.0  0.08276  0.12407  0.88126  1.0000
  S   S32       1.0  0.09326  0.14431  0.88437  1.0000
  S   S33       1.0  0.05844  0.12927  0.86759  1.0000
  Fe  Fe17      1.0  0.11608  0.13093  0.85973  1.0000
  S   S34       1.0  0.13586  0.13789  0.81616  1.0000
  Fe  Fe18      1.0  0.09900  0.13010  0.93633  1.0000
  C   C101      1.0  0.23138  0.15484  0.57818  1.0000
  S   S35       1.0  0.10506  0.11180  0.85201  1.0000
  S   S36       1.0  0.08707  0.11091  0.93463  1.0000
  Fe  Fe19      1.0  0.17520  0.20936  0.72627  1.0000
  S   S37       1.0  0.17947  0.23204  0.69075  1.0000
  S   S38       1.0  0.15159  0.20601  0.75948  1.0000
  H   H127      1.0  0.15620  0.09198  0.79182  1.0000
  H   H128      1.0  0.20981  0.27797  0.75638  1.0000
  Fe  Fe20      1.0  0.19988  0.22970  0.71843  1.0000
  C   C102      1.0  0.23203  0.04680  0.78174  1.0000
  Fe  Fe21      1.0  0.19579  0.21708  0.65351  1.0000
  S   S39       1.0  0.20064  0.22285  0.59262  1.0000
  S   S40       1.0  0.19425  0.20827  0.75647  1.0000
  S   S41       1.0  0.18991  0.19466  0.68697  1.0000
  C   C103      1.0  0.19129  0.13354  0.79195  1.0000
  C   C104      1.0  0.23408  0.06061  0.75752  1.0000
  C   C105      1.0  0.19844  0.22224  0.52404  1.0000
  C   C106      1.0  0.22890  0.26975  0.78571  1.0000
  H   H129      1.0  0.19758  0.18607  0.54486  1.0000
  C   C107      1.0  0.20705  0.17715  0.55334  1.0000
  H   H130      1.0  0.04200  0.10516  0.79095  1.0000
  C   C108      1.0  0.19148  0.21916  0.55998  1.0000
  C   C109      1.0  0.17769  0.21324  0.56861  1.0000
  Fe  Fe22      1.0  0.21913  0.01202  0.84383  1.0000
  H   H131      1.0  0.17215  0.21088  0.59611  1.0000
  C   C110      1.0  0.14001  0.15697  0.80135  1.0000
  C   C111      1.0  0.15325  0.15910  0.77542  1.0000
  C   C112      1.0  0.15708  0.17398  0.76297  1.0000
  C   C113      1.0  0.14749  0.18699  0.77570  1.0000
  C   C114      1.0  0.13417  0.18489  0.80149  1.0000
  C   C115      1.0  0.13050  0.16994  0.81448  1.0000
  H   H132      1.0  0.16053  0.14924  0.76455  1.0000
  H   H133      1.0  0.16729  0.17542  0.74294  1.0000
  H   H134      1.0  0.12663  0.19489  0.81136  1.0000
  H   H135      1.0  0.12022  0.16849  0.83427  1.0000
  S   S42       1.0  0.09184  0.13975  0.98733  1.0000
  Fe  Fe23      1.0  0.18495  0.01901  0.84161  1.0000
  C   C116      1.0  0.04578  0.11577  0.87628  1.0000
  C   C117      1.0  0.05007  0.10031  0.89260  1.0000
  C   C118      1.0  0.04000  0.08972  0.89698  1.0000
  C   C119      1.0  0.02550  0.09455  0.88547  1.0000
  C   C120      1.0  0.02100  0.11016  0.87039  1.0000
  C   C121      1.0  0.03112  0.12069  0.86575  1.0000
  H   H136      1.0  0.06130  0.09644  0.90091  1.0000
  H   H137      1.0  0.04356  0.07766  0.90858  1.0000
  H   H138      1.0  0.00995  0.11401  0.86120  1.0000
  H   H139      1.0  0.02770  0.13263  0.85312  1.0000
  C   C122      1.0  0.15427  0.04823  0.84616  1.0000
  C   C123      1.0  0.15302  0.04256  0.88262  1.0000
  C   C124      1.0  0.14228  0.05091  0.90679  1.0000
  C   C125      1.0  0.13311  0.06518  0.89466  1.0000
  C   C126      1.0  0.13464  0.07107  0.85824  1.0000
  C   C127      1.0  0.14503  0.06247  0.83398  1.0000
  H   H140      1.0  0.16013  0.03160  0.89221  1.0000
  H   H141      1.0  0.14114  0.04631  0.93494  1.0000
  H   H142      1.0  0.12765  0.08210  0.84873  1.0000
  H   H143      1.0  0.14596  0.06683  0.80575  1.0000
  C   C128      1.0  0.21806  0.26792  0.76607  1.0000
  C   C129      1.0  0.20695  0.12900  0.77799  1.0000
  S   S43       1.0  0.17949  0.99835  0.88294  1.0000
  H   H144      1.0  0.22073  0.04344  0.78880  1.0000
  H   H145      1.0  0.23681  0.02181  0.90719  1.0000
  H   H146      1.0  0.21445  0.13757  0.76988  1.0000
  H   H147      1.0  0.22833  0.22892  0.76687  1.0000
  S   S44       1.0  0.21651  0.21631  0.67893  1.0000
  C   C130      1.0  0.19259  0.02866  0.98502  1.0000
  N   N7        1.0  0.17624  0.09557  0.80927  1.0000
  H   H148      1.0  0.02917  0.13776  0.93040  1.0000
  Fe  Fe24      1.0  0.98816  0.08762  0.88288  1.0000
  C   C131      1.0  0.16452  0.10015  0.78538  1.0000
  C   C132      1.0  0.18707  0.10674  0.79907  1.0000
  C   C133      1.0  0.20313  0.10249  0.78459  1.0000
  C   C134      1.0  0.18148  0.12263  0.80233  1.0000
  C   C135      1.0  0.21286  0.11351  0.77425  1.0000
  Fe  Fe25      1.0  0.19548  0.00510  0.91162  1.0000
  H   H149      1.0  0.14070  0.06482  0.98362  1.0000
  H   H150      1.0  0.17578  0.07101  0.81565  1.0000
  S   S45       1.0  0.20536  0.00506  0.80988  1.0000
  H   H151      1.0  0.17641  0.09386  0.86490  1.0000
  H   H152      1.0  0.17022  0.10039  0.75711  1.0000
  C   C136      1.0  0.22761  0.15474  0.54525  1.0000
  H   H153      1.0  0.15737  0.11195  0.78741  1.0000
  H   H154      1.0  0.20852  0.09075  0.78071  1.0000
  C   C137      1.0  0.04754  0.12187  0.97651  1.0000
  H   H155      1.0  0.18599  0.17528  0.51253  1.0000
  S   S46       1.0  0.19901  0.02696  0.87310  1.0000
  N   N8        1.0  0.08884  0.06470  0.84761  1.0000
  C   C138      1.0  0.08645  0.04833  0.85802  1.0000
  C   C139      1.0  0.10385  0.06468  0.82250  1.0000
  C   C140      1.0  0.09017  0.06996  0.88009  1.0000
  C   C141      1.0  0.07606  0.07544  0.83110  1.0000
  C   C142      1.0  0.07713  0.09128  0.81758  1.0000
  C   C143      1.0  0.06211  0.07081  0.82903  1.0000
  C   C144      1.0  0.06507  0.10178  0.80280  1.0000
  C   C145      1.0  0.05010  0.08143  0.81423  1.0000
  C   C146      1.0  0.05158  0.09686  0.80119  1.0000
  H   H156      1.0  0.08526  0.04366  0.83473  1.0000
  H   H157      1.0  0.09646  0.04049  0.86943  1.0000
  H   H158      1.0  0.07594  0.04725  0.87890  1.0000
  H   H159      1.0  0.10303  0.06175  0.79679  1.0000
  H   H160      1.0  0.11356  0.05607  0.83340  1.0000
  H   H161      1.0  0.10760  0.07612  0.81663  1.0000
  H   H162      1.0  0.07902  0.07050  0.89934  1.0000
  H   H163      1.0  0.09946  0.06201  0.89380  1.0000
  H   H164      1.0  0.09320  0.08173  0.87427  1.0000
  H   H165      1.0  0.08711  0.09583  0.81919  1.0000
  H   H166      1.0  0.05992  0.05918  0.83944  1.0000
  H   H167      1.0  0.06150  0.14633  0.96106  1.0000
  H   H168      1.0  0.03928  0.07784  0.81423  1.0000
  H   H169      1.0  0.23699  0.00794  0.72897  1.0000
  N   N9        1.0  0.16380  0.23877  0.81891  1.0000
  C   C147      1.0  0.15787  0.22410  0.82363  1.0000
  C   C148      1.0  0.15160  0.24963  0.83840  1.0000
  C   C149      1.0  0.16587  0.24552  0.78054  1.0000
  C   C150      1.0  0.17875  0.23653  0.83171  1.0000
  C   C151      1.0  0.18531  0.24958  0.83170  1.0000
  C   C152      1.0  0.18737  0.22156  0.84372  1.0000
  C   C153      1.0  0.19930  0.24780  0.84399  1.0000
  C   C154      1.0  0.20149  0.21992  0.85545  1.0000
  C   C155      1.0  0.20740  0.23301  0.85574  1.0000
  H   H170      1.0  0.15601  0.21837  0.85195  1.0000
  H   H171      1.0  0.14656  0.22612  0.81408  1.0000
  H   H172      1.0  0.16593  0.21570  0.80775  1.0000
  H   H173      1.0  0.15039  0.24544  0.86759  1.0000
  H   H174      1.0  0.14002  0.25085  0.83067  1.0000
  H   H175      1.0  0.15416  0.26158  0.83287  1.0000
  H   H176      1.0  0.17533  0.23799  0.76521  1.0000
  H   H177      1.0  0.15514  0.24676  0.76923  1.0000
  H   H178      1.0  0.16922  0.25715  0.77486  1.0000
  H   H179      1.0  0.17993  0.26125  0.82111  1.0000
  H   H180      1.0  0.18366  0.21091  0.84362  1.0000
  H   H181      1.0  0.20426  0.25791  0.84304  1.0000
  H   H182      1.0  0.21852  0.23173  0.86405  1.0000
  H   H183      1.0  0.22892  0.28111  0.79103  1.0000
  H   H184      1.0  0.19317  0.07506  0.82426  1.0000
  H   H185      1.0  0.20913  0.22677  0.51714  1.0000
  H   H186      1.0  0.05062  0.11870  0.94949  1.0000
  H   H187      1.0  0.18668  0.14565  0.79434  1.0000
  C   C156      1.0  0.22847  0.24032  0.77183  1.0000
  H   H188      1.0  0.16043  0.20567  0.54857  1.0000
  H   H189      1.0  0.19163  0.15444  0.52274  1.0000
  H   H190      1.0  0.05254  0.14676  0.92443  1.0000
  C   C157      1.0  0.02567  0.14039  0.95794  1.0000
  H   H191      1.0  0.16064  0.08675  0.85579  1.0000
  C   C158      1.0  0.23412  0.01230  0.92979  1.0000
  H   H192      1.0  0.06593  0.11395  0.79387  1.0000
  H   H193      1.0  0.01911  0.15261  0.95563  1.0000
  H   H194      1.0  0.16937  0.12683  0.81247  1.0000
  S   S47       1.0  0.20325  0.25148  0.73582  1.0000
  H   H195      1.0  0.22505  0.11003  0.76296  1.0000
  C   C159      1.0  0.17819  0.21314  0.50571  1.0000
  H   H196      1.0  0.19075  0.03351  0.95810  1.0000
  H   H197      1.0  0.22429  0.06782  0.74613  1.0000
  C   C160      1.0  0.22300  0.16600  0.59854  1.0000
  C   C161      1.0  0.18412  0.07921  0.80696  1.0000
  N   N10       1.0  0.03943  0.13830  0.97538  1.0000
  S   S48       1.0  0.21681  0.99064  0.88537  1.0000
  C   C162      1.0  0.21517  0.16589  0.53198  1.0000
  C   C163      1.0  0.19401  0.16496  0.50302  1.0000
  H   H198      1.0  0.01760  0.13239  0.97255  1.0000
  H   H199      1.0  0.04472  0.16105  0.95275  1.0000
  H   H200      1.0  0.20806  0.20841  0.86373  1.0000
  H   H201      1.0  0.20462  0.18607  0.60165  1.0000
  C   C164      1.0  0.21096  0.17721  0.58599  1.0000
  C   C165      1.0  0.04997  0.14855  0.95257  1.0000
  S   S49       1.0  0.22444  0.17267  0.73357  1.0000
  Fe  Fe26      1.0  0.20107  0.98477  0.85433  1.0000
  H   H202      1.0  0.05862  0.11961  0.98691  1.0000
  H   H203      1.0  0.23010  0.01893  0.66941  1.0000
  H   H204      1.0  0.23367  0.14179  0.71828  1.0000
  C   C166      1.0  0.22965  0.98819  0.99010  1.0000
  H   H205      1.0  0.22581  0.16600  0.62414  1.0000
  C   C167      1.0  0.19184  0.21931  0.49704  1.0000
  N   N11       1.0  0.21066  0.16623  0.49747  1.0000
  H   H206      1.0  0.23459  0.14584  0.53076  1.0000
  C   C168      1.0  0.23620  0.16550  0.69682  1.0000
  C   C169      1.0  0.23707  0.02808  0.96930  1.0000
  H   H207      1.0  0.21871  0.14185  0.49432  1.0000
  C   C170      1.0  0.23183  0.64319  0.21466  1.0000
  H   H208      1.0  0.22258  0.63690  0.21694  1.0000
  H   H209      1.0  0.20499  0.64525  0.17001  1.0000
  H   H210      1.0  0.22354  0.62027  0.91908  1.0000
  H   H211      1.0  0.22591  0.64048  0.73922  1.0000
  H   H212      1.0  0.20770  0.64198  0.61659  1.0000
  H   H213      1.0  0.22614  0.34703  0.94320  1.0000
  H   H214      1.0  0.20134  0.63965  0.87248  1.0000
  C   C171      1.0  0.23302  0.63272  0.64506  1.0000
  H   H215      1.0  0.20692  0.61891  0.88004  1.0000
  H   H216      1.0  0.22558  0.62374  0.65080  1.0000
  H   H217      1.0  0.22862  0.63982  0.66653  1.0000
  H   H218      1.0  0.23202  0.33563  0.89118  1.0000
  H   H219      1.0  0.23742  0.61786  0.82252  1.0000
  H   H220      1.0  0.20867  0.62928  0.83544  1.0000
  N   N12       1.0  0.22619  0.63120  0.86378  1.0000
  C   C172      1.0  0.21006  0.62977  0.86279  1.0000
  C   C173      1.0  0.23689  0.61740  0.85142  1.0000
  C   C174      1.0  0.22724  0.63079  0.90134  1.0000
  H   H221      1.0  0.23476  0.63814  0.55597  1.0000
  H   H222      1.0  0.23332  0.60629  0.86604  1.0000
  C   C175      1.0  0.23688  0.63200  0.58288  1.0000
  H   H223      1.0  0.21984  0.64129  0.91129  1.0000
  H   H224      1.0  0.23014  0.62240  0.58996  1.0000
  H   H225      1.0  0.22804  0.36484  0.88819  1.0000
  N   N13       1.0  0.23223  0.64255  0.60944  1.0000
  C   C176      1.0  0.23079  0.64561  0.84153  1.0000
  Fe  Fe27      1.0  0.08285  0.79588  0.10121  1.0000
  S   S50       1.0  0.09261  0.77025  0.11074  1.0000
  S   S51       1.0  0.05727  0.80488  0.09554  1.0000
  Fe  Fe28      1.0  0.11558  0.80470  0.09029  1.0000
  S   S52       1.0  0.12732  0.77956  0.09756  1.0000
  S   S53       1.0  0.13282  0.82132  0.07264  1.0000
  Fe  Fe29      1.0  0.11113  0.77626  0.06437  1.0000
  S   S54       1.0  0.11907  0.76260  0.01953  1.0000
  Fe  Fe30      1.0  0.10776  0.77623  0.14313  1.0000
  S   S55       1.0  0.11254  0.76418  0.19775  1.0000
  S   S56       1.0  0.10092  0.80165  0.05304  1.0000
  S   S57       1.0  0.09654  0.80166  0.13767  1.0000
  Fe  Fe31      1.0  0.21059  0.86858  0.14204  1.0000
  S   S58       1.0  0.18958  0.87676  0.18101  1.0000
  S   S59       1.0  0.17541  0.69333  0.39251  1.0000
  Fe  Fe32      1.0  0.19612  0.88720  0.07831  1.0000
  S   S60       1.0  0.17420  0.89692  0.11282  1.0000
  S   S61       1.0  0.19764  0.89576  0.01910  1.0000
  Fe  Fe33      1.0  0.19009  0.90043  0.14677  1.0000
  S   S62       1.0  0.18497  0.92223  0.17183  1.0000
  Fe  Fe34      1.0  0.17577  0.87245  0.14325  1.0000
  S   S63       1.0  0.15434  0.86124  0.16353  1.0000
  S   S64       1.0  0.21194  0.89253  0.10991  1.0000
  S   S65       1.0  0.19684  0.86247  0.10674  1.0000
  S   S66       1.0  0.22620  0.97414  0.15366  1.0000
  C   C177      1.0  0.12964  0.87683  0.08111  1.0000
  C   C178      1.0  0.99136  0.81680  0.14176  1.0000
  H   H226      1.0  0.05584  0.77373  0.13700  1.0000
  C   C179      1.0  0.01871  0.78806  0.09335  1.0000
  Fe  Fe35      1.0  0.18523  0.70722  0.25802  1.0000
  S   S67       1.0  0.20946  0.71211  0.24131  1.0000
  S   S68       1.0  0.17254  0.71100  0.21174  1.0000
  C   C180      1.0  0.22296  0.89062  0.19553  1.0000
  S   S69       1.0  0.21304  0.70219  0.32544  1.0000
  Fe  Fe36      1.0  0.20406  0.72364  0.28868  1.0000
  S   S70       1.0  0.20954  0.74725  0.28420  1.0000
  Fe  Fe37      1.0  0.21655  0.69015  0.27865  1.0000
  S   S71       1.0  0.17924  0.72067  0.30272  1.0000
  H   H227      1.0  0.21334  0.87210  0.29486  1.0000
  H   H228      1.0  0.02848  0.80870  0.06993  1.0000
  H   H229      1.0  0.03560  0.75742  0.14913  1.0000
  H   H230      1.0  0.12835  0.80465  0.16198  1.0000
  C   C181      1.0  0.22591  0.74589  0.30309  1.0000
  C   C182      1.0  0.13929  0.86898  0.02271  1.0000
  C   C183      1.0  0.19915  0.68578  0.48965  1.0000
  C   C184      1.0  0.17926  0.96539  0.02215  1.0000
  H   H231      1.0  0.02325  0.74045  0.05702  1.0000
  H   H232      1.0  0.17292  0.67875  0.15519  1.0000
  H   H233      1.0  0.19937  0.80407  0.27458  1.0000
  H   H234      1.0  0.12679  0.78025  0.23265  1.0000
  S   S72       1.0  0.23286  0.85296  0.15687  1.0000
  H   H235      1.0  0.22119  0.77033  0.30590  1.0000
  C   C185      1.0  0.13819  0.79470  0.16609  1.0000
  C   C186      1.0  0.02054  0.77363  0.11602  1.0000
  H   H236      1.0  0.21479  0.89960  0.18051  1.0000
  C   C187      1.0  0.22047  0.84304  0.22687  1.0000
  C   C188      1.0  0.99987  0.79209  0.18029  1.0000
  C   C189      1.0  0.19737  0.74695  0.38801  1.0000
  C   C190      1.0  0.14296  0.88291  0.07841  1.0000
  C   C191      1.0  0.22403  0.75757  0.45560  1.0000
  H   H237      1.0  0.20927  0.84914  0.22037  1.0000
  H   H238      1.0  0.20759  0.75179  0.37234  1.0000
  H   H239      1.0  0.18259  0.95614  0.10950  1.0000
  C   C192      1.0  0.01600  0.81159  0.16448  1.0000
  C   C193      1.0  0.03834  0.74988  0.00870  1.0000
  C   C194      1.0  0.20652  0.74224  0.44444  1.0000
  H   H240      1.0  0.11947  0.80077  0.22359  1.0000
  C   C195      1.0  0.19047  0.93810  0.03777  1.0000
  H   H241      1.0  0.23614  0.78518  0.17492  1.0000
  C   C196      1.0  0.17837  0.96726  0.05713  1.0000
  H   H242      1.0  0.17906  0.66454  0.21408  1.0000
  H   H243      1.0  0.20100  0.86218  0.03364  1.0000
  C   C197      1.0  0.19661  0.93661  0.16564  1.0000
  C   C198      1.0  0.19026  0.95019  0.18030  1.0000
  C   C199      1.0  0.19903  0.96193  0.17619  1.0000
  C   C200      1.0  0.21440  0.96006  0.15800  1.0000
  C   C201      1.0  0.22078  0.94642  0.14348  1.0000
  C   C202      1.0  0.21190  0.93483  0.14688  1.0000
  H   H244      1.0  0.17845  0.95171  0.19481  1.0000
  H   H245      1.0  0.19513  0.92655  0.03173  1.0000
  H   H246      1.0  0.03656  0.77531  0.03512  1.0000
  H   H247      1.0  0.21693  0.92453  0.13518  1.0000
  C   C203      1.0  0.15615  0.72617  0.20810  1.0000
  C   C204      1.0  0.14803  0.73304  0.23727  1.0000
  C   C205      1.0  0.13468  0.74470  0.23377  1.0000
  C   C206      1.0  0.12953  0.74976  0.20100  1.0000
  C   C207      1.0  0.13787  0.74316  0.17161  1.0000
  C   C208      1.0  0.15105  0.73129  0.17527  1.0000
  H   H248      1.0  0.15179  0.72911  0.26273  1.0000
  H   H249      1.0  0.12824  0.74969  0.25666  1.0000
  H   H250      1.0  0.13392  0.74689  0.14631  1.0000
  H   H251      1.0  0.15724  0.72601  0.15260  1.0000
  N   N14       1.0  0.19613  0.66991  0.16724  1.0000
  C   C209      1.0  0.22556  0.87063  0.28354  1.0000
  H   H252      1.0  0.16500  0.88657  0.04669  1.0000
  H   H253      1.0  0.19893  0.65973  0.22106  1.0000
  H   H254      1.0  0.13377  0.78411  0.16554  1.0000
  H   H255      1.0  0.06781  0.73410  0.00866  1.0000
  H   H256      1.0  0.18824  0.75685  0.39622  1.0000
  C   C210      1.0  0.22559  0.97731  0.02027  1.0000
  C   C211      1.0  0.13888  0.83159  0.09961  1.0000
  C   C212      1.0  0.15360  0.83586  0.08912  1.0000
  C   C213      1.0  0.15853  0.84483  0.10855  1.0000
  C   C214      1.0  0.14873  0.84971  0.13864  1.0000
  C   C215      1.0  0.13403  0.84542  0.14922  1.0000
  C   C216      1.0  0.12912  0.83637  0.12985  1.0000
  H   H257      1.0  0.16125  0.83229  0.06573  1.0000
  H   H258      1.0  0.16981  0.84816  0.09989  1.0000
  H   H259      1.0  0.12631  0.84930  0.17225  1.0000
  H   H260      1.0  0.11762  0.83346  0.13778  1.0000
  C   C217      1.0  0.03012  0.79744  0.08698  1.0000
  C   C218      1.0  0.04363  0.79235  0.10255  1.0000
  C   C219      1.0  0.04561  0.77775  0.12453  1.0000
  C   C220      1.0  0.03405  0.76856  0.13153  1.0000
  H   H261      1.0  0.21831  0.79403  0.15913  1.0000
  C   C221      1.0  0.22992  0.79630  0.23442  1.0000
  C   C222      1.0  0.22861  0.75916  0.31233  1.0000
  H   H262      1.0  0.05834  0.74857  0.07606  1.0000
  C   C223      1.0  0.20506  0.80932  0.21666  1.0000
  C   C224      1.0  0.19637  0.81170  0.25058  1.0000
  C   C225      1.0  0.20025  0.82006  0.18675  1.0000
  H   H263      1.0  0.03787  0.75105  0.07972  1.0000
  C   C226      1.0  0.18746  0.83224  0.19081  1.0000
  C   C227      1.0  0.17926  0.83429  0.22443  1.0000
  H   H264      1.0  0.22041  0.87900  0.19566  1.0000
  C   C228      1.0  0.18470  0.68187  0.14880  1.0000
  C   C229      1.0  0.15451  0.88208  0.04843  1.0000
  H   H265      1.0  0.18850  0.68349  0.11948  1.0000
  C   C230      1.0  0.18373  0.82406  0.25430  1.0000
  H   H266      1.0  0.19397  0.97232  0.18763  1.0000
  C   C231      1.0  0.09172  0.77790  0.99713  1.0000
  H   H267      1.0  0.19945  0.65526  0.12792  1.0000
  H   H268      1.0  0.12094  0.87708  0.10506  1.0000
  H   H269      1.0  0.18871  0.67949  0.21594  1.0000
  H   H270      1.0  0.20619  0.81946  0.15989  1.0000
  C   C232      1.0  0.19052  0.66835  0.20615  1.0000
  H   H271      1.0  0.18393  0.84025  0.16770  1.0000
  H   H272      1.0  0.16948  0.84392  0.22720  1.0000
  N   N15       1.0  0.14356  0.79352  0.20015  1.0000
  C   C233      1.0  0.14853  0.80836  0.19921  1.0000
  C   C234      1.0  0.15648  0.78023  0.20681  1.0000
  C   C235      1.0  0.16274  0.77747  0.23854  1.0000
  C   C236      1.0  0.17450  0.76466  0.24624  1.0000
  C   C237      1.0  0.18047  0.75432  0.22255  1.0000
  H   H273      1.0  0.14760  0.79649  0.14276  1.0000
  H   H274      1.0  0.15236  0.80878  0.22411  1.0000
  H   H275      1.0  0.15834  0.81034  0.17689  1.0000
  H   H276      1.0  0.13882  0.81847  0.19559  1.0000
  H   H277      1.0  0.15831  0.78498  0.25808  1.0000
  H   H278      1.0  0.17881  0.76252  0.27108  1.0000
  H   H279      1.0  0.18936  0.74423  0.22897  1.0000
  H   H280      1.0  0.15858  0.77024  0.15885  1.0000
  C   C238      1.0  0.20101  0.68614  0.42630  1.0000
  C   C239      1.0  0.22784  0.69312  0.16005  1.0000
  C   C240      1.0  0.22153  0.83466  0.26129  1.0000
  H   H281      1.0  0.05020  0.77609  0.99439  1.0000
  C   C241      1.0  0.18726  0.72809  0.43503  1.0000
  C   C242      1.0  0.16285  0.76944  0.18315  1.0000
  H   H282      1.0  0.00845  0.83224  0.12999  1.0000
  H   H283      1.0  0.23502  0.80694  0.22410  1.0000
  C   C243      1.0  0.01327  0.79701  0.18257  1.0000
  H   H284      1.0  0.19804  0.84359  0.99820  1.0000
  C   C244      1.0  0.18551  0.95073  0.01125  1.0000
  H   H285      1.0  0.22513  0.79632  0.26304  1.0000
  H   H286      1.0  0.19304  0.74193  0.36905  1.0000
  C   C245      1.0  0.12779  0.86987  0.05389  1.0000
  H   H287      1.0  0.05014  0.73326  0.06827  1.0000
  C   C246      1.0  0.23559  0.73149  0.31150  1.0000
  H   H288      1.0  0.23417  0.72141  0.30252  1.0000
  H   H289      1.0  0.22134  0.77071  0.22485  1.0000
  H   H290      1.0  0.23267  0.94486  0.12938  1.0000
  H   H291      1.0  0.16773  0.81309  0.99349  1.0000
  H   H292      1.0  0.18339  0.72312  0.41527  1.0000
  H   H293      1.0  0.21872  0.91836  0.21710  1.0000
  H   H294      1.0  0.22465  0.72719  0.39292  1.0000
  H   H295      1.0  0.17745  0.82580  0.28051  1.0000
  H   H296      1.0  0.20665  0.78021  0.25564  1.0000
  C   C247      1.0  0.15274  0.87525  0.02094  1.0000
  H   H297      1.0  0.22914  0.70325  0.16936  1.0000
  H   H298      1.0  0.11742  0.86497  0.05833  1.0000
  H   H299      1.0  0.16320  0.69478  0.46598  1.0000
  H   H300      1.0  0.14622  0.79886  0.02116  1.0000
  C   C248      1.0  0.17469  0.75672  0.19107  1.0000
  Fe  Fe38      1.0  0.18860  0.69807  0.33623  1.0000
  C   C249      1.0  0.13000  0.79188  0.22915  1.0000
  H   H301      1.0  0.20261  0.89773  0.27573  1.0000
  H   H302      1.0  0.13229  0.79309  0.25511  1.0000
  H   H303      1.0  0.22068  0.68049  0.45354  1.0000
  H   H304      1.0  0.17901  0.74829  0.17334  1.0000
  H   H305      1.0  0.00852  0.79196  0.08083  1.0000
  H   H306      1.0  0.99295  0.84499  0.09239  1.0000
  C   C250      1.0  0.23152  0.88034  0.25209  1.0000
  C   C251      1.0  0.19999  0.74072  0.48124  1.0000
  H   H307      1.0  0.20805  0.68454  0.40077  1.0000
  H   H308      1.0  0.08895  0.78298  0.02086  1.0000
  H   H309      1.0  0.23129  0.80596  0.16455  1.0000
  C   C252      1.0  0.01396  0.74101  0.01139  1.0000
  H   H310      1.0  0.19316  0.93023  0.09261  1.0000
  N   N16       1.0  0.21809  0.79584  0.21340  1.0000
  H   H311      1.0  0.18318  0.69342  0.15665  1.0000
  C   C253      1.0  0.18478  0.69010  0.42964  1.0000
  S   S73       1.0  0.00656  0.76133  0.12512  1.0000
  H   H312      1.0  0.21730  0.71352  0.42979  1.0000
  H   H313      1.0  0.20384  0.69546  0.18286  1.0000
  H   H314      1.0  0.99583  0.82035  0.07166  1.0000
  H   H315      1.0  0.22490  0.75180  0.40531  1.0000
  C   C254      1.0  0.21892  0.75063  0.43255  1.0000
  H   H316      1.0  0.19998  0.88461  0.24880  1.0000
  H   H317      1.0  0.02682  0.81505  0.16498  1.0000
  C   C255      1.0  0.20814  0.68381  0.45628  1.0000
  C   C256      1.0  0.21400  0.72264  0.40704  1.0000
  C   C257      1.0  0.18940  0.94007  0.07274  1.0000
  N   N17       1.0  0.05028  0.75310  0.02580  1.0000
  C   C258      1.0  0.22991  0.65465  0.23572  1.0000
  H   H318      1.0  0.17502  0.97567  0.00419  1.0000
  H   H319      1.0  0.12155  0.84713  0.02196  1.0000
  C   C259      1.0  0.02524  0.74346  0.02839  1.0000
  N   N18       1.0  0.13763  0.86204  0.99289  1.0000
  H   H320      1.0  0.21110  0.83447  0.28119  1.0000
  H   H321      1.0  0.02187  0.78927  0.19720  1.0000
  H   H322      1.0  0.22539  0.96998  0.07651  1.0000
  C   C260      1.0  0.22473  0.66654  0.13771  1.0000
  S   S74       1.0  0.19264  0.68403  0.29220  1.0000
  H   H323      1.0  0.07537  0.74884  0.02112  1.0000
  H   H324      1.0  0.19748  0.90506  0.23290  1.0000
  H   H325      1.0  0.23482  0.89094  0.17984  1.0000
  C   C261      1.0  0.04909  0.74612  0.06407  1.0000
  H   H326      1.0  0.21941  0.96846  0.01854  1.0000
  C   C262      1.0  0.23385  0.84319  0.20085  1.0000
  H   H327      1.0  0.14449  0.88787  0.10011  1.0000
  C   C263      1.0  0.04846  0.77018  0.02262  1.0000
  H   H328      1.0  0.21050  0.71681  0.38834  1.0000
  N   N19       1.0  0.20128  0.73510  0.41931  1.0000
  C   C264      1.0  0.22887  0.97817  0.05295  1.0000
  C   C265      1.0  0.18342  0.95464  0.08237  1.0000
  H   H329      1.0  0.00398  0.73624  0.02691  1.0000
  C   C266      1.0  0.22644  0.90825  0.23070  1.0000
  H   H330      1.0  0.18964  0.71828  0.45712  1.0000
  C   C267      1.0  0.19764  0.86649  0.00792  1.0000
  C   C268      1.0  0.17577  0.69179  0.46318  1.0000
  H   H331      1.0  0.14996  0.83928  0.01199  1.0000
  H   H332      1.0  0.17373  0.97860  0.06471  1.0000
  H   H333      1.0  0.17723  0.73683  0.44511  1.0000
  C   C269      1.0  0.22625  0.79528  0.17629  1.0000
  C   C270      1.0  0.21148  0.67478  0.15784  1.0000
  H   H334      1.0  0.05695  0.77332  0.03578  1.0000
  C   C271      1.0  0.20469  0.89517  0.24834  1.0000
  H   H335      1.0  0.23060  0.85069  0.32443  1.0000
  C   C272      1.0  0.21343  0.68840  0.16814  1.0000
  C   C273      1.0  0.19642  0.65473  0.15719  1.0000
  H   H336      1.0  0.20287  0.78046  0.21238  1.0000
  C   C274      1.0  0.21197  0.78122  0.22708  1.0000
  H   H337      1.0  0.16209  0.87480  0.99840  1.0000
  C   C275      1.0  0.12270  0.85649  0.99821  1.0000
  C   C276      1.0  0.23593  0.82637  0.27000  1.0000
  H   H338      1.0  0.99816  0.78042  0.19296  1.0000
  H   H339      1.0  0.18487  0.65112  0.16565  1.0000
  N   N20       1.0  0.22149  0.89333  0.23227  1.0000
  C   C277      1.0  0.06621  0.74684  0.00815  1.0000
  H   H340      1.0  0.22611  0.91043  0.25784  1.0000
  H   H341      1.0  0.22460  0.65588  0.12916  1.0000
  C   C278      1.0  0.23539  0.85828  0.30109  1.0000
  C   C279      1.0  0.00529  0.82137  0.14425  1.0000
  H   H342      1.0  0.21931  0.65705  0.25456  1.0000
  S   S75       1.0  0.23634  0.81540  0.31311  1.0000
  C   C280      1.0  0.98915  0.80172  0.15993  1.0000
  C   C281      1.0  0.19533  0.88244  0.99442  1.0000
  H   H343      1.0  0.11249  0.86616  0.00127  1.0000
  H   H344      1.0  0.23332  0.76413  0.44556  1.0000
  C   C282      1.0  0.21726  0.75605  0.49135  1.0000
  H   H345      1.0  0.22811  0.70528  0.49098  1.0000
  C   C283      1.0  0.14894  0.80194  0.99245  1.0000
  Fe  Fe39      1.0  0.18310  0.85810  0.87636  1.0000
  S   S76       1.0  0.16139  0.87616  0.87357  1.0000
  S   S77       1.0  0.19064  0.84778  0.92893  1.0000
  Fe  Fe40      1.0  0.18807  0.85526  0.79909  1.0000
  S   S78       1.0  0.16668  0.87338  0.78997  1.0000
  S   S79       1.0  0.19970  0.84240  0.75367  1.0000
  Fe  Fe41      1.0  0.17478  0.88697  0.82265  1.0000
  S   S80       1.0  0.17093  0.91343  0.80732  1.0000
  Fe  Fe42      1.0  0.15514  0.86117  0.84157  1.0000
  S   S81       1.0  0.13063  0.85623  0.85490  1.0000
  S   S82       1.0  0.19725  0.86978  0.82746  1.0000
  S   S83       1.0  0.17582  0.84217  0.84862  1.0000
  C   C284      1.0  0.18955  0.87732  0.94041  1.0000
  H   H346      1.0  0.13641  0.86922  0.93707  1.0000
  Fe  Fe43      1.0  0.09757  0.79463  0.79110  1.0000
  S   S84       1.0  0.10513  0.77463  0.83296  1.0000
  S   S85       1.0  0.11463  0.81108  0.76814  1.0000
  Fe  Fe44      1.0  0.06831  0.78182  0.78852  1.0000
  S   S86       1.0  0.07422  0.76093  0.83002  1.0000
  S   S87       1.0  0.04665  0.78664  0.76253  1.0000
  Fe  Fe45      1.0  0.07989  0.77794  0.85772  1.0000
  S   S88       1.0  0.07044  0.77962  0.91506  1.0000
  Fe  Fe46      1.0  0.09891  0.75982  0.80039  1.0000
  S   S89       1.0  0.11532  0.73718  0.79130  1.0000
  S   S90       1.0  0.07255  0.79911  0.81807  1.0000
  S   S91       1.0  0.09274  0.77957  0.75677  1.0000
  H   H347      1.0  0.10856  0.91889  0.75337  1.0000
  Fe  Fe47      1.0  0.20427  0.71707  0.61230  1.0000
  S   S92       1.0  0.18898  0.71020  0.66405  1.0000
  H   H348      1.0  0.06885  0.75248  0.98001  1.0000
  H   H349      1.0  0.13753  0.91758  0.73971  1.0000
  H   H350      1.0  0.12673  0.90701  0.83578  1.0000
  H   H351      1.0  0.22267  0.76403  0.71183  1.0000
  Fe  Fe48      1.0  0.17241  0.70909  0.62945  1.0000
  S   S93       1.0  0.14773  0.72260  0.63837  1.0000
  H   H352      1.0  0.11627  0.89204  0.83652  1.0000
  S   S94       1.0  0.18713  0.71773  0.57795  1.0000
  H   H353      1.0  0.13745  0.92198  0.78227  1.0000
  C   C285      1.0  0.03906  0.75410  0.97132  1.0000
  N   N21       1.0  0.18676  0.94832  0.97436  1.0000
  H   H354      1.0  0.00601  0.78502  0.82825  1.0000
  C   C286      1.0  0.09819  0.76438  0.93611  1.0000
  H   H355      1.0  0.11913  0.70321  0.65587  1.0000
  H   H356      1.0  0.14674  0.89266  0.72616  1.0000
  C   C287      1.0  0.08454  0.77540  0.94246  1.0000
  C   C288      1.0  0.10859  0.76013  0.96041  1.0000
  C   C289      1.0  0.21578  0.65041  0.60901  1.0000
  Fe  Fe49      1.0  0.19961  0.68565  0.65602  1.0000
  H   H357      1.0  0.14957  0.90475  0.76986  1.0000
  H   H358      1.0  0.09993  0.90952  0.79591  1.0000
  H   H359      1.0  0.99756  0.77701  0.74196  1.0000
  C   C290      1.0  0.20317  0.94188  0.96014  1.0000
  C   C291      1.0  0.23474  0.67558  0.69729  1.0000
  C   C292      1.0  0.12523  0.73422  0.74847  1.0000
  C   C293      1.0  0.13721  0.72117  0.74504  1.0000
  C   C294      1.0  0.14462  0.71785  0.71131  1.0000
  C   C295      1.0  0.13984  0.72738  0.68078  1.0000
  C   C296      1.0  0.12801  0.74056  0.68414  1.0000
  C   C297      1.0  0.12092  0.74413  0.71787  1.0000
  H   H360      1.0  0.14057  0.71343  0.76862  1.0000
  H   H361      1.0  0.15361  0.70758  0.70899  1.0000
  H   H362      1.0  0.12421  0.74793  0.66060  1.0000
  H   H363      1.0  0.11182  0.75425  0.72018  1.0000
  C   C298      1.0  0.00826  0.75774  0.77758  1.0000
  C   C299      1.0  0.02097  0.75204  0.79574  1.0000
  C   C300      1.0  0.03252  0.76094  0.79256  1.0000
  C   C301      1.0  0.03175  0.77548  0.77023  1.0000
  C   C302      1.0  0.01896  0.78123  0.75237  1.0000
  C   C303      1.0  0.00721  0.77250  0.75626  1.0000
  H   H364      1.0  0.02186  0.74065  0.81240  1.0000
  H   H365      1.0  0.04211  0.75642  0.80699  1.0000
  H   H366      1.0  0.01822  0.79247  0.73506  1.0000
  H   H367      1.0  0.00924  0.77572  0.87155  1.0000
  C   C304      1.0  0.12564  0.86503  0.73276  1.0000
  C   C305      1.0  0.15044  0.84851  0.98793  1.0000
  N   N22       1.0  0.07401  0.74600  0.71526  1.0000
  H   H368      1.0  0.18912  0.97162  0.94775  1.0000
  H   H369      1.0  0.21096  0.78881  0.73361  1.0000
  H   H370      1.0  0.12969  0.88454  0.96306  1.0000
  C   C306      1.0  0.19747  0.93006  0.85851  1.0000
  C   C307      1.0  0.12644  0.84328  0.83143  1.0000
  C   C308      1.0  0.11229  0.83788  0.84199  1.0000
  C   C309      1.0  0.10873  0.82755  0.82361  1.0000
  C   C310      1.0  0.11916  0.82287  0.79402  1.0000
  C   C311      1.0  0.13335  0.82819  0.78372  1.0000
  C   C312      1.0  0.13707  0.83820  0.80257  1.0000
  H   H371      1.0  0.10402  0.84170  0.86437  1.0000
  H   H372      1.0  0.09773  0.82357  0.83167  1.0000
  H   H373      1.0  0.14147  0.82466  0.76083  1.0000
  H   H374      1.0  0.14802  0.84228  0.79419  1.0000
  C   C313      1.0  0.17988  0.92581  0.82329  1.0000
  C   C314      1.0  0.19011  0.91992  0.84761  1.0000
  C   C315      1.0  0.13901  0.80184  0.87299  1.0000
  C   C316      1.0  0.19456  0.94621  0.84561  1.0000
  C   C317      1.0  0.18398  0.95214  0.82212  1.0000
  C   C318      1.0  0.17675  0.94198  0.81092  1.0000
  H   H375      1.0  0.19247  0.90755  0.85764  1.0000
  H   H376      1.0  0.18062  0.92549  0.98990  1.0000
  H   H377      1.0  0.18164  0.96451  0.81191  1.0000
  H   H378      1.0  0.16882  0.94668  0.79219  1.0000
  H   H379      1.0  0.12583  0.85512  0.72072  1.0000
  H   H380      1.0  0.18644  0.88155  0.91432  1.0000
  H   H381      1.0  0.06577  0.75556  0.76348  1.0000
  H   H382      1.0  0.10052  0.75884  0.91303  1.0000
  N   N23       1.0  0.13479  0.79629  0.91173  1.0000
  H   H383      1.0  0.17587  0.69121  0.51872  1.0000
  C   C319      1.0  0.19206  0.86133  0.95392  1.0000
  H   H384      1.0  0.22133  0.76130  0.50933  1.0000
  C   C320      1.0  0.14360  0.80155  0.93357  1.0000
  C   C321      1.0  0.15583  0.81002  0.91857  1.0000
  H   H385      1.0  0.12187  0.85133  0.97532  1.0000
  C   C322      1.0  0.02777  0.75149  0.95461  1.0000
  H   H386      1.0  0.20557  0.92536  0.87683  1.0000
  S   S95       1.0  0.20746  0.66565  0.69873  1.0000
  S   S96       1.0  0.99430  0.74586  0.78149  1.0000
  H   H387      1.0  0.22678  0.71529  0.54581  1.0000
  C   C323      1.0  0.23655  0.87282  0.77819  1.0000
  H   H388      1.0  0.15016  0.87709  0.95139  1.0000
  H   H389      1.0  0.11086  0.79862  0.90532  1.0000
  H   H390      1.0  0.20032  0.74622  0.53220  1.0000
  H   H391      1.0  0.13716  0.81474  0.86682  1.0000
  H   H392      1.0  0.22789  0.88379  0.92510  1.0000
  H   H393      1.0  0.15137  0.79709  0.86259  1.0000
  H   H394      1.0  0.15910  0.81359  0.89028  1.0000
  C   C324      1.0  0.21868  0.83112  0.75201  1.0000
  C   C325      1.0  0.22644  0.72414  0.66307  1.0000
  H   H395      1.0  0.20734  0.93004  0.97463  1.0000
  C   C326      1.0  0.22436  0.89901  0.78655  1.0000
  C   C327      1.0  0.22556  0.67026  0.80002  1.0000
  S   S97       1.0  0.20873  0.68286  0.52628  1.0000
  H   H396      1.0  0.98938  0.75929  0.87229  1.0000
  Fe  Fe50      1.0  0.19795  0.69271  0.57663  1.0000
  C   C328      1.0  0.16440  0.81410  0.94009  1.0000
  H   H397      1.0  0.02870  0.75473  0.92602  1.0000
  C   C329      1.0  0.23692  0.74669  0.62968  1.0000
  H   H398      1.0  0.21199  0.65873  0.62798  1.0000
  H   H399      1.0  0.16449  0.94138  0.98527  1.0000
  H   H400      1.0  0.08839  0.76332  0.69438  1.0000
  C   C330      1.0  0.23412  0.72395  0.69092  1.0000
  N   N24       1.0  0.17457  0.75500  0.70085  1.0000
  C   C331      1.0  0.17654  0.73939  0.72368  1.0000
  C   C332      1.0  0.15764  0.76183  0.70605  1.0000
  C   C333      1.0  0.17952  0.75305  0.66312  1.0000
  C   C334      1.0  0.18429  0.76457  0.70966  1.0000
  C   C335      1.0  0.17793  0.77887  0.72231  1.0000
  C   C336      1.0  0.20071  0.75957  0.70597  1.0000
  C   C337      1.0  0.18753  0.78748  0.73066  1.0000
  C   C338      1.0  0.21016  0.76821  0.71460  1.0000
  C   C339      1.0  0.20359  0.78215  0.72690  1.0000
  H   H401      1.0  0.17342  0.74036  0.75233  1.0000
  H   H402      1.0  0.16900  0.73203  0.71863  1.0000
  H   H403      1.0  0.18870  0.73278  0.71898  1.0000
  H   H404      1.0  0.15287  0.76296  0.73429  1.0000
  H   H405      1.0  0.15075  0.75438  0.69901  1.0000
  H   H406      1.0  0.15517  0.77344  0.68891  1.0000
  H   H407      1.0  0.19168  0.74654  0.65762  1.0000
  H   H408      1.0  0.17206  0.74640  0.65512  1.0000
  H   H409      1.0  0.17894  0.76454  0.64507  1.0000
  H   H410      1.0  0.16560  0.78368  0.72605  1.0000
  H   H411      1.0  0.20639  0.74888  0.69646  1.0000
  H   H412      1.0  0.18249  0.79838  0.74019  1.0000
  H   H413      1.0  0.22991  0.68636  0.68147  1.0000
  H   H414      1.0  0.08598  0.74691  0.75696  1.0000
  H   H415      1.0  0.06819  0.77118  0.70818  1.0000
  C   C340      1.0  0.12624  0.89760  0.82173  1.0000
  H   H416      1.0  0.13693  0.88859  0.82445  1.0000
  H   H417      1.0  0.09471  0.72111  0.74871  1.0000
  C   C341      1.0  0.11018  0.91473  0.78153  1.0000
  C   C342      1.0  0.13794  0.91230  0.76803  1.0000
  H   H418      1.0  0.10970  0.92513  0.79340  1.0000
  C   C343      1.0  0.07632  0.76169  0.69550  1.0000
  C   C344      1.0  0.07432  0.74575  0.75317  1.0000
  H   H419      1.0  0.07411  0.76383  0.66786  1.0000
  H   H420      1.0  0.07123  0.73490  0.77046  1.0000
  H   H421      1.0  0.08138  0.74184  0.64560  1.0000
  N   N25       1.0  0.12510  0.90353  0.78376  1.0000
  C   C345      1.0  0.05833  0.74387  0.71279  1.0000
  C   C346      1.0  0.08603  0.73377  0.69978  1.0000
  C   C347      1.0  0.08844  0.73347  0.66285  1.0000
  H   H422      1.0  0.05604  0.73229  0.72756  1.0000
  H   H423      1.0  0.05690  0.74471  0.68488  1.0000
  H   H424      1.0  0.04896  0.75292  0.72413  1.0000
  H   H425      1.0  0.10486  0.88297  0.80026  1.0000
  S   S98       1.0  0.21688  0.73697  0.59953  1.0000
  C   C348      1.0  0.12553  0.89038  0.76589  1.0000
  H   H426      1.0  0.10222  0.72280  0.61890  1.0000
  C   C349      1.0  0.09558  0.72190  0.72044  1.0000
  C   C350      1.0  0.10021  0.72251  0.64733  1.0000
  H   H427      1.0  0.18947  0.90020  0.94999  1.0000
  C   C351      1.0  0.11391  0.88101  0.77766  1.0000
  C   C352      1.0  0.13726  0.88644  0.73671  1.0000
  H   H428      1.0  0.21464  0.89176  0.89470  1.0000
  C   C353      1.0  0.10966  0.71135  0.66814  1.0000
  C   C354      1.0  0.10722  0.71093  0.70464  1.0000
  H   H429      1.0  0.13125  0.77455  0.90229  1.0000
  H   H430      1.0  0.14653  0.87084  0.69898  1.0000
  H   H431      1.0  0.11480  0.70240  0.72064  1.0000
  H   H432      1.0  0.21389  0.65713  0.58240  1.0000
  C   C355      1.0  0.11395  0.86861  0.76114  1.0000
  S   S99       1.0  0.20496  0.95821  0.85864  1.0000
  S   S100      1.0  0.21646  0.69278  0.60747  1.0000
  H   H433      1.0  0.00374  0.79662  0.86174  1.0000
  C   C356      1.0  0.13728  0.87388  0.72065  1.0000
  H   H434      1.0  0.20468  0.94077  0.93172  1.0000
  C   C357      1.0  0.19130  0.88785  0.96057  1.0000
  H   H435      1.0  0.11908  0.75150  0.95566  1.0000
  S   S101      1.0  0.18164  0.68376  0.62518  1.0000
  H   H436      1.0  0.10518  0.86137  0.77113  1.0000
  H   H437      1.0  0.11508  0.81492  0.91911  1.0000
  C   C358      1.0  0.23308  0.87991  0.83709  1.0000
  H   H438      1.0  0.18289  0.96068  0.92211  1.0000
  H   H439      1.0  0.21948  0.71546  0.66530  1.0000
  H   H440      1.0  0.22541  0.84183  0.78913  1.0000
  H   H441      1.0  0.21792  0.67842  0.78346  1.0000
  C   C359      1.0  0.22689  0.86170  0.89131  1.0000
  H   H442      1.0  0.22232  0.90458  0.83721  1.0000
  C   C360      1.0  0.14039  0.79772  0.97122  1.0000
  H   H443      1.0  0.21552  0.81831  0.71416  1.0000
  C   C361      1.0  0.22724  0.88781  0.89634  1.0000
  H   H444      1.0  0.16935  0.96812  0.95767  1.0000
  H   H445      1.0  0.14981  0.84330  0.96501  1.0000
  H   H446      1.0  0.23295  0.71520  0.71466  1.0000
  H   H447      1.0  0.23279  0.85101  0.88025  1.0000
  C   C362      1.0  0.17687  0.93712  0.97401  1.0000
  C   C363      1.0  0.18179  0.96284  0.94960  1.0000
  C   C364      1.0  0.20534  0.74757  0.50416  1.0000
  H   H448      1.0  0.21462  0.86424  0.88693  1.0000
  C   C365      1.0  0.13791  0.77903  0.91769  1.0000
  H   H449      1.0  0.17733  0.93522  0.94654  1.0000
  H   H450      1.0  0.13459  0.77392  0.94607  1.0000
  H   H451      1.0  0.21108  0.94961  0.96170  1.0000
  H   H452      1.0  0.17376  0.82048  0.92814  1.0000
  C   C366      1.0  0.22915  0.83343  0.77144  1.0000
  C   C367      1.0  0.08139  0.78219  0.97287  1.0000
  C   C368      1.0  0.00166  0.78551  0.85686  1.0000
  H   H453      1.0  0.20925  0.65539  0.81931  1.0000
  H   H454      1.0  0.15052  0.77430  0.90986  1.0000
  H   H455      1.0  0.13174  0.79825  0.85737  1.0000
  C   C369      1.0  0.22358  0.82010  0.72929  1.0000
  N   N26       1.0  0.23454  0.87527  0.87512  1.0000
  C   C370      1.0  0.22614  0.66365  0.70923  1.0000
  H   H456      1.0  0.11323  0.79709  0.94987  1.0000
  C   C371      1.0  0.11781  0.80198  0.92201  1.0000
  H   H457      1.0  0.04823  0.75974  0.95468  1.0000
  H   H458      1.0  0.23702  0.66318  0.54691  1.0000
  C   C372      1.0  0.22758  0.73572  0.63283  1.0000
  C   C373      1.0  0.22076  0.65681  0.82071  1.0000
  C   C374      1.0  0.23254  0.64973  0.72977  1.0000
  H   H459      1.0  0.07089  0.79080  0.97777  1.0000
  C   C375      1.0  0.22937  0.88780  0.76471  1.0000
  C   C376      1.0  0.13850  0.87374  0.95972  1.0000
  C   C377      1.0  0.22634  0.89525  0.82208  1.0000
  H   H460      1.0  0.22762  0.89072  0.73731  1.0000
  C   C378      1.0  0.01527  0.74490  0.97461  1.0000
  H   H461      1.0  0.13135  0.79119  0.98464  1.0000
  H   H462      1.0  0.16214  0.85165  0.98266  1.0000
  H   H463      1.0  0.21870  0.91067  0.77604  1.0000
  C   C379      1.0  0.16102  0.80998  0.97692  1.0000
  H   H464      1.0  0.22661  0.85856  0.92056  1.0000
  H   H465      1.0  0.19081  0.73422  0.49313  1.0000
  H   H466      1.0  0.00643  0.74299  0.96173  1.0000
  C   C380      1.0  0.19605  0.85596  0.98769  1.0000
  C   C381      1.0  0.18292  0.68982  0.49306  1.0000
  H   H467      1.0  0.23311  0.89805  0.88742  1.0000
  C   C382      1.0  0.23578  0.71774  0.52318  1.0000
  H   H468      1.0  0.98854  0.77238  0.92034  1.0000
  C   C383      1.0  0.23645  0.71216  0.49220  1.0000
  C   C384      1.0  0.10545  0.76703  0.99075  1.0000
  H   H469      1.0  0.35950  0.31481  0.43090  1.0000
  C   C385      1.0  0.26555  0.20650  0.27918  1.0000
  Fe  Fe51      1.0  0.27864  0.07184  0.32514  1.0000
  S   S102      1.0  0.26481  0.09100  0.35419  1.0000
  S   S103      1.0  0.26743  0.05210  0.31921  1.0000
  Fe  Fe52      1.0  0.30830  0.08564  0.31174  1.0000
  S   S104      1.0  0.29675  0.10579  0.33965  1.0000
  S   S105      1.0  0.33334  0.08090  0.28346  1.0000
  Fe  Fe53      1.0  0.28538  0.08822  0.38164  1.0000
  S   S106      1.0  0.27810  0.09074  0.44043  1.0000
  Fe  Fe54      1.0  0.27730  0.10674  0.31083  1.0000
  S   S107      1.0  0.26528  0.12874  0.28115  1.0000
  S   S108      1.0  0.29845  0.06768  0.35573  1.0000
  S   S109      1.0  0.28959  0.08802  0.27974  1.0000
  Fe  Fe55      1.0  0.37495  0.15305  0.17525  1.0000
  S   S110      1.0  0.35843  0.16679  0.13878  1.0000
  S   S111      1.0  0.37806  0.12675  0.19146  1.0000
  Fe  Fe56      1.0  0.38856  0.18183  0.17830  1.0000
  S   S112      1.0  0.37323  0.19738  0.14103  1.0000
  S   S113      1.0  0.40356  0.18853  0.21196  1.0000
  Fe  Fe57      1.0  0.35452  0.18466  0.17364  1.0000
  S   S114      1.0  0.33097  0.19599  0.19867  1.0000
  Fe  Fe58      1.0  0.37862  0.17803  0.10880  1.0000
  S   S115      1.0  0.38498  0.18382  0.04796  1.0000
  S   S116      1.0  0.36934  0.17011  0.21240  1.0000
  S   S117      1.0  0.39566  0.16325  0.14356  1.0000
  Fe  Fe59      1.0  0.27193  0.30586  0.13464  1.0000
  S   S118      1.0  0.27142  0.28028  0.14920  1.0000
  H   H470      1.0  0.27886  0.21773  0.23244  1.0000
  C   C386      1.0  0.38386  0.29933  0.25140  1.0000
  S   S119      1.0  0.29728  0.27851  0.20030  1.0000
  Fe  Fe60      1.0  0.29723  0.27771  0.14356  1.0000
  S   S120      1.0  0.31343  0.26223  0.10826  1.0000
  Fe  Fe61      1.0  0.27104  0.28316  0.20530  1.0000
  S   S121      1.0  0.26012  0.26903  0.25656  1.0000
  C   C387      1.0  0.36341  0.31496  0.40188  1.0000
  C   C388      1.0  0.23805  0.16475  0.32431  1.0000
  H   H471      1.0  0.39047  0.24570  0.45265  1.0000
  S   S122      1.0  0.43255  0.30116  0.33695  1.0000
  S   S123      1.0  0.45729  0.23352  0.31915  1.0000
  C   C389      1.0  0.42233  0.21502  0.25901  1.0000
  H   H472      1.0  0.24359  0.15772  0.27305  1.0000
  C   C390      1.0  0.30886  0.03871  0.18997  1.0000
  H   H473      1.0  0.38210  0.10972  0.09230  1.0000
  C   C391      1.0  0.40077  0.12898  0.04318  1.0000
  H   H474      1.0  0.29428  0.02903  0.27847  1.0000
  H   H475      1.0  0.27963  0.01534  0.25461  1.0000
  C   C392      1.0  0.24131  0.24864  0.29467  1.0000
  S   S124      1.0  0.42577  0.24621  0.24799  1.0000
  C   C393      1.0  0.25042  0.14701  0.37069  1.0000
  H   H476      1.0  0.41234  0.30824  0.21507  1.0000
  Fe  Fe62      1.0  0.47128  0.25283  0.30476  1.0000
  C   C394      1.0  0.44117  0.24691  0.45146  1.0000
  H   H477      1.0  0.28227  0.01684  0.18996  1.0000
  C   C395      1.0  0.40953  0.20483  0.22136  1.0000
  C   C396      1.0  0.40691  0.21977  0.20091  1.0000
  C   C397      1.0  0.41192  0.23220  0.20955  1.0000
  H   H478      1.0  0.33556  0.02911  0.24509  1.0000
  C   C398      1.0  0.41727  0.20261  0.25044  1.0000
  H   H479      1.0  0.40136  0.22166  0.17796  1.0000
  H   H480      1.0  0.40999  0.24358  0.19312  1.0000
  H   H481      1.0  0.31826  0.07195  0.23307  1.0000
  H   H482      1.0  0.40653  0.27124  0.20552  1.0000
  H   H483      1.0  0.34962  0.29415  0.30819  1.0000
  H   H484      1.0  0.36563  0.16191  0.04213  1.0000
  C   C399      1.0  0.43979  0.26294  0.43926  1.0000
  C   C400      1.0  0.32501  0.21379  0.17220  1.0000
  C   C401      1.0  0.31283  0.22476  0.18644  1.0000
  C   C402      1.0  0.30895  0.23960  0.16641  1.0000
  C   C403      1.0  0.31729  0.24341  0.13226  1.0000
  C   C404      1.0  0.32919  0.23231  0.11771  1.0000
  C   C405      1.0  0.33300  0.21745  0.13764  1.0000
  H   H485      1.0  0.30669  0.22196  0.21324  1.0000
  H   H486      1.0  0.29963  0.24812  0.17758  1.0000
  H   H487      1.0  0.33566  0.23529  0.09130  1.0000
  H   H488      1.0  0.34218  0.20888  0.12627  1.0000
  C   C406      1.0  0.38967  0.31494  0.40653  1.0000
  C   C407      1.0  0.40614  0.14257  0.02323  1.0000
  H   H489      1.0  0.30025  0.06911  0.22409  1.0000
  H   H490      1.0  0.31055  0.07797  0.45195  1.0000
  C   C408      1.0  0.33287  0.04152  0.23209  1.0000
  H   H491      1.0  0.38499  0.15101  0.08185  1.0000
  H   H492      1.0  0.26305  0.06318  0.19202  1.0000
  C   C409      1.0  0.25764  0.13685  0.34686  1.0000
  C   C410      1.0  0.27520  0.14976  0.45042  1.0000
  C   C411      1.0  0.24066  0.00063  0.02553  1.0000
  H   H493      1.0  0.42034  0.27788  0.25174  1.0000
  C   C412      1.0  0.48342  0.24748  0.43779  1.0000
  H   H494      1.0  0.26513  0.12604  0.35576  1.0000
  C   C413      1.0  0.30003  0.03086  0.17689  1.0000
  C   C414      1.0  0.37023  0.28258  0.43144  1.0000
  C   C415      1.0  0.36458  0.11514  0.21747  1.0000
  C   C416      1.0  0.36984  0.09900  0.22329  1.0000
  C   C417      1.0  0.36004  0.08894  0.24346  1.0000
  C   C418      1.0  0.34471  0.09475  0.25833  1.0000
  C   C419      1.0  0.33920  0.11096  0.25254  1.0000
  C   C420      1.0  0.34916  0.12117  0.23208  1.0000
  H   H495      1.0  0.38169  0.09420  0.21238  1.0000
  H   H496      1.0  0.36446  0.07652  0.24782  1.0000
  H   H497      1.0  0.32737  0.11557  0.26390  1.0000
  H   H498      1.0  0.34499  0.13362  0.22777  1.0000
  H   H499      1.0  0.43231  0.31086  0.46251  1.0000
  H   H500      1.0  0.30108  0.03149  0.14852  1.0000
  C   C421      1.0  0.25234  0.03808  0.28395  1.0000
  C   C422      1.0  0.26079  0.04994  0.28108  1.0000
  C   C423      1.0  0.26431  0.05918  0.24785  1.0000
  C   C424      1.0  0.25988  0.05624  0.21775  1.0000
  H   H501      1.0  0.38690  0.31401  0.43591  1.0000
  H   H502      1.0  0.27077  0.06834  0.24518  1.0000
  H   H503      1.0  0.39666  0.30340  0.34606  1.0000
  H   H504      1.0  0.33977  0.04817  0.24191  1.0000
  H   H505      1.0  0.24028  0.30387  0.08464  1.0000
  H   H506      1.0  0.41820  0.29232  0.19226  1.0000
  C   C425      1.0  0.29659  0.02968  0.24999  1.0000
  H   H507      1.0  0.47243  0.27630  0.40560  1.0000
  S   S125      1.0  0.26925  0.30941  0.19156  1.0000
  H   H508      1.0  0.40682  0.12721  0.12761  1.0000
  H   H509      1.0  0.47347  0.27691  0.45029  1.0000
  C   C426      1.0  0.39569  0.27725  0.22082  1.0000
  H   H510      1.0  0.33724  0.04210  0.20315  1.0000
  C   C427      1.0  0.28728  0.08574  0.47852  1.0000
  H   H511      1.0  0.31803  0.06586  0.19298  1.0000
  C   C428      1.0  0.28951  0.02248  0.20016  1.0000
  N   N27       1.0  0.35665  0.22607  0.23629  1.0000
  C   C429      1.0  0.34286  0.21926  0.25511  1.0000
  C   C430      1.0  0.36417  0.21792  0.20597  1.0000
  C   C431      1.0  0.36806  0.22278  0.26089  1.0000
  C   C432      1.0  0.35149  0.24291  0.22343  1.0000
  C   C433      1.0  0.35401  0.25472  0.23964  1.0000
  C   C434      1.0  0.34297  0.24792  0.19493  1.0000
  C   C435      1.0  0.34851  0.27052  0.22746  1.0000
  C   C436      1.0  0.33773  0.26371  0.18271  1.0000
  C   C437      1.0  0.34043  0.27499  0.19902  1.0000
  H   H512      1.0  0.33686  0.22484  0.27843  1.0000
  H   H513      1.0  0.33412  0.22082  0.23754  1.0000
  H   H514      1.0  0.37334  0.22388  0.18819  1.0000
  H   H515      1.0  0.35567  0.21711  0.18978  1.0000
  H   H516      1.0  0.36979  0.20564  0.21488  1.0000
  H   H517      1.0  0.36274  0.22675  0.28655  1.0000
  H   H518      1.0  0.37268  0.21004  0.26780  1.0000
  H   H519      1.0  0.37836  0.22830  0.24856  1.0000
  H   H520      1.0  0.36004  0.25202  0.26196  1.0000
  H   H521      1.0  0.34008  0.23970  0.18201  1.0000
  H   H522      1.0  0.35029  0.27941  0.24031  1.0000
  H   H523      1.0  0.33127  0.26719  0.16080  1.0000
  H   H524      1.0  0.33600  0.28722  0.18988  1.0000
  H   H525      1.0  0.31819  0.05511  0.28762  1.0000
  H   H526      1.0  0.27043  0.25076  0.02970  1.0000
  C   C438      1.0  0.48069  0.27547  0.42393  1.0000
  Fe  Fe63      1.0  0.44203  0.27770  0.32025  1.0000
  C   C439      1.0  0.30714  0.03868  0.22692  1.0000
  N   N28       1.0  0.31594  0.04788  0.23989  1.0000
  N   N29       1.0  0.39866  0.29019  0.23530  1.0000
  H   H527      1.0  0.37873  0.13782  0.12059  1.0000
  C   C440      1.0  0.30330  0.08008  0.47700  1.0000
  H   H528      1.0  0.41947  0.19112  0.26640  1.0000
  C   C441      1.0  0.25822  0.17495  0.45193  1.0000
  S   S126      1.0  0.45466  0.26871  0.27024  1.0000
  N   N30       1.0  0.39658  0.12706  0.08236  1.0000
  H   H529      1.0  0.32657  0.21925  0.05413  1.0000
  H   H530      1.0  0.35531  0.30998  0.39148  1.0000
  C   C442      1.0  0.31167  0.04782  0.27873  1.0000
  C   C443      1.0  0.38268  0.13899  0.09148  1.0000
  H   H531      1.0  0.37275  0.13796  0.07970  1.0000
  C   C444      1.0  0.31992  0.22433  0.03288  1.0000
  H   H532      1.0  0.42833  0.21299  0.28133  1.0000
  C   C445      1.0  0.39282  0.11156  0.09968  1.0000
  H   H533      1.0  0.23898  0.99032  0.08112  1.0000
  C   C446      1.0  0.27613  0.14790  0.48700  1.0000
  C   C447      1.0  0.25522  0.14074  0.31162  1.0000
  C   C448      1.0  0.30994  0.23882  0.03353  1.0000
  C   C449      1.0  0.39757  0.28070  0.40540  1.0000
  C   C450      1.0  0.38412  0.30812  0.35464  1.0000
  C   C451      1.0  0.30113  0.24579  0.00593  1.0000
  H   H534      1.0  0.27074  0.16797  0.31132  1.0000
  C   C452      1.0  0.37105  0.16655  0.01584  1.0000
  H   H535      1.0  0.24131  0.02607  0.25654  1.0000
  H   H536      1.0  0.28651  0.11795  0.47115  1.0000
  H   H537      1.0  0.40052  0.30588  0.18501  1.0000
  H   H538      1.0  0.30941  0.24430  0.05592  1.0000
  H   H539      1.0  0.24961  0.03082  0.30949  1.0000
  C   C453      1.0  0.39844  0.11826  0.02360  1.0000
  C   C454      1.0  0.25860  0.17337  0.48796  1.0000
  C   C455      1.0  0.24541  0.15467  0.30034  1.0000
  C   C456      1.0  0.38242  0.29005  0.41039  1.0000
  H   H540      1.0  0.30181  0.27082  0.03698  1.0000
  H   H541      1.0  0.48673  0.28558  0.41452  1.0000
  H   H542      1.0  0.40338  0.27452  0.28366  1.0000
  H   H543      1.0  0.39033  0.11036  0.12925  1.0000
  H   H544      1.0  0.37422  0.27916  0.28192  1.0000
  C   C457      1.0  0.37241  0.29171  0.27517  1.0000
  H   H545      1.0  0.30281  0.12795  0.46078  1.0000
  C   C458      1.0  0.32142  0.21638  0.00503  1.0000
  N   N31       1.0  0.29525  0.16344  0.25477  1.0000
  C   C459      1.0  0.31123  0.16522  0.23600  1.0000
  C   C460      1.0  0.29701  0.15098  0.28646  1.0000
  C   C461      1.0  0.28742  0.15818  0.23101  1.0000
  C   C462      1.0  0.28570  0.17829  0.26431  1.0000
  C   C463      1.0  0.28736  0.19288  0.24219  1.0000
  C   C464      1.0  0.27332  0.17851  0.29390  1.0000
  C   C465      1.0  0.27747  0.20673  0.24979  1.0000
  H   H546      1.0  0.28112  0.14105  0.43432  1.0000
  H   H547      1.0  0.28606  0.26135  0.06198  1.0000
  H   H548      1.0  0.31896  0.15383  0.23234  1.0000
  H   H549      1.0  0.31137  0.17205  0.20866  1.0000
  H   H550      1.0  0.31687  0.17106  0.25089  1.0000
  H   H551      1.0  0.30108  0.15510  0.30713  1.0000
  H   H552      1.0  0.30546  0.14037  0.27970  1.0000
  H   H553      1.0  0.28600  0.14667  0.29838  1.0000
  H   H554      1.0  0.28663  0.16666  0.20580  1.0000
  H   H555      1.0  0.29360  0.14662  0.22428  1.0000
  H   H556      1.0  0.27526  0.15696  0.24371  1.0000
  H   H557      1.0  0.29609  0.19383  0.21849  1.0000
  C   C466      1.0  0.29012  0.26862  0.03622  1.0000
  H   H558      1.0  0.24664  0.00925  0.02909  1.0000
  H   H559      1.0  0.40737  0.15170  0.03603  1.0000
  C   C467      1.0  0.24065  0.16098  0.35939  1.0000
  C   C468      1.0  0.44402  0.24075  0.48612  1.0000
  C   C469      1.0  0.37316  0.26676  0.44649  1.0000
  N   N32       1.0  0.29048  0.26113  0.00550  1.0000
  C   C470      1.0  0.38010  0.17795  0.01141  1.0000
  C   C471      1.0  0.28800  0.02169  0.23661  1.0000
  Fe  Fe64      1.0  0.43975  0.24995  0.28796  1.0000
  H   H560      1.0  0.29906  0.05262  0.28635  1.0000
  H   H561      1.0  0.36372  0.26124  0.46240  1.0000
  C   C472      1.0  0.40771  0.29964  0.20561  1.0000
  H   H562      1.0  0.38695  0.28159  0.20280  1.0000
  H   H563      1.0  0.43707  0.26792  0.41311  1.0000
  C   C473      1.0  0.29442  0.12269  0.48279  1.0000
  S   S127      1.0  0.45979  0.26340  0.35255  1.0000
  H   H564      1.0  0.39168  0.26782  0.24187  1.0000
  H   H565      1.0  0.31683  0.04507  0.17086  1.0000
  H   H566      1.0  0.31437  0.03593  0.29444  1.0000
  H   H567      1.0  0.41186  0.14131  0.09013  1.0000
  H   H568      1.0  0.28200  0.28009  0.03522  1.0000
  H   H569      1.0  0.47570  0.24822  0.46384  1.0000
  H   H570      1.0  0.44127  0.28493  0.45055  1.0000
  C   C474      1.0  0.40954  0.12926  0.09797  1.0000
  H   H571      1.0  0.34611  0.20648  0.26441  1.0000
  S   S128      1.0  0.42619  0.26033  0.33574  1.0000
  Fe  Fe65      1.0  0.44479  0.24550  0.36515  1.0000
  C   C475      1.0  0.44193  0.27264  0.46080  1.0000
  H   H572      1.0  0.25227  0.14393  0.39794  1.0000
  C   C476      1.0  0.25157  0.04429  0.22054  1.0000
  C   C477      1.0  0.31299  0.06436  0.22168  1.0000
  C   C478      1.0  0.26348  0.19242  0.30120  1.0000
  C   C479      1.0  0.41974  0.22994  0.23854  1.0000
  S   S129      1.0  0.43997  0.23455  0.42305  1.0000
  H   H573      1.0  0.41197  0.25798  0.41629  1.0000
  C   C480      1.0  0.40032  0.26492  0.42057  1.0000
  C   C481      1.0  0.38818  0.25797  0.44107  1.0000
  H   H574      1.0  0.42052  0.12114  0.08985  1.0000
  C   C482      1.0  0.40844  0.28355  0.26310  1.0000
  C   C483      1.0  0.35841  0.30017  0.29087  1.0000
  H   H575      1.0  0.40983  0.29269  0.27685  1.0000
  H   H576      1.0  0.39408  0.10777  0.03629  1.0000
  H   H577      1.0  0.26587  0.16443  0.40537  1.0000
  H   H578      1.0  0.25773  0.21724  0.28454  1.0000
  C   C484      1.0  0.24319  0.26064  0.26520  1.0000
  H   H579      1.0  0.37727  0.30172  0.34417  1.0000
  S   S130      1.0  0.24711  0.04054  0.18133  1.0000
  C   C485      1.0  0.24760  0.03538  0.25397  1.0000
  C   C486      1.0  0.25236  0.30312  0.99592  1.0000
  H   H580      1.0  0.40268  0.10199  0.09293  1.0000
  Fe  Fe66      1.0  0.29557  0.30438  0.18378  1.0000
  N   N33       1.0  0.37981  0.30672  0.39380  1.0000
  H   H581      1.0  0.32925  0.20520  0.00458  1.0000
  C   C487      1.0  0.24357  0.30067  0.03019  1.0000
  H   H582      1.0  0.25044  0.24435  0.31052  1.0000
  H   H583      1.0  0.35832  0.28867  0.43665  1.0000
  C   C488      1.0  0.26643  0.16317  0.43331  1.0000
  C   C489      1.0  0.27436  0.25925  0.00602  1.0000
  H   H584      1.0  0.40746  0.28548  0.38956  1.0000
  C   C490      1.0  0.24748  0.30545  0.05863  1.0000
  C   C491      1.0  0.26006  0.31305  0.05308  1.0000
  S   S131      1.0  0.29783  0.30286  0.12627  1.0000
  H   H585      1.0  0.25147  0.18528  0.43827  1.0000
  H   H586      1.0  0.26590  0.27047  0.00679  1.0000
  H   H587      1.0  0.40232  0.31024  0.39935  1.0000
  H   H588      1.0  0.25395  0.19221  0.32364  1.0000
  H   H589      1.0  0.43122  0.30903  0.26073  1.0000
  H   H590      1.0  0.47568  0.24724  0.41905  1.0000
  S   S132      1.0  0.44949  0.27897  0.51923  1.0000
  H   H591      1.0  0.30777  0.27295  0.97014  1.0000
  C   C492      1.0  0.25548  0.06531  0.63256  1.0000
  H   H592      1.0  0.41248  0.15602  0.97154  1.0000
  Fe  Fe67      1.0  0.27284  0.09165  0.69000  1.0000
  S   S133      1.0  0.29797  0.07958  0.68480  1.0000
  S   S134      1.0  0.25057  0.08257  0.71699  1.0000
  Fe  Fe68      1.0  0.28157  0.12111  0.64043  1.0000
  S   S135      1.0  0.30712  0.11133  0.63206  1.0000
  S   S136      1.0  0.27294  0.14500  0.61188  1.0000
  Fe  Fe69      1.0  0.29932  0.08983  0.62613  1.0000
  S   S137      1.0  0.30966  0.07727  0.57895  1.0000
  Fe  Fe70      1.0  0.30321  0.10249  0.69116  1.0000
  S   S138      1.0  0.31479  0.10578  0.73548  1.0000
  S   S139      1.0  0.27403  0.10043  0.63134  1.0000
  S   S140      1.0  0.27788  0.11374  0.69955  1.0000
  Fe  Fe71      1.0  0.36895  0.16877  0.86234  1.0000
  S   S141      1.0  0.36034  0.19455  0.84975  1.0000
  S   S142      1.0  0.37671  0.15718  0.91556  1.0000
  Fe  Fe72      1.0  0.36044  0.16271  0.79416  1.0000
  S   S143      1.0  0.35104  0.18811  0.77842  1.0000
  S   S144      1.0  0.36045  0.14902  0.75074  1.0000
  Fe  Fe73      1.0  0.37209  0.19288  0.79355  1.0000
  S   S145      1.0  0.38014  0.21411  0.75704  1.0000
  Fe  Fe74      1.0  0.34024  0.18762  0.83541  1.0000
  S   S146      1.0  0.31534  0.19957  0.84720  1.0000
  S   S147      1.0  0.38251  0.16737  0.80651  1.0000
  S   S148      1.0  0.34793  0.16189  0.85067  1.0000
  H   H593      1.0  0.35778  0.28589  0.80144  1.0000
  Fe  Fe75      1.0  0.25904  0.29516  0.90546  1.0000
  S   S149      1.0  0.28101  0.30413  0.88047  1.0000
  C   C493      1.0  0.44537  0.26645  0.49488  1.0000
  Fe  Fe76      1.0  0.26038  0.27778  0.84324  1.0000
  S   S150      1.0  0.28262  0.28572  0.81398  1.0000
  H   H594      1.0  0.26980  0.14642  0.71596  1.0000
  Fe  Fe77      1.0  0.28993  0.28022  0.86730  1.0000
  S   S151      1.0  0.31309  0.26611  0.87757  1.0000
  Fe  Fe78      1.0  0.45393  0.27015  0.57535  1.0000
  H   H595      1.0  0.28748  0.19823  0.81508  1.0000
  S   S152      1.0  0.26871  0.27080  0.89600  1.0000
  H   H596      1.0  0.36313  0.15137  0.99011  1.0000
  Fe  Fe79      1.0  0.44586  0.28035  0.64693  1.0000
  S   S153      1.0  0.43510  0.26587  0.62228  1.0000
  S   S154      1.0  0.42845  0.29615  0.68064  1.0000
  C   C494      1.0  0.40146  0.17632  0.68754  1.0000
  C   C495      1.0  0.29764  0.15185  0.71582  1.0000
  H   H597      1.0  0.39985  0.30470  0.52378  1.0000
  H   H598      1.0  0.43234  0.31215  0.55912  1.0000
  H   H599      1.0  0.27531  0.13895  0.79365  1.0000
  H   H600      1.0  0.26689  0.12125  0.52438  1.0000
  H   H601      1.0  0.29768  0.14228  0.70163  1.0000
  H   H602      1.0  0.26025  0.17693  0.62022  1.0000
  C   C496      1.0  0.28500  0.13827  0.77056  1.0000
  Fe  Fe80      1.0  0.45283  0.24597  0.64353  1.0000
  Fe  Fe81      1.0  0.27151  0.30896  0.82958  1.0000
  S   S155      1.0  0.44767  0.22232  0.67278  1.0000
  C   C497      1.0  0.25866  0.00858  0.94913  1.0000
  S   S156      1.0  0.47092  0.24900  0.59403  1.0000
  H   H603      1.0  0.39224  0.14793  0.70121  1.0000
  H   H604      1.0  0.24392  0.03816  0.62876  1.0000
  C   C498      1.0  0.23926  0.24213  0.79157  1.0000
  H   H605      1.0  0.42682  0.14191  0.67995  1.0000
  H   H606      1.0  0.39227  0.15293  0.74338  1.0000
  H   H607      1.0  0.44877  0.24564  0.53421  1.0000
  C   C499      1.0  0.39896  0.21549  0.73273  1.0000
  C   C500      1.0  0.41214  0.20435  0.74000  1.0000
  C   C501      1.0  0.42700  0.20645  0.72100  1.0000
  C   C502      1.0  0.42878  0.21974  0.69493  1.0000
  C   C503      1.0  0.41555  0.23070  0.68725  1.0000
  C   C504      1.0  0.40071  0.22858  0.70614  1.0000
  H   H608      1.0  0.41091  0.19434  0.76073  1.0000
  H   H609      1.0  0.43720  0.19792  0.72707  1.0000
  H   H610      1.0  0.39053  0.23715  0.70020  1.0000
  C   C505      1.0  0.31345  0.21713  0.86197  1.0000
  C   C506      1.0  0.32475  0.21970  0.87879  1.0000
  C   C507      1.0  0.32439  0.23468  0.88499  1.0000
  C   C508      1.0  0.31263  0.24700  0.87451  1.0000
  C   C509      1.0  0.30088  0.24417  0.85957  1.0000
  C   C510      1.0  0.30119  0.22924  0.85365  1.0000
  H   H611      1.0  0.33379  0.21019  0.88695  1.0000
  H   H612      1.0  0.33336  0.23673  0.89718  1.0000
  H   H613      1.0  0.29183  0.25357  0.85100  1.0000
  H   H614      1.0  0.29231  0.22730  0.84097  1.0000
  C   C511      1.0  0.25771  0.15322  0.64213  1.0000
  C   C512      1.0  0.24980  0.14341  0.66905  1.0000
  C   C513      1.0  0.25421  0.16931  0.64124  1.0000
  C   C514      1.0  0.29539  0.27194  0.97263  1.0000
  C   C515      1.0  0.25948  0.03877  0.66434  1.0000
  C   C516      1.0  0.31000  0.07734  0.50797  1.0000
  H   H615      1.0  0.25197  0.13105  0.66892  1.0000
  H   H616      1.0  0.26864  0.16689  0.71007  1.0000
  H   H617      1.0  0.28809  0.28380  0.97204  1.0000
  H   H618      1.0  0.34056  0.30141  0.73733  1.0000
  C   C517      1.0  0.32695  0.11858  0.73863  1.0000
  C   C518      1.0  0.33573  0.12623  0.70879  1.0000
  C   C519      1.0  0.34568  0.13571  0.71297  1.0000
  C   C520      1.0  0.34670  0.13803  0.74686  1.0000
  C   C521      1.0  0.33756  0.13075  0.77658  1.0000
  C   C522      1.0  0.32797  0.12092  0.77248  1.0000
  H   H619      1.0  0.33521  0.12448  0.68260  1.0000
  H   H620      1.0  0.35278  0.14115  0.68976  1.0000
  H   H621      1.0  0.33833  0.13220  0.80286  1.0000
  H   H622      1.0  0.32139  0.11494  0.79582  1.0000
  H   H623      1.0  0.30467  0.14581  0.50066  1.0000
  H   H624      1.0  0.24084  0.14624  0.58818  1.0000
  C   C523      1.0  0.31289  0.22283  0.97773  1.0000
  H   H625      1.0  0.29739  0.16285  0.69607  1.0000
  H   H626      1.0  0.39542  0.23611  0.79598  1.0000
  H   H627      1.0  0.28430  0.12855  0.75763  1.0000
  C   C524      1.0  0.24742  0.03356  0.65433  1.0000
  C   C525      1.0  0.37608  0.16689  0.95142  1.0000
  C   C526      1.0  0.38428  0.17898  0.94687  1.0000
  H   H628      1.0  0.26432  0.20062  0.78758  1.0000
  H   H629      1.0  0.38974  0.18362  0.92051  1.0000
  H   H630      1.0  0.30769  0.15521  0.77893  1.0000
  C   C527      1.0  0.30083  0.08043  0.54059  1.0000
  C   C528      1.0  0.28480  0.08580  0.54209  1.0000
  C   C529      1.0  0.29886  0.17653  0.79815  1.0000
  H   H631      1.0  0.27752  0.08798  0.56690  1.0000
  C   C530      1.0  0.24463  0.03729  0.79645  1.0000
  C   C531      1.0  0.25928  0.04176  0.78666  1.0000
  C   C532      1.0  0.26134  0.05557  0.76236  1.0000
  C   C533      1.0  0.24873  0.06506  0.74767  1.0000
  C   C534      1.0  0.26327  0.03200  0.69854  1.0000
  N   N34       1.0  0.24154  0.01213  0.96051  1.0000
  H   H632      1.0  0.27265  0.05891  0.75519  1.0000
  C   C535      1.0  0.40638  0.13465  0.96776  1.0000
  H   H633      1.0  0.41678  0.24082  0.66682  1.0000
  H   H634      1.0  0.26834  0.13339  0.55405  1.0000
  C   C536      1.0  0.41940  0.16222  0.72685  1.0000
  C   C537      1.0  0.27374  0.19063  0.78537  1.0000
  H   H635      1.0  0.26258  0.01698  0.92518  1.0000
  H   H636      1.0  0.36950  0.23624  0.82994  1.0000
  C   C538      1.0  0.27524  0.12581  0.53500  1.0000
  H   H637      1.0  0.26627  0.04367  0.59126  1.0000
  H   H638      1.0  0.24740  0.23205  0.80158  1.0000
  C   C539      1.0  0.23953  0.25682  0.79880  1.0000
  H   H639      1.0  0.29669  0.24187  0.95597  1.0000
  H   H640      1.0  0.42004  0.29688  0.51077  1.0000
  H   H641      1.0  0.44500  0.22836  0.49579  1.0000
  H   H642      1.0  0.26910  0.03448  0.79783  1.0000
  C   C540      1.0  0.23928  0.14951  0.69676  1.0000
  H   H643      1.0  0.28327  0.03443  0.61074  1.0000
  S   S157      1.0  0.25306  0.25814  0.82510  1.0000
  C   C541      1.0  0.28676  0.18934  0.80082  1.0000
  H   H644      1.0  0.28517  0.06429  0.63550  1.0000
  H   H645      1.0  0.24671  0.06363  0.61816  1.0000
  H   H646      1.0  0.40784  0.13719  0.93900  1.0000
  H   H647      1.0  0.42812  0.16979  0.71471  1.0000
  S   S158      1.0  0.46261  0.26013  0.67136  1.0000
  H   H648      1.0  0.25915  0.15653  0.75085  1.0000
  H   H649      1.0  0.37767  0.17252  0.71088  1.0000
  H   H650      1.0  0.27214  0.03525  0.70879  1.0000
  H   H651      1.0  0.28314  0.30718  0.72610  1.0000
  H   H652      1.0  0.26093  0.07503  0.61586  1.0000
  S   S159      1.0  0.46332  0.28644  0.59813  1.0000
  N   N35       1.0  0.33328  0.24156  0.75787  1.0000
  C   C542      1.0  0.34153  0.23299  0.72859  1.0000
  C   C543      1.0  0.33948  0.23324  0.79041  1.0000
  C   C544      1.0  0.31652  0.24075  0.76300  1.0000
  C   C545      1.0  0.33526  0.25800  0.75130  1.0000
  C   C546      1.0  0.32705  0.26803  0.77559  1.0000
  C   C547      1.0  0.34575  0.26435  0.72198  1.0000
  C   C548      1.0  0.32890  0.28349  0.77043  1.0000
  C   C549      1.0  0.34755  0.27986  0.71710  1.0000
  C   C550      1.0  0.33909  0.28942  0.74116  1.0000
  H   H653      1.0  0.35438  0.23195  0.72497  1.0000
  H   H654      1.0  0.33949  0.22079  0.73437  1.0000
  H   H655      1.0  0.33748  0.23868  0.70311  1.0000
  H   H656      1.0  0.35216  0.23311  0.78730  1.0000
  H   H657      1.0  0.33781  0.22092  0.79732  1.0000
  H   H658      1.0  0.33367  0.23879  0.81369  1.0000
  H   H659      1.0  0.31131  0.24704  0.73927  1.0000
  H   H660      1.0  0.31471  0.22846  0.76837  1.0000
  H   H661      1.0  0.30947  0.24585  0.78609  1.0000
  H   H662      1.0  0.31927  0.26393  0.79924  1.0000
  H   H663      1.0  0.35280  0.25754  0.70263  1.0000
  H   H664      1.0  0.32248  0.29080  0.78959  1.0000
  H   H665      1.0  0.35562  0.28447  0.69462  1.0000
  H   H666      1.0  0.24906  0.06930  0.65770  1.0000
  C   C551      1.0  0.39988  0.14935  0.71895  1.0000
  N   N36       1.0  0.26726  0.05096  0.64000  1.0000
  H   H667      1.0  0.43021  0.16076  0.65860  1.0000
  H   H668      1.0  0.41431  0.15372  0.65000  1.0000
  H   H669      1.0  0.30901  0.14910  0.72511  1.0000
  S   S160      1.0  0.24850  0.30162  0.85525  1.0000
  H   H670      1.0  0.40663  0.13758  0.72772  1.0000
  H   H671      1.0  0.25207  0.18250  0.50257  1.0000
  H   H672      1.0  0.30895  0.17557  0.81038  1.0000
  H   H673      1.0  0.29611  0.13464  0.78103  1.0000
  H   H674      1.0  0.42586  0.15071  0.73832  1.0000
  N   N37       1.0  0.28423  0.15329  0.74542  1.0000
  C   C552      1.0  0.25529  0.02091  0.72123  1.0000
  S   S161      1.0  0.24567  0.29847  0.96055  1.0000
  C   C553      1.0  0.42082  0.15403  0.67108  1.0000
  C   C554      1.0  0.28488  0.16583  0.76408  1.0000
  H   H675      1.0  0.30136  0.11242  0.49787  1.0000
  C   C555      1.0  0.27271  0.17908  0.76727  1.0000
  C   C556      1.0  0.29707  0.13898  0.52146  1.0000
  H   H676      1.0  0.26250  0.99668  0.94234  1.0000
  H   H677      1.0  0.41171  0.16750  0.74928  1.0000
  H   H678      1.0  0.41258  0.29750  0.55627  1.0000
  H   H679      1.0  0.28138  0.05422  0.58774  1.0000
  H   H680      1.0  0.27236  0.31188  0.96429  1.0000
  C   C557      1.0  0.44615  0.25051  0.50786  1.0000
  N   N38       1.0  0.41012  0.16072  0.70095  1.0000
  H   H681      1.0  0.26223  0.18080  0.75618  1.0000
  H   H682      1.0  0.29142  0.14628  0.54206  1.0000
  C   C558      1.0  0.27947  0.05521  0.65455  1.0000
  C   C559      1.0  0.27809  0.08840  0.51135  1.0000
  H   H683      1.0  0.48421  0.26101  0.49719  1.0000
  C   C560      1.0  0.26982  0.15597  0.73005  1.0000
  H   H684      1.0  0.32241  0.07302  0.50648  1.0000
  H   H685      1.0  0.27447  0.06007  0.67937  1.0000
  C   C561      1.0  0.40965  0.18807  0.66713  1.0000
  C   C562      1.0  0.38493  0.18049  0.69495  1.0000
  C   C563      1.0  0.40177  0.20287  0.65412  1.0000
  C   C564      1.0  0.37718  0.19540  0.68214  1.0000
  C   C565      1.0  0.38557  0.20654  0.66168  1.0000
  H   H686      1.0  0.42224  0.18604  0.66163  1.0000
  H   H687      1.0  0.40833  0.21167  0.63898  1.0000
  H   H688      1.0  0.36459  0.19832  0.68863  1.0000
  H   H689      1.0  0.37954  0.21814  0.65227  1.0000
  N   N39       1.0  0.40838  0.26215  0.75735  1.0000
  C   C566      1.0  0.41943  0.24700  0.76184  1.0000
  C   C567      1.0  0.40713  0.26687  0.71923  1.0000
  C   C568      1.0  0.41539  0.27374  0.76763  1.0000
  C   C569      1.0  0.39260  0.26154  0.77851  1.0000
  C   C570      1.0  0.38783  0.24735  0.79659  1.0000
  C   C571      1.0  0.38119  0.27540  0.78022  1.0000
  C   C572      1.0  0.37280  0.24721  0.81614  1.0000
  C   C573      1.0  0.36621  0.27513  0.80000  1.0000
  C   C574      1.0  0.36203  0.26107  0.81802  1.0000
  H   H690      1.0  0.41563  0.23788  0.75232  1.0000
  H   H691      1.0  0.43127  0.24783  0.74606  1.0000
  H   H692      1.0  0.42078  0.24279  0.79012  1.0000
  H   H693      1.0  0.40068  0.25936  0.71109  1.0000
  H   H694      1.0  0.41883  0.26609  0.70197  1.0000
  H   H695      1.0  0.40097  0.27914  0.71290  1.0000
  H   H696      1.0  0.40918  0.28591  0.76050  1.0000
  H   H697      1.0  0.41551  0.27132  0.79668  1.0000
  H   H698      1.0  0.42760  0.27374  0.75339  1.0000
  H   H699      1.0  0.38377  0.28656  0.76617  1.0000
  C   C575      1.0  0.41175  0.30411  0.52894  1.0000
  H   H700      1.0  0.35041  0.26091  0.83344  1.0000
  S   S162      1.0  0.24266  0.01954  0.82612  1.0000
  C   C576      1.0  0.26545  0.31003  0.99053  1.0000
  H   H701      1.0  0.26740  0.15942  0.53329  1.0000
  C   C577      1.0  0.38639  0.18434  0.97663  1.0000
  C   C578      1.0  0.29799  0.16494  0.78009  1.0000
  C   C579      1.0  0.27481  0.04556  0.60603  1.0000
  H   H702      1.0  0.28209  0.11584  0.55098  1.0000
  H   H703      1.0  0.28897  0.04506  0.66004  1.0000
  Fe  Fe82      1.0  0.47937  0.26497  0.62013  1.0000
  H   H704      1.0  0.39333  0.19322  0.97272  1.0000
  H   H705      1.0  0.44026  0.31188  0.51358  1.0000
  H   H706      1.0  0.26569  0.09269  0.51288  1.0000
  C   C580      1.0  0.36938  0.16080  0.98614  1.0000
  H   H707      1.0  0.30472  0.12879  0.53496  1.0000
  C   C581      1.0  0.24329  0.17549  0.66856  1.0000
  H   H708      1.0  0.24092  0.18788  0.66858  1.0000
  C   C582      1.0  0.42059  0.31453  0.65799  1.0000
  H   H709      1.0  0.39883  0.11316  0.97187  1.0000
  N   N40       1.0  0.28558  0.13407  0.50592  1.0000
  H   H710      1.0  0.31406  0.21659  0.95611  1.0000
  H   H711      1.0  0.29434  0.26805  0.94825  1.0000
  H   H712      1.0  0.23863  0.03724  0.94529  1.0000
  C   C583      1.0  0.40118  0.12116  0.98642  1.0000
  H   H713      1.0  0.30999  0.31057  0.72353  1.0000
  H   H714      1.0  0.25817  0.01608  0.74747  1.0000
  C   C584      1.0  0.24332  0.01629  0.71084  1.0000
  C   C585      1.0  0.40900  0.14525  0.98613  1.0000
  C   C586      1.0  0.26742  0.16007  0.50531  1.0000
  H   H715      1.0  0.23845  0.00139  0.91858  1.0000
  C   C587      1.0  0.30293  0.23732  0.97800  1.0000
  H   H716      1.0  0.27326  0.25509  0.98202  1.0000
  H   H717      1.0  0.26498  0.00906  0.97037  1.0000
  H   H718      1.0  0.24411  0.03001  0.98759  1.0000
  C   C588      1.0  0.23945  0.02254  0.67737  1.0000
  H   H719      1.0  0.25197  0.36373  0.15361  1.0000
  Fe  Fe83      1.0  0.30515  0.62331  0.12723  1.0000
  S   S163      1.0  0.29060  0.61478  0.17864  1.0000
  C   C589      1.0  0.41327  0.32921  0.32723  1.0000
  Fe  Fe84      1.0  0.29758  0.60180  0.08653  1.0000
  S   S164      1.0  0.28202  0.59113  0.13444  1.0000
  S   S165      1.0  0.30647  0.59565  0.03145  1.0000
  Fe  Fe85      1.0  0.27305  0.61568  0.14474  1.0000
  Fe  Fe86      1.0  0.30073  0.59092  0.16537  1.0000
  S   S166      1.0  0.30537  0.57083  0.21073  1.0000
  S   S167      1.0  0.28685  0.62628  0.09412  1.0000
  S   S168      1.0  0.31706  0.59954  0.11675  1.0000
  H   H720      1.0  0.40396  0.53690  0.46248  1.0000
  Fe  Fe87      1.0  0.46644  0.59387  0.42139  1.0000
  H   H721      1.0  0.27070  0.37988  0.11507  1.0000
  Fe  Fe88      1.0  0.45636  0.62111  0.36528  1.0000
  S   S169      1.0  0.47089  0.60951  0.32083  1.0000
  H   H722      1.0  0.40198  0.56470  0.29012  1.0000
  Fe  Fe89      1.0  0.46162  0.58816  0.35109  1.0000
  S   S170      1.0  0.45133  0.57528  0.32049  1.0000
  S   S171      1.0  0.44589  0.60036  0.39334  1.0000
  S   S172      1.0  0.47560  0.61581  0.39730  1.0000
  Fe  Fe90      1.0  0.35775  0.36588  0.36615  1.0000
  S   S173      1.0  0.37336  0.38103  0.32908  1.0000
  S   S174      1.0  0.36420  0.35427  0.41984  1.0000
  Fe  Fe91      1.0  0.33694  0.36818  0.31107  1.0000
  S   S175      1.0  0.35052  0.38418  0.27015  1.0000
  S   S176      1.0  0.31606  0.35875  0.30490  1.0000
  Fe  Fe92      1.0  0.37156  0.36770  0.28795  1.0000
  S   S177      1.0  0.39137  0.35673  0.24967  1.0000
  Fe  Fe93      1.0  0.35116  0.39634  0.31485  1.0000
  S   S178      1.0  0.34553  0.42273  0.31315  1.0000
  S   S179      1.0  0.35800  0.35115  0.32626  1.0000
  S   S180      1.0  0.33550  0.38180  0.35461  1.0000
  Fe  Fe94      1.0  0.37195  0.52522  0.31801  1.0000
  S   S181      1.0  0.39584  0.51009  0.31796  1.0000
  S   S182      1.0  0.36940  0.54256  0.26692  1.0000
  Fe  Fe95      1.0  0.36092  0.51106  0.39451  1.0000
  S   S183      1.0  0.38372  0.49512  0.39977  1.0000
  S   S184      1.0  0.34143  0.50979  0.44108  1.0000
  Fe  Fe96      1.0  0.39415  0.51612  0.37174  1.0000
  S   S185      1.0  0.41129  0.52329  0.39776  1.0000
  Fe  Fe97      1.0  0.38289  0.49068  0.34580  1.0000
  S   S186      1.0  0.38991  0.46608  0.33282  1.0000
  S   S187      1.0  0.37112  0.53239  0.37013  1.0000
  S   S188      1.0  0.35923  0.50541  0.34238  1.0000
  C   C590      1.0  0.32846  0.62896  0.17920  1.0000
  H   H723      1.0  0.30365  0.63191  0.30789  1.0000
  C   C591      1.0  0.40413  0.34206  0.27249  1.0000
  C   C592      1.0  0.30192  0.33063  0.25333  1.0000
  C   C593      1.0  0.34005  0.37332  0.45581  1.0000
  C   C594      1.0  0.35406  0.36261  0.45707  1.0000
  H   H724      1.0  0.27521  0.36505  0.08774  1.0000
  H   H725      1.0  0.38356  0.41392  0.43107  1.0000
  N   N41       1.0  0.41006  0.61459  0.28947  1.0000
  H   H726      1.0  0.33500  0.37635  0.43191  1.0000
  C   C595      1.0  0.27002  0.36405  0.20448  1.0000
  H   H727      1.0  0.32166  0.46054  0.45210  1.0000
  C   C596      1.0  0.35802  0.43451  0.31915  1.0000
  C   C597      1.0  0.37400  0.42898  0.31854  1.0000
  C   C598      1.0  0.38356  0.43881  0.32269  1.0000
  C   C599      1.0  0.37727  0.45423  0.32780  1.0000
  C   C600      1.0  0.36127  0.45972  0.32872  1.0000
  C   C601      1.0  0.35173  0.44992  0.32432  1.0000
  H   H728      1.0  0.37903  0.41720  0.31428  1.0000
  H   H729      1.0  0.39593  0.43446  0.32173  1.0000
  H   H730      1.0  0.35623  0.47152  0.33271  1.0000
  H   H731      1.0  0.33940  0.45433  0.32477  1.0000
  C   C602      1.0  0.44030  0.56082  0.34241  1.0000
  C   C603      1.0  0.43769  0.55666  0.37940  1.0000
  C   C604      1.0  0.42884  0.54511  0.39595  1.0000
  C   C605      1.0  0.42229  0.53782  0.37580  1.0000
  C   C606      1.0  0.42467  0.54219  0.33887  1.0000
  C   C607      1.0  0.43382  0.55350  0.32225  1.0000
  H   H732      1.0  0.44261  0.56223  0.39518  1.0000
  H   H733      1.0  0.42699  0.54193  0.42451  1.0000
  H   H734      1.0  0.41976  0.53662  0.32305  1.0000
  H   H735      1.0  0.43590  0.55656  0.29358  1.0000
  H   H736      1.0  0.37808  0.55308  0.41672  1.0000
  C   C608      1.0  0.41444  0.33068  0.25493  1.0000
  H   H737      1.0  0.31140  0.37260  0.19620  1.0000
  S   S189      1.0  0.35293  0.64064  0.24213  1.0000
  H   H738      1.0  0.43077  0.32381  0.40137  1.0000
  H   H739      1.0  0.41311  0.32891  0.35493  1.0000
  C   C609      1.0  0.32319  0.56392  0.22675  1.0000
  C   C610      1.0  0.33713  0.56823  0.20777  1.0000
  C   C611      1.0  0.35119  0.56174  0.22066  1.0000
  C   C612      1.0  0.35137  0.55108  0.25278  1.0000
  C   C613      1.0  0.33737  0.54711  0.27219  1.0000
  C   C614      1.0  0.32338  0.55338  0.25900  1.0000
  H   H740      1.0  0.33710  0.57630  0.18287  1.0000
  H   H741      1.0  0.36198  0.56490  0.20553  1.0000
  H   H742      1.0  0.33731  0.53912  0.29721  1.0000
  H   H743      1.0  0.31261  0.55007  0.27388  1.0000
  C   C615      1.0  0.34377  0.64064  0.20681  1.0000
  C   C616      1.0  0.43301  0.50626  0.46521  1.0000
  S   S190      1.0  0.24783  0.62589  0.16355  1.0000
  C   C617      1.0  0.28805  0.34206  0.13573  1.0000
  N   N42       1.0  0.38495  0.55647  0.46387  1.0000
  H   H744      1.0  0.27375  0.60821  0.02490  1.0000
  C   C618      1.0  0.40217  0.63121  0.28417  1.0000
  H   H745      1.0  0.33783  0.35016  0.24171  1.0000
  H   H746      1.0  0.40917  0.63883  0.29007  1.0000
  C   C619      1.0  0.41357  0.61046  0.32616  1.0000
  H   H747      1.0  0.47236  0.64234  0.31850  1.0000
  H   H748      1.0  0.36200  0.32750  0.38947  1.0000
  H   H749      1.0  0.32299  0.61938  0.17898  1.0000
  C   C620      1.0  0.37548  0.64442  0.02626  1.0000
  H   H750      1.0  0.30480  0.36374  0.14745  1.0000
  C   C621      1.0  0.42328  0.32902  0.42320  1.0000
  C   C622      1.0  0.27408  0.36920  0.23202  1.0000
  H   H751      1.0  0.30431  0.62559  0.26675  1.0000
  C   C623      1.0  0.37403  0.62860  0.13855  1.0000
  C   C624      1.0  0.31581  0.34679  0.27412  1.0000
  C   C625      1.0  0.30285  0.33970  0.27799  1.0000
  H   H752      1.0  0.32156  0.38831  0.48460  1.0000
  C   C626      1.0  0.36806  0.61495  0.15048  1.0000
  C   C627      1.0  0.35046  0.63800  0.03064  1.0000
  C   C628      1.0  0.26102  0.35316  0.14970  1.0000
  H   H753      1.0  0.37087  0.34995  0.48993  1.0000
  N   N43       1.0  0.36317  0.49883  0.23619  1.0000
  C   C629      1.0  0.37729  0.49865  0.25072  1.0000
  C   C630      1.0  0.36398  0.50941  0.20133  1.0000
  C   C631      1.0  0.34940  0.50544  0.26077  1.0000
  C   C632      1.0  0.36161  0.48322  0.23198  1.0000
  C   C633      1.0  0.34811  0.48125  0.22110  1.0000
  C   C634      1.0  0.37306  0.46959  0.23918  1.0000
  C   C635      1.0  0.34589  0.46651  0.21909  1.0000
  C   C636      1.0  0.37079  0.45494  0.23664  1.0000
  C   C637      1.0  0.35714  0.45336  0.22720  1.0000
  H   H754      1.0  0.38819  0.49460  0.23268  1.0000
  H   H755      1.0  0.37800  0.51048  0.25425  1.0000
  H   H756      1.0  0.37733  0.49102  0.27725  1.0000
  H   H757      1.0  0.35328  0.51107  0.18970  1.0000
  H   H758      1.0  0.37406  0.50479  0.18187  1.0000
  H   H759      1.0  0.36525  0.52125  0.20373  1.0000
  H   H760      1.0  0.34730  0.49704  0.28594  1.0000
  H   H761      1.0  0.35094  0.51638  0.26762  1.0000
  H   H762      1.0  0.33854  0.50860  0.24922  1.0000
  H   H763      1.0  0.33901  0.49110  0.21474  1.0000
  H   H764      1.0  0.38369  0.46979  0.24790  1.0000
  H   H765      1.0  0.33527  0.46521  0.21178  1.0000
  H   H766      1.0  0.37944  0.44463  0.24327  1.0000
  H   H767      1.0  0.35521  0.44187  0.22672  1.0000
  H   H768      1.0  0.43229  0.60131  0.26851  1.0000
  C   C638      1.0  0.35672  0.40789  0.47078  1.0000
  C   C639      1.0  0.36026  0.35849  0.48857  1.0000
  C   C640      1.0  0.32791  0.34461  0.24536  1.0000
  H   H769      1.0  0.34952  0.61579  0.08335  1.0000
  H   H770      1.0  0.37848  0.39794  0.41831  1.0000
  C   C641      1.0  0.37753  0.59872  0.26730  1.0000
  C   C642      1.0  0.42500  0.61319  0.26410  1.0000
  H   H771      1.0  0.38098  0.62141  0.26618  1.0000
  H   H772      1.0  0.35316  0.39797  0.41132  1.0000
  H   H773      1.0  0.40433  0.57733  0.42399  1.0000
  H   H774      1.0  0.38199  0.63257  0.02249  1.0000
  C   C643      1.0  0.34424  0.46564  0.42790  1.0000
  C   C644      1.0  0.42269  0.31718  0.31050  1.0000
  H   H775      1.0  0.34873  0.64584  0.00495  1.0000
  C   C645      1.0  0.40618  0.58754  0.29011  1.0000
  C   C646      1.0  0.29645  0.60102  0.99498  1.0000
  H   H776      1.0  0.40040  0.63568  0.25616  1.0000
  C   C647      1.0  0.33858  0.43958  0.44479  1.0000
  H   H777      1.0  0.39536  0.36066  0.43828  1.0000
  C   C648      1.0  0.36837  0.55967  0.48121  1.0000
  C   C649      1.0  0.32768  0.64193  0.15184  1.0000
  H   H778      1.0  0.41733  0.58271  0.29833  1.0000
  H   H779      1.0  0.25868  0.34873  0.12713  1.0000
  C   C650      1.0  0.29584  0.36536  0.17038  1.0000
  C   C651      1.0  0.40346  0.34980  0.44401  1.0000
  C   C652      1.0  0.42403  0.32165  0.45830  1.0000
  H   H780      1.0  0.45199  0.63912  0.28775  1.0000
  H   H781      1.0  0.39714  0.55698  0.40985  1.0000
  H   H782      1.0  0.38042  0.57252  0.41582  1.0000
  H   H783      1.0  0.34913  0.41727  0.38655  1.0000
  H   H784      1.0  0.36977  0.60801  0.17618  1.0000
  C   C653      1.0  0.33371  0.45570  0.44267  1.0000
  H   H785      1.0  0.41525  0.33167  0.22662  1.0000
  H   H786      1.0  0.28513  0.33718  0.11456  1.0000
  H   H787      1.0  0.42002  0.61880  0.33152  1.0000
  H   H788      1.0  0.29213  0.37604  0.25057  1.0000
  H   H789      1.0  0.37768  0.41607  0.38845  1.0000
  C   C654      1.0  0.38082  0.31589  0.24598  1.0000
  H   H790      1.0  0.39603  0.35031  0.32218  1.0000
  C   C655      1.0  0.44578  0.51199  0.44390  1.0000
  C   C656      1.0  0.35859  0.51553  0.48611  1.0000
  H   H791      1.0  0.36337  0.41214  0.48658  1.0000
  C   C657      1.0  0.36262  0.63373  0.08429  1.0000
  H   H792      1.0  0.33864  0.63745  0.04670  1.0000
  H   H793      1.0  0.38549  0.53233  0.46280  1.0000
  C   C658      1.0  0.41178  0.58412  0.46520  1.0000
  H   H794      1.0  0.36777  0.46726  0.40288  1.0000
  S   S191      1.0  0.31357  0.31738  0.19220  1.0000
  C   C659      1.0  0.29974  0.37052  0.19805  1.0000
  C   C660      1.0  0.37539  0.41081  0.41707  1.0000
  H   H795      1.0  0.46235  0.52631  0.43722  1.0000
  H   H796      1.0  0.46546  0.54862  0.45203  1.0000
  H   H797      1.0  0.33714  0.61830  0.22792  1.0000
  H   H798      1.0  0.35709  0.48203  0.48185  1.0000
  C   C661      1.0  0.35942  0.61053  0.12993  1.0000
  H   H799      1.0  0.29338  0.34137  0.30000  1.0000
  H   H800      1.0  0.36111  0.55322  0.47198  1.0000
  C   C662      1.0  0.35968  0.45948  0.41522  1.0000
  N   N44       1.0  0.35886  0.41585  0.43318  1.0000
  C   C663      1.0  0.36465  0.44340  0.41691  1.0000
  H   H801      1.0  0.44996  0.50898  0.41763  1.0000
  S   S192      1.0  0.44045  0.64457  0.36019  1.0000
  H   H802      1.0  0.25843  0.36158  0.20904  1.0000
  S   S193      1.0  0.46357  0.58339  0.47950  1.0000
  H   H803      1.0  0.41872  0.59186  0.44677  1.0000
  C   C664      1.0  0.39133  0.53964  0.47352  1.0000
  C   C665      1.0  0.35417  0.43292  0.43158  1.0000
  H   H804      1.0  0.36641  0.60310  0.25830  1.0000
  H   H805      1.0  0.36870  0.50910  0.47133  1.0000
  H   H806      1.0  0.34040  0.47816  0.42581  1.0000
  C   C666      1.0  0.31402  0.32848  0.22455  1.0000
  C   C667      1.0  0.32703  0.33547  0.22088  1.0000
  N   N45       1.0  0.27703  0.35656  0.14287  1.0000
  H   H807      1.0  0.29054  0.37077  0.10156  1.0000
  H   H808      1.0  0.29721  0.64543  0.21406  1.0000
  H   H809      1.0  0.36326  0.57230  0.47568  1.0000
  C   C668      1.0  0.38519  0.56003  0.42489  1.0000
  H   H810      1.0  0.46477  0.61640  0.46907  1.0000
  C   C669      1.0  0.40369  0.34138  0.30862  1.0000
  H   H811      1.0  0.28776  0.64312  0.01948  1.0000
  C   C670      1.0  0.38321  0.58273  0.27396  1.0000
  N   N46       1.0  0.36018  0.64369  0.04968  1.0000
  C   C671      1.0  0.38608  0.60920  0.27212  1.0000
  H   H812      1.0  0.31959  0.52784  0.48797  1.0000
  C   C672      1.0  0.41297  0.34305  0.41609  1.0000
  H   H813      1.0  0.40267  0.61053  0.34614  1.0000
  H   H814      1.0  0.42293  0.61579  0.23617  1.0000
  C   C673      1.0  0.28888  0.37246  0.22877  1.0000
  H   H815      1.0  0.30033  0.34367  0.12712  1.0000
  S   S194      1.0  0.31761  0.64317  0.11736  1.0000
  H   H816      1.0  0.37656  0.57463  0.27016  1.0000
  H   H817      1.0  0.41238  0.34879  0.38889  1.0000
  H   H818      1.0  0.32997  0.43234  0.45635  1.0000
  H   H819      1.0  0.42113  0.59878  0.33120  1.0000
  S   S195      1.0  0.26289  0.32199  0.08703  1.0000
  H   H820      1.0  0.35599  0.62627  0.02403  1.0000
  H   H821      1.0  0.34430  0.40971  0.48398  1.0000
  H   H822      1.0  0.37668  0.43958  0.40554  1.0000
  H   H823      1.0  0.35443  0.60011  0.13978  1.0000
  H   H824      1.0  0.28784  0.33303  0.16009  1.0000
  C   C674      1.0  0.34902  0.41045  0.41392  1.0000
  H   H825      1.0  0.47304  0.54991  0.48946  1.0000
  C   C675      1.0  0.40066  0.60388  0.28405  1.0000
  S   S196      1.0  0.48165  0.57978  0.38134  1.0000
  H   H826      1.0  0.26582  0.37040  0.25639  1.0000
  H   H827      1.0  0.31820  0.63634  0.27007  1.0000
  C   C676      1.0  0.40334  0.57572  0.45248  1.0000
  H   H828      1.0  0.25929  0.34388  0.17339  1.0000
  C   C677      1.0  0.27843  0.36861  0.11042  1.0000
  H   H829      1.0  0.38200  0.32049  0.34100  1.0000
  H   H830      1.0  0.33645  0.33392  0.19870  1.0000
  C   C678      1.0  0.39753  0.57716  0.28528  1.0000
  C   C679      1.0  0.28084  0.36197  0.17268  1.0000
  C   C680      1.0  0.39407  0.56557  0.47618  1.0000
  H   H831      1.0  0.33666  0.41155  0.42732  1.0000
  C   C681      1.0  0.35666  0.61974  0.09734  1.0000
  H   H832      1.0  0.27883  0.32116  0.01425  1.0000
  C   C682      1.0  0.34394  0.51779  0.47622  1.0000
  C   C683      1.0  0.36690  0.32421  0.26218  1.0000
  C   C684      1.0  0.37146  0.63783  0.10590  1.0000
  H   H833      1.0  0.39070  0.63309  0.30211  1.0000
  C   C685      1.0  0.33653  0.62831  0.20675  1.0000
  C   C686      1.0  0.45276  0.52205  0.45554  1.0000
  H   H834      1.0  0.43222  0.62140  0.26665  1.0000
  C   C687      1.0  0.24583  0.63964  0.19119  1.0000
  H   H835      1.0  0.38036  0.63225  0.15511  1.0000
  C   C688      1.0  0.27898  0.64665  0.27624  1.0000
  H   H836      1.0  0.34479  0.32296  0.29638  1.0000
  C   C689      1.0  0.40426  0.34263  0.47922  1.0000
  H   H837      1.0  0.29184  0.32537  0.25654  1.0000
  C   C690      1.0  0.28043  0.60700  0.99880  1.0000
  H   H838      1.0  0.48671  0.64667  0.37948  1.0000
  H   H839      1.0  0.36075  0.39505  0.47310  1.0000
  H   H840      1.0  0.31394  0.62910  0.02005  1.0000
  H   H841      1.0  0.36976  0.46351  0.47960  1.0000
  C   C691      1.0  0.33242  0.38004  0.48573  1.0000
  H   H842      1.0  0.36484  0.33686  0.25734  1.0000
  H   H843      1.0  0.37653  0.47943  0.48894  1.0000
  H   H844      1.0  0.42746  0.49877  0.45554  1.0000
  C   C692      1.0  0.41442  0.32814  0.48744  1.0000
  H   H845      1.0  0.43912  0.55813  0.47919  1.0000
  H   H846      1.0  0.38898  0.32280  0.22940  1.0000
  H   H847      1.0  0.26858  0.64521  0.17019  1.0000
  C   C693      1.0  0.48415  0.64532  0.31334  1.0000
  C   C694      1.0  0.44119  0.64748  0.28834  1.0000
  C   C695      1.0  0.25789  0.64760  0.18882  1.0000
  C   C696      1.0  0.30573  0.63539  0.27848  1.0000
  H   H848      1.0  0.38784  0.32759  0.39491  1.0000
  H   H849      1.0  0.27787  0.63707  0.26334  1.0000
  C   C697      1.0  0.44707  0.52663  0.48930  1.0000
  H   H850      1.0  0.27547  0.64309  0.30538  1.0000
  C   C698      1.0  0.42350  0.31800  0.27408  1.0000
  H   H851      1.0  0.47735  0.53164  0.47437  1.0000
  C   C699      1.0  0.46805  0.54203  0.47836  1.0000
  C   C700      1.0  0.35566  0.31639  0.28430  1.0000
  H   H852      1.0  0.37626  0.64836  0.09797  1.0000
  C   C701      1.0  0.26912  0.31522  0.01889  1.0000
  Fe  Fe98      1.0  0.28639  0.61456  0.84247  1.0000
  S   S197      1.0  0.29539  0.63640  0.81624  1.0000
  Fe  Fe99      1.0  0.29776  0.59988  0.77589  1.0000
  S   S198      1.0  0.30720  0.62078  0.74477  1.0000
  S   S199      1.0  0.30044  0.58090  0.74404  1.0000
  Fe  Fe100     1.0  0.31641  0.62022  0.79379  1.0000
  S   S200      1.0  0.34102  0.62386  0.78558  1.0000
  Fe  Fe101     1.0  0.28529  0.63506  0.76943  1.0000
  S   S201      1.0  0.30846  0.59830  0.82386  1.0000
  S   S202      1.0  0.27476  0.61421  0.79677  1.0000
  C   C702      1.0  0.27303  0.61116  0.96878  1.0000
  H   H853      1.0  0.30728  0.36541  0.71468  1.0000
  C   C703      1.0  0.30499  0.59942  0.96098  1.0000
  Fe  Fe102     1.0  0.37174  0.52402  0.67767  1.0000
  S   S203      1.0  0.39612  0.51043  0.66593  1.0000
  S   S204      1.0  0.36243  0.52967  0.73257  1.0000
  Fe  Fe103     1.0  0.36683  0.52834  0.60182  1.0000
  S   S205      1.0  0.39077  0.51551  0.58344  1.0000
  S   S206      1.0  0.34871  0.53954  0.56779  1.0000
  Fe  Fe104     1.0  0.38586  0.49836  0.63384  1.0000
  S   S207      1.0  0.39320  0.47229  0.63429  1.0000
  Fe  Fe105     1.0  0.39870  0.52872  0.61716  1.0000
  S   S208      1.0  0.41859  0.54184  0.59518  1.0000
  S   S209      1.0  0.36126  0.51047  0.64994  1.0000
  S   S210      1.0  0.37500  0.54310  0.63105  1.0000
  Fe  Fe106     1.0  0.34576  0.36719  0.67437  1.0000
  S   S211      1.0  0.36582  0.37873  0.67412  1.0000
  H   H854      1.0  0.42226  0.56002  0.73405  1.0000
  Fe  Fe107     1.0  0.34327  0.38219  0.59736  1.0000
  S   S212      1.0  0.36303  0.39465  0.59069  1.0000
  S   S213      1.0  0.32953  0.38547  0.55323  1.0000
  Fe  Fe108     1.0  0.37482  0.37212  0.62016  1.0000
  Fe  Fe109     1.0  0.35240  0.40039  0.64477  1.0000
  S   S214      1.0  0.34654  0.42551  0.65417  1.0000
  S   S215      1.0  0.35587  0.35919  0.62213  1.0000
  S   S216      1.0  0.33151  0.38934  0.64967  1.0000
  Fe  Fe110     1.0  0.46287  0.60825  0.71974  1.0000
  H   H855      1.0  0.44791  0.52840  0.55834  1.0000
  S   S217      1.0  0.44789  0.61293  0.77240  1.0000
  Fe  Fe111     1.0  0.47044  0.61198  0.63929  1.0000
  S   S218      1.0  0.46690  0.62629  0.58597  1.0000
  Fe  Fe112     1.0  0.46841  0.58006  0.68369  1.0000
  S   S219      1.0  0.45814  0.55806  0.69523  1.0000
  C   C704      1.0  0.33255  0.53261  0.52363  1.0000
  S   S220      1.0  0.45143  0.60264  0.67949  1.0000
  H   H856      1.0  0.26529  0.34298  0.95980  1.0000
  C   C705      1.0  0.42962  0.54609  0.62323  1.0000
  C   C706      1.0  0.43905  0.55737  0.60977  1.0000
  C   C707      1.0  0.44769  0.56129  0.63165  1.0000
  C   C708      1.0  0.44731  0.55367  0.66687  1.0000
  C   C709      1.0  0.43816  0.54214  0.68003  1.0000
  C   C710      1.0  0.42917  0.53851  0.65850  1.0000
  H   H857      1.0  0.43944  0.56334  0.58256  1.0000
  H   H858      1.0  0.45479  0.57008  0.62125  1.0000
  H   H859      1.0  0.43800  0.53598  0.70707  1.0000
  H   H860      1.0  0.42212  0.52967  0.66904  1.0000
  C   C711      1.0  0.38006  0.45945  0.63998  1.0000
  C   C712      1.0  0.36392  0.46475  0.64459  1.0000
  C   C713      1.0  0.35386  0.45423  0.64831  1.0000
  C   C714      1.0  0.35979  0.43832  0.64761  1.0000
  C   C715      1.0  0.37593  0.43303  0.64275  1.0000
  C   C716      1.0  0.38600  0.44356  0.63909  1.0000
  H   H861      1.0  0.35917  0.47693  0.64522  1.0000
  H   H862      1.0  0.34139  0.45840  0.65211  1.0000
  H   H863      1.0  0.38064  0.42081  0.64235  1.0000
  H   H864      1.0  0.39847  0.43935  0.63553  1.0000
  H   H865      1.0  0.44642  0.56036  0.51684  1.0000
  C   C717      1.0  0.40161  0.55048  0.75048  1.0000
  C   C718      1.0  0.34706  0.53019  0.53399  1.0000
  S   S221      1.0  0.48676  0.58897  0.64023  1.0000
  C   C719      1.0  0.41467  0.64426  0.82056  1.0000
  C   C720      1.0  0.46361  0.59579  0.50888  1.0000
  H   H866      1.0  0.40645  0.64400  0.84519  1.0000
  C   C721      1.0  0.43400  0.52058  0.51029  1.0000
  H   H867      1.0  0.35794  0.36250  0.54208  1.0000
  H   H868      1.0  0.40262  0.57112  0.55368  1.0000
  C   C722      1.0  0.46297  0.58968  0.54512  1.0000
  C   C723      1.0  0.46366  0.59911  0.56893  1.0000
  C   C724      1.0  0.46506  0.61468  0.55663  1.0000
  C   C725      1.0  0.46542  0.62088  0.52051  1.0000
  H   H869      1.0  0.35871  0.43782  0.57026  1.0000
  H   H870      1.0  0.46212  0.57759  0.55474  1.0000
  H   H871      1.0  0.46304  0.59436  0.59685  1.0000
  C   C726      1.0  0.43117  0.31849  0.53173  1.0000
  H   H872      1.0  0.46638  0.51921  0.53666  1.0000
  H   H873      1.0  0.30739  0.63883  0.92907  1.0000
  C   C727      1.0  0.43532  0.63054  0.78042  1.0000
  H   H874      1.0  0.36642  0.63445  0.80074  1.0000
  H   H875      1.0  0.25234  0.63690  0.75385  1.0000
  S   S222      1.0  0.27198  0.61463  0.89770  1.0000
  H   H876      1.0  0.42412  0.61972  0.83115  1.0000
  C   C728      1.0  0.29058  0.34588  0.86598  1.0000
  H   H877      1.0  0.31549  0.37087  0.62029  1.0000
  C   C729      1.0  0.31774  0.56674  0.74137  1.0000
  C   C730      1.0  0.32234  0.55909  0.71200  1.0000
  C   C731      1.0  0.33615  0.54787  0.70887  1.0000
  C   C732      1.0  0.34521  0.54389  0.73569  1.0000
  C   C733      1.0  0.34052  0.55136  0.76534  1.0000
  C   C734      1.0  0.32694  0.56293  0.76794  1.0000
  H   H878      1.0  0.31525  0.56195  0.69141  1.0000
  H   H879      1.0  0.33963  0.54215  0.68592  1.0000
  H   H880      1.0  0.34739  0.54822  0.78635  1.0000
  H   H881      1.0  0.32337  0.56860  0.79092  1.0000
  C   C735      1.0  0.34556  0.62552  0.82575  1.0000
  C   C736      1.0  0.33584  0.62139  0.85790  1.0000
  C   C737      1.0  0.33918  0.62351  0.88976  1.0000
  C   C738      1.0  0.35184  0.63038  0.88924  1.0000
  H   H882      1.0  0.37010  0.56281  0.81005  1.0000
  C   C739      1.0  0.45816  0.53054  0.53760  1.0000
  H   H883      1.0  0.32574  0.61656  0.85827  1.0000
  H   H884      1.0  0.33174  0.62017  0.91463  1.0000
  C   C740      1.0  0.42286  0.33661  0.61008  1.0000
  C   C741      1.0  0.23884  0.34618  0.94226  1.0000
  N   N47       1.0  0.24754  0.34783  0.90521  1.0000
  C   C742      1.0  0.42462  0.63047  0.81239  1.0000
  H   H885      1.0  0.30438  0.60243  0.90502  1.0000
  H   H886      1.0  0.28141  0.35839  0.74183  1.0000
  H   H887      1.0  0.38780  0.55625  0.53266  1.0000
  C   C743      1.0  0.40615  0.57211  0.77407  1.0000
  H   H888      1.0  0.33205  0.59558  0.69899  1.0000
  H   H889      1.0  0.36681  0.55603  0.51048  1.0000
  C   C744      1.0  0.30451  0.32697  0.78231  1.0000
  H   H890      1.0  0.46373  0.53833  0.54756  1.0000
  C   C745      1.0  0.27983  0.32391  0.67854  1.0000
  C   C746      1.0  0.24468  0.33545  0.88895  1.0000
  H   H891      1.0  0.42968  0.34233  0.58678  1.0000
  H   H892      1.0  0.34547  0.57805  0.69433  1.0000
  H   H893      1.0  0.41811  0.58904  0.51115  1.0000
  C   C747      1.0  0.31707  0.63278  0.99085  1.0000
  H   H894      1.0  0.41851  0.60062  0.80200  1.0000
  H   H895      1.0  0.28745  0.63653  0.97993  1.0000
  H   H896      1.0  0.32257  0.33228  0.59063  1.0000
  H   H897      1.0  0.26980  0.34974  0.84482  1.0000
  H   H898      1.0  0.29787  0.34651  0.83989  1.0000
  H   H899      1.0  0.24513  0.62649  0.64739  1.0000
  H   H900      1.0  0.37122  0.51926  0.52398  1.0000
  S   S223      1.0  0.48036  0.62016  0.67876  1.0000
  H   H901      1.0  0.33317  0.47886  0.51027  1.0000
  C   C748      1.0  0.46464  0.61146  0.49671  1.0000
  H   H902      1.0  0.33666  0.42522  0.57948  1.0000
  H   H903      1.0  0.38010  0.61256  0.67838  1.0000
  H   H904      1.0  0.38610  0.58094  0.81275  1.0000
  C   C749      1.0  0.29194  0.35067  0.74870  1.0000
  H   H905      1.0  0.25424  0.64056  0.85439  1.0000
  H   H906      1.0  0.43418  0.33015  0.52898  1.0000
  H   H907      1.0  0.35216  0.47285  0.80533  1.0000
  C   C750      1.0  0.31912  0.33082  0.76637  1.0000
  H   H908      1.0  0.38011  0.44811  0.53440  1.0000
  H   H909      1.0  0.24977  0.33642  0.86020  1.0000
  N   N48       1.0  0.41642  0.58292  0.77444  1.0000
  H   H910      1.0  0.34660  0.59460  0.65940  1.0000
  H   H911      1.0  0.42457  0.58652  0.71777  1.0000
  C   C751      1.0  0.31009  0.32800  0.67602  1.0000
  C   C752      1.0  0.28161  0.60953  0.93480  1.0000
  H   H912      1.0  0.37172  0.63919  0.85677  1.0000
  C   C753      1.0  0.38157  0.56231  0.79365  1.0000
  C   C754      1.0  0.44213  0.55206  0.50550  1.0000
  C   C755      1.0  0.29765  0.60380  0.93098  1.0000
  H   H913      1.0  0.24986  0.32376  0.90243  1.0000
  H   H914      1.0  0.35150  0.47844  0.57937  1.0000
  H   H915      1.0  0.40702  0.59960  0.73231  1.0000
  C   C756      1.0  0.41105  0.56085  0.75138  1.0000
  C   C757      1.0  0.30169  0.33714  0.64929  1.0000
  C   C758      1.0  0.42921  0.32182  0.62739  1.0000
  H   H916      1.0  0.34660  0.49054  0.53896  1.0000
  H   H917      1.0  0.32951  0.63389  0.98469  1.0000
  H   H918      1.0  0.44093  0.31624  0.61761  1.0000
  C   C759      1.0  0.30354  0.31713  0.70290  1.0000
  H   H919      1.0  0.29633  0.34871  0.58052  1.0000
  H   H920      1.0  0.35533  0.57687  0.74945  1.0000
  C   C760      1.0  0.28798  0.34213  0.92967  1.0000
  H   H921      1.0  0.46634  0.63296  0.51091  1.0000
  C   C761      1.0  0.27180  0.34394  0.93307  1.0000
  H   H922      1.0  0.37960  0.54318  0.77064  1.0000
  C   C762      1.0  0.29043  0.64601  0.99005  1.0000
  C   C763      1.0  0.35607  0.48194  0.55065  1.0000
  C   C764      1.0  0.40555  0.32205  0.67103  1.0000
  H   H923      1.0  0.40569  0.54188  0.73315  1.0000
  H   H924      1.0  0.44440  0.64474  0.73213  1.0000
  H   H925      1.0  0.40499  0.32145  0.57905  1.0000
  H   H926      1.0  0.40834  0.58600  0.82895  1.0000
  C   C765      1.0  0.36172  0.63421  0.85716  1.0000
  H   H927      1.0  0.43972  0.58186  0.78362  1.0000
  H   H928      1.0  0.41495  0.57437  0.64935  1.0000
  C   C766      1.0  0.39904  0.33668  0.65318  1.0000
  H   H929      1.0  0.32909  0.35059  0.58150  1.0000
  H   H930      1.0  0.37268  0.45487  0.57613  1.0000
  H   H931      1.0  0.32000  0.35639  0.65762  1.0000
  C   C767      1.0  0.26455  0.34652  0.90275  1.0000
  C   C768      1.0  0.29087  0.33676  0.77309  1.0000
  C   C769      1.0  0.30658  0.35459  0.73299  1.0000
  C   C770      1.0  0.33092  0.52609  0.49546  1.0000
  H   H932      1.0  0.24896  0.61649  0.85575  1.0000
  C   C771      1.0  0.29736  0.34302  0.89622  1.0000
  H   H933      1.0  0.45851  0.64267  0.80912  1.0000
  H   H934      1.0  0.43849  0.56763  0.75974  1.0000
  H   H935      1.0  0.31738  0.59477  0.95784  1.0000
  C   C772      1.0  0.35285  0.36548  0.51822  1.0000
  H   H936      1.0  0.32161  0.32959  0.67715  1.0000
  H   H937      1.0  0.35784  0.61816  0.71580  1.0000
  C   C773      1.0  0.41845  0.59319  0.73934  1.0000
  H   H938      1.0  0.35311  0.61886  0.67247  1.0000
  N   N49       1.0  0.35994  0.47752  0.74891  1.0000
  C   C774      1.0  0.37362  0.48260  0.72408  1.0000
  C   C775      1.0  0.34606  0.48977  0.74213  1.0000
  C   C776      1.0  0.36211  0.47680  0.78575  1.0000
  C   C777      1.0  0.35857  0.46189  0.74432  1.0000
  C   C778      1.0  0.37153  0.44935  0.74571  1.0000
  C   C779      1.0  0.34448  0.45854  0.73903  1.0000
  C   C780      1.0  0.37061  0.43457  0.74089  1.0000
  C   C781      1.0  0.34367  0.44366  0.73459  1.0000
  C   C782      1.0  0.35672  0.43174  0.73528  1.0000
  H   H939      1.0  0.37315  0.48181  0.69638  1.0000
  H   H940      1.0  0.37421  0.49483  0.72475  1.0000
  H   H941      1.0  0.38492  0.47547  0.73023  1.0000
  H   H942      1.0  0.34369  0.49070  0.71486  1.0000
  H   H943      1.0  0.34770  0.50152  0.74424  1.0000
  H   H944      1.0  0.33547  0.48754  0.76178  1.0000
  H   H945      1.0  0.37292  0.46858  0.79200  1.0000
  H   H946      1.0  0.38257  0.45090  0.75006  1.0000
  H   H947      1.0  0.33399  0.46724  0.73755  1.0000
  H   H948      1.0  0.38079  0.42530  0.74087  1.0000
  H   H949      1.0  0.33303  0.44141  0.72928  1.0000
  H   H950      1.0  0.35614  0.42040  0.73051  1.0000
  H   H951      1.0  0.31291  0.43853  0.55476  1.0000
  H   H952      1.0  0.24354  0.37285  0.89598  1.0000
  H   H953      1.0  0.36042  0.59385  0.75798  1.0000
  H   H954      1.0  0.27892  0.34118  0.63245  1.0000
  H   H955      1.0  0.24567  0.36463  0.85677  1.0000
  H   H956      1.0  0.36568  0.48827  0.54879  1.0000
  C   C783      1.0  0.24093  0.36321  0.88572  1.0000
  C   C784      1.0  0.37537  0.45864  0.54694  1.0000
  S   S224      1.0  0.35452  0.63539  0.92807  1.0000
  C   C785      1.0  0.32025  0.34449  0.74118  1.0000
  S   S225      1.0  0.33901  0.34803  0.72007  1.0000
  C   C786      1.0  0.38689  0.55123  0.77152  1.0000
  N   N50       1.0  0.45384  0.53758  0.50222  1.0000
  C   C787      1.0  0.32275  0.44435  0.54993  1.0000
  S   S226      1.0  0.27240  0.33184  0.79143  1.0000
  C   C788      1.0  0.31120  0.36112  0.63984  1.0000
  C   C789      1.0  0.40267  0.57254  0.52539  1.0000
  C   C790      1.0  0.33449  0.46705  0.52494  1.0000
  H   H957      1.0  0.42555  0.60200  0.73906  1.0000
  C   C791      1.0  0.32187  0.45946  0.53073  1.0000
  H   H958      1.0  0.43115  0.54980  0.52329  1.0000
  N   N51       1.0  0.36141  0.46818  0.53273  1.0000
  C   C792      1.0  0.43609  0.64456  0.75669  1.0000
  H   H959      1.0  0.39916  0.60108  0.79668  1.0000
  S   S227      1.0  0.39966  0.36198  0.59873  1.0000
  C   C793      1.0  0.40412  0.32797  0.55165  1.0000
  H   H960      1.0  0.33876  0.61736  0.71191  1.0000
  H   H961      1.0  0.38736  0.34233  0.66317  1.0000
  C   C794      1.0  0.29875  0.35711  0.59495  1.0000
  C   C795      1.0  0.35873  0.63153  0.82549  1.0000
  H   H962      1.0  0.32248  0.53948  0.53758  1.0000
  H   H963      1.0  0.34053  0.59359  0.75682  1.0000
  C   C796      1.0  0.33891  0.37628  0.51682  1.0000
  C   C797      1.0  0.39098  0.57267  0.79499  1.0000
  C   C798      1.0  0.24752  0.64766  0.73802  1.0000
  H   H964      1.0  0.43734  0.64360  0.94127  1.0000
  H   H965      1.0  0.26060  0.61554  0.97197  1.0000
  H   H966      1.0  0.38496  0.46531  0.54235  1.0000
  H   H967      1.0  0.33267  0.33712  0.62070  1.0000
  C   C799      1.0  0.34886  0.44429  0.55806  1.0000
  S   S228      1.0  0.47935  0.58512  0.72571  1.0000
  H   H968      1.0  0.42885  0.52373  0.53601  1.0000
  C   C800      1.0  0.41023  0.59303  0.80180  1.0000
  H   H969      1.0  0.30990  0.34145  0.89370  1.0000
  H   H970      1.0  0.28752  0.36382  0.60702  1.0000
  H   H971      1.0  0.31627  0.62283  0.97899  1.0000
  C   C801      1.0  0.33618  0.43682  0.56361  1.0000
  C   C802      1.0  0.39420  0.56407  0.51302  1.0000
  H   H972      1.0  0.36301  0.48843  0.79034  1.0000
  H   H973      1.0  0.39623  0.55649  0.67077  1.0000
  C   C803      1.0  0.27444  0.34767  0.86910  1.0000
  C   C804      1.0  0.34841  0.45968  0.53835  1.0000
  H   H974      1.0  0.43094  0.56541  0.80652  1.0000
  N   N52       1.0  0.30864  0.34909  0.62208  1.0000
  H   H975      1.0  0.36951  0.56593  0.69783  1.0000
  C   C805      1.0  0.40771  0.34400  0.62269  1.0000
  C   C806      1.0  0.32388  0.34191  0.60299  1.0000
  H   H976      1.0  0.40666  0.60219  0.65330  1.0000
  C   C807      1.0  0.36004  0.52133  0.51575  1.0000
  H   H977      1.0  0.24003  0.35538  0.95607  1.0000
  C   C808      1.0  0.43198  0.57404  0.78143  1.0000
  H   H978      1.0  0.41719  0.50605  0.51490  1.0000
  N   N53       1.0  0.35539  0.59611  0.70552  1.0000
  C   C809      1.0  0.35283  0.58980  0.74407  1.0000
  C   C810      1.0  0.35121  0.61337  0.70098  1.0000
  C   C811      1.0  0.34449  0.59088  0.68875  1.0000
  C   C812      1.0  0.37176  0.59036  0.68993  1.0000
  C   C813      1.0  0.38294  0.60026  0.67746  1.0000
  C   C814      1.0  0.37712  0.57433  0.68781  1.0000
  C   C815      1.0  0.39833  0.59446  0.66302  1.0000
  C   C816      1.0  0.39247  0.56872  0.67281  1.0000
  C   C817      1.0  0.40305  0.57876  0.66063  1.0000
  H   H979      1.0  0.40651  0.33973  0.55094  1.0000
  H   H980      1.0  0.30453  0.36576  0.57449  1.0000
  H   H981      1.0  0.30020  0.36617  0.65625  1.0000
  H   H982      1.0  0.32962  0.32313  0.77346  1.0000
  H   H983      1.0  0.39183  0.32928  0.54825  1.0000
  H   H984      1.0  0.39681  0.34871  0.49950  1.0000
  H   H985      1.0  0.29330  0.33984  0.95320  1.0000
  H   H986      1.0  0.24285  0.33453  0.95799  1.0000
  H   H987      1.0  0.30379  0.31637  0.80150  1.0000
  H   H988      1.0  0.42429  0.64645  0.91043  1.0000
  H   H989      1.0  0.24950  0.62666  0.58071  1.0000
  C   C818      1.0  0.28631  0.33471  0.65124  1.0000
  N   N54       1.0  0.41526  0.31993  0.52433  1.0000
  H   H990      1.0  0.31130  0.46542  0.52062  1.0000
  C   C819      1.0  0.42716  0.51050  0.49840  1.0000
  N   N55       1.0  0.30695  0.64744  0.97692  1.0000
  H   H991      1.0  0.39000  0.53570  0.50272  1.0000
  C   C820      1.0  0.41141  0.58259  0.50153  1.0000
  H   H992      1.0  0.39887  0.31653  0.69486  1.0000
  H   H993      1.0  0.23936  0.63033  0.90498  1.0000
  H   H994      1.0  0.26796  0.32244  0.68011  1.0000
  C   C821      1.0  0.36639  0.47349  0.49418  1.0000
  C   C822      1.0  0.46006  0.64849  0.82947  1.0000
  H   H995      1.0  0.48473  0.64676  0.81140  1.0000
  C   C823      1.0  0.28838  0.31520  0.70440  1.0000
  H   H996      1.0  0.25187  0.68811  0.13536  1.0000
  C   C824      1.0  0.29694  0.66273  0.28380  1.0000
  H   H997      1.0  0.24910  0.66463  0.11528  1.0000
  C   C825      1.0  0.31590  0.68581  0.01549  1.0000
  S   S229      1.0  0.34443  0.68593  0.21860  1.0000
  H   H998      1.0  0.25871  0.83517  0.18962  1.0000
  H   H999      1.0  0.41282  0.66643  0.34534  1.0000
  S   S230      1.0  0.37400  0.70364  0.20633  1.0000
  C   C826      1.0  0.30143  0.68708  0.31455  1.0000
  Fe  Fe113     1.0  0.35608  0.69542  0.25231  1.0000
  S   S231      1.0  0.33852  0.70736  0.29373  1.0000
  Fe  Fe114     1.0  0.36340  0.69220  0.17370  1.0000
  S   S232      1.0  0.35529  0.70315  0.12129  1.0000
  S   S233      1.0  0.37116  0.67215  0.26881  1.0000
  H   H1000     1.0  0.26201  0.82665  0.48090  1.0000
  Fe  Fe115     1.0  0.29170  0.78425  0.33383  1.0000
  S   S234      1.0  0.28694  0.76917  0.38726  1.0000
  S   S235      1.0  0.31585  0.77945  0.30139  1.0000
  Fe  Fe116     1.0  0.25754  0.79957  0.33340  1.0000
  Fe  Fe117     1.0  0.27039  0.79035  0.40375  1.0000
  S   S236      1.0  0.26189  0.79626  0.45917  1.0000
  Fe  Fe118     1.0  0.26736  0.76527  0.36526  1.0000
  S   S237      1.0  0.27689  0.80629  0.35201  1.0000
  S   S238      1.0  0.27281  0.77910  0.31102  1.0000
  C   C827      1.0  0.24830  0.83506  0.20964  1.0000
  H   H1001     1.0  0.27438  0.76277  0.46590  1.0000
  C   C828      1.0  0.24197  0.66263  0.23318  1.0000
  H   H1002     1.0  0.27028  0.65688  0.26696  1.0000
  H   H1003     1.0  0.29476  0.78429  0.46214  1.0000
  C   C829      1.0  0.24782  0.87691  0.23962  1.0000
  H   H1004     1.0  0.40017  0.67299  0.05280  1.0000
  C   C830      1.0  0.47895  0.65675  0.36621  1.0000
  C   C831      1.0  0.28420  0.67207  0.30292  1.0000
  C   C832      1.0  0.36576  0.69552  0.08312  1.0000
  C   C833      1.0  0.35942  0.69941  0.05172  1.0000
  C   C834      1.0  0.38040  0.68581  0.08339  1.0000
  H   H1005     1.0  0.34814  0.70697  0.05125  1.0000
  H   H1006     1.0  0.38549  0.68289  0.10723  1.0000
  C   C835      1.0  0.32244  0.75944  0.29906  1.0000
  C   C836      1.0  0.31276  0.74870  0.31516  1.0000
  C   C837      1.0  0.31797  0.73284  0.31332  1.0000
  C   C838      1.0  0.33275  0.72753  0.29459  1.0000
  C   C839      1.0  0.34248  0.73823  0.27819  1.0000
  C   C840      1.0  0.33736  0.75414  0.28065  1.0000
  H   H1007     1.0  0.30121  0.75256  0.32907  1.0000
  H   H1008     1.0  0.31038  0.72466  0.32618  1.0000
  H   H1009     1.0  0.35404  0.73421  0.26432  1.0000
  H   H1010     1.0  0.34497  0.76236  0.26837  1.0000
  H   H1011     1.0  0.25316  0.88367  0.21573  1.0000
  S   S239      1.0  0.25032  0.78490  0.38596  1.0000
  H   H1012     1.0  0.46696  0.65410  0.37408  1.0000
  Fe  Fe119     1.0  0.38820  0.67955  0.22041  1.0000
  S   S240      1.0  0.24040  0.67633  0.26067  1.0000
  H   H1013     1.0  0.30545  0.65068  0.04590  1.0000
  H   H1014     1.0  0.32210  0.66022  0.26511  1.0000
  H   H1015     1.0  0.47899  0.66710  0.37765  1.0000
  C   C841      1.0  0.36768  0.69369  0.02083  1.0000
  H   H1016     1.0  0.33432  0.66427  0.13109  1.0000
  N   N56       1.0  0.48380  0.65963  0.32704  1.0000
  H   H1017     1.0  0.25427  0.71884  0.33938  1.0000
  C   C842      1.0  0.43547  0.65418  0.25662  1.0000
  C   C843      1.0  0.38874  0.68027  0.05242  1.0000
  C   C844      1.0  0.31407  0.67827  0.29571  1.0000
  S   S241      1.0  0.41428  0.67267  0.21700  1.0000
  S   S242      1.0  0.26259  0.74140  0.37061  1.0000
  H   H1018     1.0  0.30326  0.69639  0.32607  1.0000
  H   H1019     1.0  0.27668  0.69101  0.33248  1.0000
  H   H1020     1.0  0.35048  0.66755  0.02946  1.0000
  C   C845      1.0  0.31190  0.66642  0.28018  1.0000
  H   H1021     1.0  0.31095  0.65623  0.21884  1.0000
  C   C846      1.0  0.28652  0.68403  0.31804  1.0000
  H   H1022     1.0  0.26053  0.82036  0.25065  1.0000
  H   H1023     1.0  0.27231  0.67046  0.30643  1.0000
  C   C847      1.0  0.41312  0.66919  0.28910  1.0000
  C   C848      1.0  0.25130  0.85517  0.28793  1.0000
  H   H1024     1.0  0.36275  0.69688  0.99672  1.0000
  C   C849      1.0  0.41909  0.66286  0.32065  1.0000
  H   H1025     1.0  0.32565  0.68072  0.29301  1.0000
  H   H1026     1.0  0.34070  0.65960  0.07219  1.0000
  H   H1027     1.0  0.24832  0.71134  0.43852  1.0000
  H   H1028     1.0  0.34898  0.66277  0.17828  1.0000
  C   C850      1.0  0.42137  0.66494  0.25696  1.0000
  C   C851      1.0  0.33498  0.65414  0.15191  1.0000
  C   C852      1.0  0.38244  0.68421  0.02103  1.0000
  H   H1029     1.0  0.44188  0.65089  0.23176  1.0000
  C   C853      1.0  0.24938  0.82668  0.24416  1.0000
  H   H1030     1.0  0.26512  0.66551  0.20682  1.0000
  C   C854      1.0  0.47159  0.67200  0.31200  1.0000
  H   H1031     1.0  0.31051  0.67232  0.06749  1.0000
  H   H1032     1.0  0.40229  0.67757  0.28952  1.0000
  N   N57       1.0  0.32386  0.74023  0.18697  1.0000
  C   C855      1.0  0.33865  0.72906  0.19107  1.0000
  C   C856      1.0  0.32084  0.74135  0.15057  1.0000
  C   C857      1.0  0.32613  0.75577  0.19026  1.0000
  C   C858      1.0  0.31090  0.73463  0.21345  1.0000
  C   C859      1.0  0.30142  0.74346  0.23913  1.0000
  C   C860      1.0  0.30742  0.71985  0.21402  1.0000
  C   C861      1.0  0.28922  0.73779  0.26353  1.0000
  C   C862      1.0  0.29517  0.71433  0.23848  1.0000
  C   C863      1.0  0.28607  0.72331  0.26311  1.0000
  H   H1033     1.0  0.33881  0.71778  0.18349  1.0000
  H   H1034     1.0  0.34894  0.73344  0.17382  1.0000
  H   H1035     1.0  0.34062  0.72656  0.21902  1.0000
  H   H1036     1.0  0.32054  0.72980  0.14471  1.0000
  H   H1037     1.0  0.33021  0.74588  0.12999  1.0000
  H   H1038     1.0  0.30952  0.74917  0.14666  1.0000
  H   H1039     1.0  0.32894  0.75558  0.21673  1.0000
  H   H1040     1.0  0.33601  0.75962  0.17026  1.0000
  H   H1041     1.0  0.31560  0.76490  0.18631  1.0000
  H   H1042     1.0  0.30338  0.75462  0.24164  1.0000
  H   H1043     1.0  0.31428  0.71238  0.19573  1.0000
  H   H1044     1.0  0.28236  0.74455  0.28343  1.0000
  H   H1045     1.0  0.29284  0.70294  0.23863  1.0000
  H   H1046     1.0  0.27666  0.71898  0.28224  1.0000
  H   H1047     1.0  0.26530  0.75320  0.44275  1.0000
  Fe  Fe120     1.0  0.36090  0.66353  0.23112  1.0000
  C   C864      1.0  0.24714  0.73009  0.33178  1.0000
  S   S243      1.0  0.37903  0.66896  0.18387  1.0000
  H   H1048     1.0  0.29105  0.66561  0.21837  1.0000
  H   H1049     1.0  0.23845  0.90850  0.21574  1.0000
  C   C865      1.0  0.30876  0.66046  0.02644  1.0000
  C   C866      1.0  0.25841  0.72461  0.46433  1.0000
  C   C867      1.0  0.26544  0.75547  0.46950  1.0000
  H   H1050     1.0  0.26683  0.72711  0.44063  1.0000
  C   C868      1.0  0.24929  0.74323  0.34259  1.0000
  H   H1051     1.0  0.26987  0.86184  0.24684  1.0000
  C   C869      1.0  0.31163  0.67284  0.03911  1.0000
  H   H1052     1.0  0.25396  0.76271  0.47838  1.0000
  H   H1053     1.0  0.35904  0.66524  0.06784  1.0000
  C   C870      1.0  0.28515  0.73312  0.48472  1.0000
  H   H1054     1.0  0.25873  0.84527  0.30114  1.0000
  C   C871      1.0  0.29871  0.65452  0.22794  1.0000
  C   C872      1.0  0.25751  0.86446  0.25728  1.0000
  C   C873      1.0  0.24780  0.71555  0.46283  1.0000
  H   H1055     1.0  0.47416  0.67438  0.28245  1.0000
  C   C874      1.0  0.25591  0.65912  0.20954  1.0000
  H   H1056     1.0  0.47019  0.68300  0.32223  1.0000
  H   H1057     1.0  0.28773  0.73154  0.45649  1.0000
  H   H1058     1.0  0.45992  0.66853  0.31937  1.0000
  N   N58       1.0  0.29500  0.65007  0.26709  1.0000
  C   C875      1.0  0.43307  0.65193  0.32038  1.0000
  H   H1059     1.0  0.31819  0.69535  0.02537  1.0000
  C   C876      1.0  0.35230  0.65969  0.05502  1.0000
  C   C877      1.0  0.34315  0.65340  0.17908  1.0000
  H   H1060     1.0  0.37416  0.65145  0.99954  1.0000
  H   H1061     1.0  0.24200  0.76805  0.34004  1.0000
  H   H1062     1.0  0.38296  0.64997  0.03712  1.0000
  C   C878      1.0  0.24062  0.68466  0.14079  1.0000
  C   C879      1.0  0.23903  0.67150  0.12935  1.0000
  H   H1063     1.0  0.29365  0.74010  0.48704  1.0000
  H   H1064     1.0  0.23968  0.78608  0.23334  1.0000
  C   C880      1.0  0.24035  0.75783  0.33196  1.0000
  C   C881      1.0  0.28836  0.78392  0.48900  1.0000
  S   S244      1.0  0.39334  0.67702  0.98269  1.0000
  C   C882      1.0  0.37022  0.69508  0.72748  1.0000
  H   H1065     1.0  0.41829  0.65556  0.94867  1.0000
  H   H1066     1.0  0.25226  0.81663  0.64266  1.0000
  C   C883      1.0  0.24228  0.65442  0.60045  1.0000
  Fe  Fe121     1.0  0.35539  0.69204  0.89332  1.0000
  C   C884      1.0  0.35927  0.69785  0.70411  1.0000
  S   S245      1.0  0.33435  0.71127  0.88774  1.0000
  Fe  Fe122     1.0  0.38670  0.67509  0.85953  1.0000
  C   C885      1.0  0.24345  0.66416  0.56655  1.0000
  Fe  Fe123     1.0  0.38080  0.67759  0.93795  1.0000
  H   H1067     1.0  0.41843  0.67169  0.87173  1.0000
  N   N59       1.0  0.43500  0.66618  0.90787  1.0000
  S   S246      1.0  0.37996  0.69556  0.88816  1.0000
  Fe  Fe124     1.0  0.27626  0.78251  0.71484  1.0000
  S   S247      1.0  0.30043  0.77672  0.68360  1.0000
  S   S248      1.0  0.26930  0.80484  0.73739  1.0000
  Fe  Fe125     1.0  0.26789  0.75275  0.70781  1.0000
  S   S249      1.0  0.29092  0.74484  0.67534  1.0000
  S   S250      1.0  0.35576  0.67574  0.94564  1.0000
  Fe  Fe126     1.0  0.30090  0.75258  0.71493  1.0000
  S   S251      1.0  0.32237  0.73569  0.72976  1.0000
  Fe  Fe127     1.0  0.28852  0.76944  0.64644  1.0000
  S   S252      1.0  0.29896  0.77383  0.58800  1.0000
  S   S253      1.0  0.27790  0.75886  0.74972  1.0000
  S   S254      1.0  0.26424  0.77694  0.67548  1.0000
  C   C886      1.0  0.33095  0.71852  0.84399  1.0000
  C   C887      1.0  0.31871  0.73107  0.83700  1.0000
  C   C888      1.0  0.31579  0.73662  0.80204  1.0000
  C   C889      1.0  0.32503  0.72944  0.77422  1.0000
  C   C890      1.0  0.33695  0.71678  0.78155  1.0000
  C   C891      1.0  0.34010  0.71147  0.81606  1.0000
  H   H1068     1.0  0.31158  0.73659  0.85857  1.0000
  H   H1069     1.0  0.30654  0.74647  0.79663  1.0000
  H   H1070     1.0  0.34373  0.71101  0.76034  1.0000
  H   H1071     1.0  0.34949  0.70180  0.82100  1.0000
  H   H1072     1.0  0.28462  0.80712  0.65203  1.0000
  C   C892      1.0  0.27199  0.78338  0.55885  1.0000
  C   C893      1.0  0.28823  0.77898  0.55291  1.0000
  C   C894      1.0  0.43842  0.67412  0.93423  1.0000
  H   H1073     1.0  0.26563  0.78329  0.58566  1.0000
  H   H1074     1.0  0.25749  0.88059  0.86561  1.0000
  N   N60       1.0  0.27330  0.82407  0.61261  1.0000
  H   H1075     1.0  0.27874  0.71613  0.81096  1.0000
  C   C895      1.0  0.29678  0.70437  0.73325  1.0000
  C   C896      1.0  0.25177  0.82938  0.53473  1.0000
  H   H1076     1.0  0.28447  0.83639  0.63849  1.0000
  C   C897      1.0  0.25990  0.66854  0.61557  1.0000
  H   H1077     1.0  0.26212  0.82479  0.66718  1.0000
  H   H1078     1.0  0.32184  0.65332  0.79787  1.0000
  H   H1079     1.0  0.32059  0.69663  0.96072  1.0000
  H   H1080     1.0  0.27004  0.73504  0.55137  1.0000
  S   S255      1.0  0.40440  0.67604  0.80868  1.0000
  H   H1081     1.0  0.25726  0.86062  0.86543  1.0000
  H   H1082     1.0  0.25299  0.68313  0.53176  1.0000
  H   H1083     1.0  0.38875  0.71835  0.75630  1.0000
  H   H1084     1.0  0.44297  0.68492  0.92112  1.0000
  H   H1085     1.0  0.26651  0.70329  0.76060  1.0000
  C   C898      1.0  0.26990  0.82490  0.57672  1.0000
  H   H1086     1.0  0.25282  0.86757  0.90666  1.0000
  H   H1087     1.0  0.41264  0.68171  0.90851  1.0000
  H   H1088     1.0  0.32171  0.68785  0.85856  1.0000
  C   C899      1.0  0.29635  0.77914  0.51796  1.0000
  C   C900      1.0  0.32284  0.66937  0.83045  1.0000
  H   H1089     1.0  0.30189  0.65945  0.92535  1.0000
  S   S256      1.0  0.27468  0.65769  0.73723  1.0000
  H   H1090     1.0  0.27793  0.79911  0.62077  1.0000
  C   C901      1.0  0.25254  0.67570  0.55762  1.0000
  H   H1091     1.0  0.29428  0.81900  0.55179  1.0000
  C   C902      1.0  0.26762  0.74543  0.53048  1.0000
  C   C903      1.0  0.24485  0.74629  0.65717  1.0000
  H   H1092     1.0  0.42742  0.66936  0.74746  1.0000
  C   C904      1.0  0.24953  0.81414  0.74432  1.0000
  H   H1093     1.0  0.34019  0.66766  0.73930  1.0000
  C   C905      1.0  0.24634  0.72682  0.52497  1.0000
  C   C906      1.0  0.25913  0.82585  0.64039  1.0000
  C   C907      1.0  0.47678  0.65820  0.85690  1.0000
  C   C908      1.0  0.31450  0.67414  0.96609  1.0000
  H   H1094     1.0  0.24432  0.83091  0.58904  1.0000
  C   C909      1.0  0.34849  0.67523  0.73595  1.0000
  C   C910      1.0  0.24317  0.73516  0.68813  1.0000
  C   C911      1.0  0.26070  0.67794  0.58215  1.0000
  C   C912      1.0  0.34856  0.68805  0.70856  1.0000
  H   H1095     1.0  0.23995  0.83196  0.52941  1.0000
  C   C913      1.0  0.42294  0.67717  0.88936  1.0000
  H   H1096     1.0  0.42764  0.68736  0.87253  1.0000
  H   H1097     1.0  0.29986  0.69352  0.72177  1.0000
  C   C914      1.0  0.27220  0.78884  0.49484  1.0000
  C   C915      1.0  0.28185  0.83656  0.61178  1.0000
  C   C916      1.0  0.25610  0.65962  0.72624  1.0000
  H   H1098     1.0  0.25201  0.75479  0.65461  1.0000
  C   C917      1.0  0.42644  0.65848  0.76540  1.0000
  C   C918      1.0  0.37958  0.71932  0.69586  1.0000
  C   C919      1.0  0.44880  0.66117  0.88149  1.0000
  H   H1099     1.0  0.28899  0.82010  0.49259  1.0000
  H   H1100     1.0  0.33130  0.66122  0.84484  1.0000
  H   H1101     1.0  0.42771  0.67777  0.95346  1.0000
  H   H1102     1.0  0.29320  0.83535  0.59329  1.0000
  C   C920      1.0  0.35912  0.67213  0.75907  1.0000
  H   H1103     1.0  0.35894  0.66224  0.78058  1.0000
  H   H1104     1.0  0.26225  0.66394  0.81748  1.0000
  Fe  Fe128     1.0  0.36443  0.65711  0.91244  1.0000
  C   C921      1.0  0.25125  0.87081  0.87833  1.0000
  H   H1105     1.0  0.38203  0.70132  0.78064  1.0000
  C   C922      1.0  0.30664  0.67539  0.78508  1.0000
  N   N61       1.0  0.26879  0.74095  0.49539  1.0000
  H   H1106     1.0  0.40658  0.70356  0.71226  1.0000
  H   H1107     1.0  0.25281  0.82725  0.78146  1.0000
  C   C923      1.0  0.24962  0.67361  0.70603  1.0000
  H   H1108     1.0  0.31598  0.67542  0.93757  1.0000
  C   C924      1.0  0.47481  0.65078  0.83073  1.0000
  H   H1109     1.0  0.36832  0.71800  0.76511  1.0000
  C   C925      1.0  0.38009  0.71093  0.75791  1.0000
  H   H1110     1.0  0.26753  0.68706  0.57538  1.0000
  H   H1111     1.0  0.37805  0.67871  0.77320  1.0000
  H   H1112     1.0  0.25150  0.79220  0.53447  1.0000
  C   C926      1.0  0.36993  0.68177  0.75479  1.0000
  H   H1113     1.0  0.36768  0.72658  0.70095  1.0000
  H   H1114     1.0  0.28867  0.71280  0.71698  1.0000
  H   H1115     1.0  0.30280  0.67133  0.76485  1.0000
  N   N62       1.0  0.38159  0.70531  0.72403  1.0000
  S   S257      1.0  0.36201  0.67309  0.86061  1.0000
  C   C927      1.0  0.39759  0.69633  0.71540  1.0000
  H   H1116     1.0  0.38156  0.71612  0.66907  1.0000
  H   H1117     1.0  0.27004  0.69227  0.80331  1.0000
  C   C928      1.0  0.28227  0.82207  0.54800  1.0000
  H   H1118     1.0  0.29511  0.80730  0.60795  1.0000
  H   H1119     1.0  0.35841  0.70772  0.68275  1.0000
  H   H1120     1.0  0.34014  0.69056  0.69086  1.0000
  H   H1121     1.0  0.28242  0.65702  0.98154  1.0000
  H   H1122     1.0  0.30759  0.70921  0.72939  1.0000
  C   C929      1.0  0.30665  0.69495  0.81927  1.0000
  S   S258      1.0  0.38960  0.65738  0.90885  1.0000
  S   S259      1.0  0.25177  0.73563  0.72395  1.0000
  N   N63       1.0  0.28960  0.70170  0.77132  1.0000
  H   H1123     1.0  0.38800  0.72696  0.69459  1.0000
  C   C930      1.0  0.28315  0.80880  0.62380  1.0000
  H   H1124     1.0  0.39915  0.69170  0.69038  1.0000
  H   H1125     1.0  0.29431  0.72336  0.77830  1.0000
  C   C931      1.0  0.30089  0.69077  0.79209  1.0000
  H   H1126     1.0  0.27573  0.72494  0.76695  1.0000
  C   C932      1.0  0.26402  0.78838  0.52983  1.0000
  C   C933      1.0  0.31738  0.68433  0.83818  1.0000
  H   H1127     1.0  0.30323  0.70644  0.82620  1.0000
  C   C934      1.0  0.28443  0.71715  0.78260  1.0000
  C   C935      1.0  0.27546  0.69504  0.77494  1.0000
  C   C936      1.0  0.31749  0.66494  0.80393  1.0000
  H   H1128     1.0  0.30892  0.77576  0.51323  1.0000
  H   H1129     1.0  0.27492  0.84825  0.60298  1.0000
  H   H1130     1.0  0.40031  0.68619  0.73662  1.0000
  H   H1131     1.0  0.27798  0.68422  0.76348  1.0000
  C   C937      1.0  0.25449  0.82865  0.56903  1.0000
  H   H1132     1.0  0.25151  0.83749  0.63523  1.0000
  H   H1133     1.0  0.25611  0.68298  0.69704  1.0000
  C   C938      1.0  0.27940  0.82280  0.51388  1.0000
  C   C939      1.0  0.26419  0.82648  0.50725  1.0000
  H   H1134     1.0  0.24417  0.68313  0.78228  1.0000
  C   C940      1.0  0.31723  0.68649  0.97910  1.0000
  C   C941      1.0  0.25051  0.66215  0.81915  1.0000
  H   H1135     1.0  0.24389  0.85706  0.82306  1.0000
  H   H1136     1.0  0.27610  0.75299  0.52959  1.0000
  C   C942      1.0  0.41575  0.65836  0.79742  1.0000
  C   C943      1.0  0.24036  0.67295  0.79933  1.0000
  H   H1137     1.0  0.32204  0.64996  0.92601  1.0000
  H   H1138     1.0  0.25591  0.75234  0.53921  1.0000
  H   H1139     1.0  0.26618  0.67036  0.63476  1.0000
  H   H1140     1.0  0.24251  0.80298  0.70838  1.0000
  H   H1141     1.0  0.28777  0.72148  0.50161  1.0000
  C   C944      1.0  0.30971  0.64909  0.93759  1.0000
  C   C945      1.0  0.25793  0.73067  0.49532  1.0000
  H   H1142     1.0  0.46640  0.66897  0.90156  1.0000
  C   C946      1.0  0.24462  0.82514  0.76712  1.0000
  C   C947      1.0  0.42847  0.65235  0.92785  1.0000
  C   C948      1.0  0.46402  0.66336  0.88202  1.0000
  H   H1143     1.0  0.44689  0.66631  0.95041  1.0000
  C   C949      1.0  0.25084  0.65695  0.62480  1.0000
  H   H1144     1.0  0.24499  0.73089  0.54970  1.0000
  C   C950      1.0  0.44724  0.65361  0.85438  1.0000
  C   C951      1.0  0.23843  0.86889  0.81381  1.0000
  H   H1145     1.0  0.24042  0.86412  0.76108  1.0000
  H   H1146     1.0  0.25057  0.65033  0.65139  1.0000
  C   C952      1.0  0.31016  0.66069  0.98952  1.0000
  H   H1147     1.0  0.43607  0.65154  0.85230  1.0000
  C   C953      1.0  0.23887  0.81143  0.72591  1.0000
  C   C954      1.0  0.24584  0.64869  0.83995  1.0000
  H   H1148     1.0  0.23787  0.75562  0.60623  1.0000
  S   S260      1.0  0.57794  0.25660  0.34835  1.0000
  S   S261      1.0  0.72293  0.23557  0.10577  1.0000
  Fe  Fe129     1.0  0.60152  0.25641  0.31400  1.0000
  S   S262      1.0  0.61581  0.23403  0.29794  1.0000
  C   C955      1.0  0.69401  0.30059  0.36852  1.0000
  Fe  Fe130     1.0  0.57102  0.27994  0.31545  1.0000
  C   C956      1.0  0.72135  0.14753  0.25527  1.0000
  H   H1149     1.0  0.72806  0.28735  0.01090  1.0000
  S   S263      1.0  0.49783  0.24606  0.29804  1.0000
  S   S264      1.0  0.61071  0.26737  0.34962  1.0000
  H   H1150     1.0  0.68802  0.14998  0.17893  1.0000
  C   C957      1.0  0.61183  0.28656  0.46011  1.0000
  C   C958      1.0  0.73414  0.18026  0.28429  1.0000
  H   H1151     1.0  0.55304  0.26368  0.23007  1.0000
  Fe  Fe131     1.0  0.69910  0.18907  0.17038  1.0000
  S   S265      1.0  0.71755  0.19224  0.12227  1.0000
  H   H1152     1.0  0.56314  0.23115  0.31046  1.0000
  Fe  Fe132     1.0  0.67447  0.21360  0.13636  1.0000
  S   S266      1.0  0.69090  0.21876  0.08520  1.0000
  S   S267      1.0  0.65060  0.22889  0.14103  1.0000
  Fe  Fe133     1.0  0.69904  0.19302  0.09072  1.0000
  S   S268      1.0  0.70760  0.18114  0.04268  1.0000
  Fe  Fe134     1.0  0.70791  0.21766  0.12020  1.0000
  S   S269      1.0  0.61861  0.30682  0.29438  1.0000
  S   S270      1.0  0.68105  0.18758  0.13929  1.0000
  S   S271      1.0  0.69100  0.21470  0.17104  1.0000
  H   H1153     1.0  0.64157  0.27830  0.28748  1.0000
  H   H1154     1.0  0.70897  0.28263  0.32237  1.0000
  H   H1155     1.0  0.71173  0.22578  0.00912  1.0000
  H   H1156     1.0  0.49156  0.23604  0.44051  1.0000
  H   H1157     1.0  0.67985  0.20410  0.02879  1.0000
  S   S272      1.0  0.54750  0.28744  0.29676  1.0000
  H   H1158     1.0  0.70817  0.24638  0.03841  1.0000
  C   C959      1.0  0.53443  0.25453  0.22266  1.0000
  H   H1159     1.0  0.49682  0.27973  0.28097  1.0000
  H   H1160     1.0  0.65672  0.26133  0.29077  1.0000
  H   H1161     1.0  0.71157  0.14753  0.27701  1.0000
  H   H1162     1.0  0.60397  0.28391  0.41365  1.0000
  H   H1163     1.0  0.64904  0.30088  0.25238  1.0000
  C   C960      1.0  0.70087  0.14701  0.17023  1.0000
  C   C961      1.0  0.65025  0.28528  0.37833  1.0000
  N   N64       1.0  0.68820  0.29954  0.33654  1.0000
  C   C962      1.0  0.71810  0.26668  0.02807  1.0000
  H   H1164     1.0  0.57919  0.25822  0.22963  1.0000
  C   C963      1.0  0.50024  0.25937  0.38860  1.0000
  S   S273      1.0  0.57793  0.29348  0.35025  1.0000
  C   C964      1.0  0.54908  0.25296  0.23175  1.0000
  C   C965      1.0  0.62546  0.23311  0.25414  1.0000
  C   C966      1.0  0.62110  0.24443  0.22545  1.0000
  C   C967      1.0  0.62875  0.24295  0.19069  1.0000
  C   C968      1.0  0.64106  0.23042  0.18463  1.0000
  C   C969      1.0  0.64559  0.21930  0.21337  1.0000
  C   C970      1.0  0.63765  0.22053  0.24797  1.0000
  H   H1165     1.0  0.61182  0.25424  0.22985  1.0000
  H   H1166     1.0  0.62526  0.25159  0.16845  1.0000
  H   H1167     1.0  0.65503  0.20958  0.20887  1.0000
  H   H1168     1.0  0.64104  0.21172  0.27006  1.0000
  C   C971      1.0  0.59350  0.27011  0.46103  1.0000
  S   S274      1.0  0.59420  0.27885  0.27821  1.0000
  C   C972      1.0  0.60334  0.28035  0.44203  1.0000
  C   C973      1.0  0.53313  0.27595  0.30122  1.0000
  C   C974      1.0  0.51886  0.28303  0.28992  1.0000
  C   C975      1.0  0.50760  0.27415  0.29047  1.0000
  C   C976      1.0  0.51069  0.25799  0.30139  1.0000
  C   C977      1.0  0.52481  0.25095  0.31347  1.0000
  C   C978      1.0  0.53581  0.25993  0.31417  1.0000
  H   H1169     1.0  0.51661  0.29543  0.28004  1.0000
  H   H1170     1.0  0.64453  0.26319  0.37884  1.0000
  H   H1171     1.0  0.52732  0.23845  0.32195  1.0000
  H   H1172     1.0  0.54653  0.25442  0.32380  1.0000
  C   C979      1.0  0.72960  0.14268  0.09456  1.0000
  C   C980      1.0  0.55110  0.22493  0.24512  1.0000
  H   H1173     1.0  0.71969  0.26528  0.05541  1.0000
  H   H1174     1.0  0.51638  0.24279  0.21964  1.0000
  H   H1175     1.0  0.59710  0.22606  0.23711  1.0000
  C   C981      1.0  0.57302  0.22623  0.29099  1.0000
  C   C982      1.0  0.71144  0.25592  0.01806  1.0000
  C   C983      1.0  0.52803  0.24144  0.22524  1.0000
  C   C984      1.0  0.67922  0.27411  0.33976  1.0000
  C   C985      1.0  0.70018  0.18997  0.00324  1.0000
  C   C986      1.0  0.69636  0.14790  0.11163  1.0000
  H   H1176     1.0  0.63827  0.26022  0.28114  1.0000
  C   C987      1.0  0.67631  0.28948  0.34728  1.0000
  C   C988      1.0  0.58538  0.22796  0.22955  1.0000
  S   S275      1.0  0.58105  0.26400  0.44000  1.0000
  H   H1177     1.0  0.69901  0.15984  0.10358  1.0000
  C   C989      1.0  0.72278  0.27911  0.00309  1.0000
  Fe  Fe135     1.0  0.60181  0.29005  0.31649  1.0000
  S   S276      1.0  0.70302  0.17290  0.22221  1.0000
  C   C990      1.0  0.72038  0.15897  0.22468  1.0000
  C   C991      1.0  0.57105  0.30896  0.47530  1.0000
  H   H1178     1.0  0.55713  0.21322  0.25335  1.0000
  H   H1179     1.0  0.61903  0.29486  0.44561  1.0000
  H   H1180     1.0  0.63356  0.29021  0.23024  1.0000
  H   H1181     1.0  0.54964  0.30036  0.45511  1.0000
  C   C992      1.0  0.66787  0.26475  0.35121  1.0000
  Fe  Fe136     1.0  0.58642  0.26987  0.38056  1.0000
  N   N65       1.0  0.65341  0.27142  0.23732  1.0000
  C   C993      1.0  0.64024  0.27980  0.21878  1.0000
  C   C994      1.0  0.65964  0.25644  0.22415  1.0000
  C   C995      1.0  0.64726  0.26768  0.27582  1.0000
  C   C996      1.0  0.66521  0.28139  0.23151  1.0000
  C   C997      1.0  0.68113  0.27662  0.21659  1.0000
  C   C998      1.0  0.66087  0.29651  0.24051  1.0000
  C   C999      1.0  0.69183  0.28656  0.21053  1.0000
  H   H1182     1.0  0.52770  0.26602  0.21494  1.0000
  N   N66       1.0  0.49205  0.26055  0.42543  1.0000
  H   H1183     1.0  0.64443  0.28371  0.19005  1.0000
  C   C1000     1.0  0.68704  0.30149  0.21881  1.0000
  C   C1001     1.0  0.52856  0.25866  0.46403  1.0000
  H   H1184     1.0  0.58254  0.31158  0.47643  1.0000
  H   H1185     1.0  0.65867  0.30589  0.37572  1.0000
  H   H1186     1.0  0.58845  0.24882  0.26669  1.0000
  H   H1187     1.0  0.70306  0.30801  0.36179  1.0000
  H   H1188     1.0  0.69023  0.26899  0.32544  1.0000
  C   C1002     1.0  0.65336  0.27040  0.37010  1.0000
  H   H1189     1.0  0.68564  0.26534  0.20890  1.0000
  H   H1190     1.0  0.70443  0.11633  0.17499  1.0000
  H   H1191     1.0  0.70389  0.28274  0.19880  1.0000
  H   H1192     1.0  0.58399  0.22548  0.30112  1.0000
  H   H1193     1.0  0.52466  0.25920  0.41228  1.0000
  H   H1194     1.0  0.49199  0.25952  0.37072  1.0000
  H   H1195     1.0  0.53124  0.21655  0.23846  1.0000
  H   H1196     1.0  0.73244  0.16759  0.17296  1.0000
  H   H1197     1.0  0.56836  0.25765  0.27435  1.0000
  H   H1198     1.0  0.66397  0.25832  0.19497  1.0000
  H   H1199     1.0  0.58598  0.23492  0.20222  1.0000
  H   H1200     1.0  0.68451  0.30573  0.38849  1.0000
  H   H1201     1.0  0.72753  0.12153  0.17876  1.0000
  C   C1003     1.0  0.73301  0.15883  0.19660  1.0000
  H   H1202     1.0  0.72787  0.17090  0.28426  1.0000
  H   H1203     1.0  0.70997  0.30197  0.30097  1.0000
  C   C1004     1.0  0.50261  0.25997  0.45040  1.0000
  H   H1204     1.0  0.68685  0.12505  0.15847  1.0000
  H   H1205     1.0  0.67036  0.25300  0.34565  1.0000
  H   H1206     1.0  0.58334  0.21631  0.22826  1.0000
  H   H1207     1.0  0.73245  0.13532  0.38442  1.0000
  H   H1208     1.0  0.68636  0.24229  0.02303  1.0000
  N   N67       1.0  0.57307  0.23593  0.25502  1.0000
  C   C1005     1.0  0.55775  0.23805  0.24402  1.0000
  H   H1209     1.0  0.57212  0.21402  0.29154  1.0000
  N   N68       1.0  0.70511  0.13855  0.13987  1.0000
  H   H1210     1.0  0.72309  0.15019  0.07501  1.0000
  H   H1211     1.0  0.72670  0.18786  0.30290  1.0000
  H   H1212     1.0  0.70531  0.15814  0.16296  1.0000
  C   C1006     1.0  0.69978  0.12342  0.15120  1.0000
  C   C1007     1.0  0.57739  0.25084  0.25637  1.0000
  H   H1213     1.0  0.68351  0.14949  0.12072  1.0000
  C   C1008     1.0  0.49655  0.26027  0.48695  1.0000
  C   C1009     1.0  0.53639  0.22666  0.23620  1.0000
  H   H1214     1.0  0.69932  0.28889  0.38179  1.0000
  C   C1010     1.0  0.72225  0.13589  0.12847  1.0000
  C   C1011     1.0  0.66158  0.29463  0.36758  1.0000
  C   C1012     1.0  0.51896  0.25929  0.43953  1.0000
  H   H1215     1.0  0.70582  0.14024  0.19393  1.0000
  C   C1013     1.0  0.67158  0.30645  0.23376  1.0000
  H   H1216     1.0  0.63159  0.27231  0.22089  1.0000
  H   H1217     1.0  0.70351  0.11638  0.12954  1.0000
  H   H1218     1.0  0.66911  0.24911  0.23808  1.0000
  H   H1219     1.0  0.57363  0.29724  0.46780  1.0000
  H   H1220     1.0  0.50883  0.24826  0.38760  1.0000
  H   H1221     1.0  0.50632  0.26931  0.37641  1.0000
  C   C1014     1.0  0.73218  0.12658  0.15203  1.0000
  H   H1222     1.0  0.72715  0.21109  0.16622  1.0000
  H   H1223     1.0  0.69532  0.30924  0.21347  1.0000
  C   C1015     1.0  0.68630  0.20096  0.00384  1.0000
  H   H1224     1.0  0.52457  0.29388  0.45765  1.0000
  H   H1225     1.0  0.54103  0.25809  0.45526  1.0000
  H   H1226     1.0  0.69906  0.14233  0.08762  1.0000
  H   H1227     1.0  0.69811  0.29174  0.28665  1.0000
  H   H1228     1.0  0.73416  0.15007  0.32411  1.0000
  C   C1016     1.0  0.70181  0.29363  0.31052  1.0000
  H   H1229     1.0  0.60933  0.30849  0.36987  1.0000
  H   H1230     1.0  0.73347  0.19703  0.04975  1.0000
  H   H1231     1.0  0.63902  0.28958  0.39343  1.0000
  H   H1232     1.0  0.65055  0.24924  0.22891  1.0000
  C   C1017     1.0  0.68622  0.24566  0.99412  1.0000
  H   H1233     1.0  0.73522  0.12682  0.28088  1.0000
  H   H1234     1.0  0.73474  0.18718  0.25694  1.0000
  C   C1018     1.0  0.73473  0.21913  0.16475  1.0000
  C   C1019     1.0  0.54140  0.30112  0.47955  1.0000
  C   C1020     1.0  0.73473  0.13585  0.25758  1.0000
  C   C1021     1.0  0.73494  0.23214  0.13757  1.0000
  C   C1022     1.0  0.52696  0.29729  0.48062  1.0000
  C   C1023     1.0  0.73517  0.31283  0.31704  1.0000
  H   H1235     1.0  0.67529  0.31506  0.29818  1.0000
  H   H1236     1.0  0.66983  0.26461  0.78075  1.0000
  C   C1024     1.0  0.52507  0.23873  0.68304  1.0000
  S   S277      1.0  0.50600  0.26151  0.61078  1.0000
  H   H1237     1.0  0.69515  0.23979  0.92832  1.0000
  C   C1025     1.0  0.66694  0.30385  0.76173  1.0000
  H   H1238     1.0  0.57129  0.23486  0.73893  1.0000
  C   C1026     1.0  0.56782  0.29783  0.53724  1.0000
  H   H1239     1.0  0.71896  0.17722  0.97003  1.0000
  C   C1027     1.0  0.69431  0.19013  0.66040  1.0000
  Fe  Fe137     1.0  0.60850  0.27743  0.65477  1.0000
  S   S278      1.0  0.59117  0.29787  0.67251  1.0000
  S   S279      1.0  0.61527  0.25730  0.69805  1.0000
  H   H1240     1.0  0.52968  0.25822  0.51873  1.0000
  H   H1241     1.0  0.61763  0.30082  0.81350  1.0000
  Fe  Fe138     1.0  0.57879  0.29650  0.62914  1.0000
  S   S280      1.0  0.55219  0.30056  0.64004  1.0000
  H   H1242     1.0  0.73246  0.17238  0.76229  1.0000
  S   S281      1.0  0.59513  0.27499  0.61412  1.0000
  Fe  Fe139     1.0  0.69319  0.22359  0.76874  1.0000
  S   S282      1.0  0.68058  0.20541  0.80387  1.0000
  S   S283      1.0  0.68435  0.24424  0.72882  1.0000
  Fe  Fe140     1.0  0.72376  0.20808  0.79465  1.0000
  S   S284      1.0  0.71383  0.18859  0.83201  1.0000
  C   C1028     1.0  0.69161  0.18113  0.63719  1.0000
  Fe  Fe141     1.0  0.70219  0.18833  0.78654  1.0000
  S   S285      1.0  0.70157  0.16709  0.76481  1.0000
  Fe  Fe142     1.0  0.69342  0.20751  0.84606  1.0000
  S   S286      1.0  0.68084  0.21229  0.90057  1.0000
  S   S287      1.0  0.71382  0.20646  0.74834  1.0000
  S   S288      1.0  0.70436  0.22707  0.81174  1.0000
  C   C1029     1.0  0.52022  0.25227  0.69761  1.0000
  H   H1243     1.0  0.70896  0.18946  0.91396  1.0000
  C   C1030     1.0  0.72009  0.15821  0.74476  1.0000
  H   H1244     1.0  0.71124  0.14235  0.72331  1.0000
  C   C1031     1.0  0.65138  0.30829  0.75706  1.0000
  C   C1032     1.0  0.68861  0.20351  0.93958  1.0000
  S   S289      1.0  0.61996  0.29159  0.51969  1.0000
  C   C1033     1.0  0.63454  0.25359  0.70632  1.0000
  C   C1034     1.0  0.63914  0.24147  0.73357  1.0000
  C   C1035     1.0  0.65435  0.23855  0.74109  1.0000
  C   C1036     1.0  0.66502  0.24776  0.72138  1.0000
  C   C1037     1.0  0.66039  0.25992  0.69435  1.0000
  C   C1038     1.0  0.64524  0.26280  0.68679  1.0000
  H   H1245     1.0  0.63090  0.23435  0.74900  1.0000
  H   H1246     1.0  0.65777  0.22924  0.76222  1.0000
  H   H1247     1.0  0.66859  0.26710  0.67903  1.0000
  H   H1248     1.0  0.64188  0.27216  0.66585  1.0000
  C   C1039     1.0  0.51855  0.27272  0.61872  1.0000
  C   C1040     1.0  0.53475  0.26818  0.60852  1.0000
  C   C1041     1.0  0.54523  0.27645  0.61503  1.0000
  C   C1042     1.0  0.53960  0.28944  0.63178  1.0000
  C   C1043     1.0  0.52340  0.29401  0.64193  1.0000
  C   C1044     1.0  0.51292  0.28570  0.63551  1.0000
  H   H1249     1.0  0.53923  0.25812  0.59565  1.0000
  H   H1250     1.0  0.55763  0.27279  0.60689  1.0000
  C   C1045     1.0  0.70338  0.16947  0.62413  1.0000
  H   H1251     1.0  0.50050  0.28930  0.64361  1.0000
  C   C1046     1.0  0.71474  0.27744  0.72681  1.0000
  H   H1252     1.0  0.64022  0.31121  0.65004  1.0000
  H   H1253     1.0  0.60027  0.26850  0.54419  1.0000
  C   C1047     1.0  0.52223  0.25873  0.49977  1.0000
  H   H1254     1.0  0.56834  0.28570  0.53372  1.0000
  H   H1255     1.0  0.54734  0.28162  0.71012  1.0000
  H   H1256     1.0  0.67864  0.22715  0.67495  1.0000
  C   C1048     1.0  0.61556  0.29577  0.79165  1.0000
  C   C1049     1.0  0.68789  0.21735  0.66672  1.0000
  H   H1257     1.0  0.52636  0.26935  0.71886  1.0000
  H   H1258     1.0  0.66914  0.20896  0.63208  1.0000
  C   C1050     1.0  0.53090  0.25854  0.70904  1.0000
  C   C1051     1.0  0.56506  0.24604  0.74750  1.0000
  H   H1259     1.0  0.68044  0.23720  0.98714  1.0000
  H   H1260     1.0  0.50138  0.25968  0.53903  1.0000
  H   H1261     1.0  0.70633  0.27912  0.70952  1.0000
  H   H1262     1.0  0.62422  0.28075  0.73748  1.0000
  C   C1052     1.0  0.64190  0.29701  0.76109  1.0000
  C   C1053     1.0  0.62260  0.29362  0.72967  1.0000
  H   H1263     1.0  0.57995  0.29930  0.53633  1.0000
  C   C1054     1.0  0.59258  0.26574  0.49783  1.0000
  H   H1264     1.0  0.55566  0.24333  0.77027  1.0000
  H   H1265     1.0  0.66951  0.21574  0.97291  1.0000
  H   H1266     1.0  0.51891  0.30407  0.65480  1.0000
  H   H1267     1.0  0.69207  0.22051  0.63772  1.0000
  H   H1268     1.0  0.50819  0.25828  0.69865  1.0000
  H   H1269     1.0  0.56131  0.27704  0.73898  1.0000
  H   H1270     1.0  0.57372  0.25050  0.75741  1.0000
  H   H1271     1.0  0.71240  0.25336  0.74404  1.0000
  H   H1272     1.0  0.69585  0.30557  0.70041  1.0000
  N   N69       1.0  0.68215  0.20242  0.67525  1.0000
  H   H1273     1.0  0.66909  0.20651  0.72670  1.0000
  C   C1055     1.0  0.70041  0.24883  0.93476  1.0000
  H   H1274     1.0  0.50462  0.29434  0.51223  1.0000
  H   H1275     1.0  0.72943  0.20971  0.85683  1.0000
  H   H1276     1.0  0.63076  0.29619  0.70439  1.0000
  H   H1277     1.0  0.54286  0.27118  0.75497  1.0000
  H   H1278     1.0  0.68876  0.19682  0.72711  1.0000
  H   H1279     1.0  0.72415  0.23015  0.96726  1.0000
  C   C1056     1.0  0.70941  0.18667  0.66955  1.0000
  H   H1280     1.0  0.53509  0.30861  0.56407  1.0000
  C   C1057     1.0  0.53316  0.30569  0.54014  1.0000
  H   H1281     1.0  0.61813  0.28287  0.79951  1.0000
  H   H1282     1.0  0.65856  0.21485  0.67274  1.0000
  H   H1283     1.0  0.61055  0.29759  0.72388  1.0000
  C   C1058     1.0  0.71410  0.27015  0.95772  1.0000
  C   C1059     1.0  0.72211  0.28957  0.72958  1.0000
  C   C1060     1.0  0.70743  0.30761  0.68505  1.0000
  N   N70       1.0  0.62524  0.30124  0.75743  1.0000
  C   C1061     1.0  0.73623  0.27070  0.77301  1.0000
  H   H1284     1.0  0.66178  0.19485  0.66893  1.0000
  C   C1062     1.0  0.72156  0.14622  0.72553  1.0000
  H   H1285     1.0  0.69760  0.21699  0.68073  1.0000
  H   H1286     1.0  0.56693  0.26819  0.66534  1.0000
  H   H1287     1.0  0.71326  0.27199  0.92995  1.0000
  C   C1063     1.0  0.72080  0.28082  0.96800  1.0000
  H   H1288     1.0  0.67498  0.18626  0.72208  1.0000
  C   C1064     1.0  0.54059  0.23118  0.68043  1.0000
  C   C1065     1.0  0.72884  0.25910  0.76962  1.0000
  C   C1066     1.0  0.55134  0.23721  0.69219  1.0000
  C   C1067     1.0  0.73295  0.28572  0.75337  1.0000
  H   H1289     1.0  0.58503  0.25777  0.51254  1.0000
  C   C1068     1.0  0.71808  0.16646  0.63361  1.0000
  C   C1069     1.0  0.70914  0.25735  0.98258  1.0000
  N   N71       1.0  0.55857  0.25743  0.71828  1.0000
  C   C1070     1.0  0.67353  0.28817  0.77052  1.0000
  S   S290      1.0  0.62426  0.29198  0.61611  1.0000
  H   H1290     1.0  0.71220  0.19261  0.68797  1.0000
  N   N72       1.0  0.56020  0.30929  0.50974  1.0000
  H   H1291     1.0  0.58023  0.26543  0.69573  1.0000
  H   H1292     1.0  0.54431  0.22071  0.66876  1.0000
  H   H1293     1.0  0.56324  0.23093  0.68953  1.0000
  C   C1071     1.0  0.54687  0.25117  0.70657  1.0000
  N   N73       1.0  0.71903  0.30550  0.70869  1.0000
  C   C1072     1.0  0.70263  0.19270  0.93889  1.0000
  C   C1073     1.0  0.67854  0.19785  0.71437  1.0000
  C   C1074     1.0  0.57148  0.26016  0.68830  1.0000
  H   H1294     1.0  0.68556  0.28475  0.77436  1.0000
  C   C1075     1.0  0.55216  0.27244  0.73122  1.0000
  H   H1295     1.0  0.70106  0.16257  0.60688  1.0000
  H   H1296     1.0  0.56152  0.29896  0.56452  1.0000
  C   C1076     1.0  0.54492  0.30551  0.50942  1.0000
  H   H1297     1.0  0.71145  0.29981  0.66495  1.0000
  Fe  Fe143     1.0  0.60928  0.29161  0.57709  1.0000
  H   H1298     1.0  0.57808  0.24928  0.67890  1.0000
  C   C1077     1.0  0.60109  0.27191  0.51582  1.0000
  H   H1299     1.0  0.72779  0.22379  0.90554  1.0000
  H   H1300     1.0  0.68049  0.18273  0.62902  1.0000
  H   H1301     1.0  0.67863  0.25737  0.98978  1.0000
  C   C1078     1.0  0.66462  0.27684  0.77430  1.0000
  C   C1079     1.0  0.70829  0.18582  0.97070  1.0000
  C   C1080     1.0  0.71810  0.26247  0.74664  1.0000
  C   C1081     1.0  0.66730  0.20533  0.66147  1.0000
  C   C1082     1.0  0.51571  0.29756  0.51127  1.0000
  H   H1302     1.0  0.71190  0.24865  0.91696  1.0000
  C   C1083     1.0  0.71183  0.23007  0.98026  1.0000
  H   H1303     1.0  0.69275  0.26025  0.92751  1.0000
  C   C1084     1.0  0.68046  0.20756  0.97217  1.0000
  H   H1304     1.0  0.64272  0.27184  0.77249  1.0000
  H   H1305     1.0  0.51681  0.23431  0.67299  1.0000
  C   C1085     1.0  0.73372  0.30924  0.68601  1.0000
  N   N74       1.0  0.70205  0.24576  0.97280  1.0000
  H   H1306     1.0  0.72462  0.29040  0.94844  1.0000
  C   C1086     1.0  0.64907  0.28112  0.76955  1.0000
  C   C1087     1.0  0.50626  0.25958  0.51116  1.0000
  H   H1307     1.0  0.73244  0.17250  0.66412  1.0000
  C   C1088     1.0  0.61049  0.28256  0.49711  1.0000
  H   H1308     1.0  0.72710  0.15723  0.62401  1.0000
  C   C1089     1.0  0.72110  0.17511  0.65609  1.0000
  C   C1090     1.0  0.73634  0.13931  0.70896  1.0000
  H   H1309     1.0  0.60289  0.29909  0.79025  1.0000
  H   H1310     1.0  0.73149  0.24744  0.78470  1.0000
  H   H1311     1.0  0.67388  0.31273  0.75830  1.0000
  H   H1312     1.0  0.70781  0.22119  0.97020  1.0000
  H   H1313     1.0  0.51009  0.30177  0.56490  1.0000
  C   C1091     1.0  0.73345  0.16320  0.74746  1.0000
  H   H1314     1.0  0.66361  0.31278  0.67294  1.0000
  C   C1092     1.0  0.51880  0.30177  0.54093  1.0000
  Fe  Fe144     1.0  0.60611  0.31227  0.63097  1.0000
  S   S291      1.0  0.59206  0.31304  0.58916  1.0000
  C   C1093     1.0  0.73659  0.22534  0.88213  1.0000
  H   H1315     1.0  0.70212  0.31446  0.75104  1.0000
  H   H1316     1.0  0.73741  0.13004  0.69432  1.0000
  H   H1317     1.0  0.65610  0.31325  0.50181  1.0000
  C   C1094     1.0  0.73752  0.21735  0.85448  1.0000
  H   H1318     1.0  0.73735  0.19064  0.99008  1.0000
  Fe  Fe145     1.0  0.67413  0.38568  0.36571  1.0000
  S   S292      1.0  0.69876  0.37244  0.36379  1.0000
  S   S293      1.0  0.66707  0.41207  0.36105  1.0000
  Fe  Fe146     1.0  0.66051  0.35558  0.37784  1.0000
  S   S294      1.0  0.68417  0.34052  0.37684  1.0000
  S   S295      1.0  0.63997  0.34302  0.39385  1.0000
  Fe  Fe147     1.0  0.68846  0.35602  0.41016  1.0000
  S   S296      1.0  0.69795  0.34413  0.45974  1.0000
  Fe  Fe148     1.0  0.69192  0.35823  0.33065  1.0000
  S   S297      1.0  0.70599  0.35173  0.27893  1.0000
  S   S298      1.0  0.66431  0.37009  0.41452  1.0000
  S   S299      1.0  0.66779  0.37254  0.32916  1.0000
  Fe  Fe149     1.0  0.71506  0.51892  0.32547  1.0000
  S   S300      1.0  0.69437  0.50939  0.32057  1.0000
  H   H1319     1.0  0.71047  0.61302  0.25269  1.0000
  Fe  Fe150     1.0  0.71461  0.50186  0.40277  1.0000
  S   S301      1.0  0.69381  0.49177  0.40333  1.0000
  H   H1320     1.0  0.68209  0.45251  0.27568  1.0000
  Fe  Fe151     1.0  0.70569  0.48641  0.34966  1.0000
  S   S302      1.0  0.71107  0.46174  0.33691  1.0000
  Fe  Fe152     1.0  0.68440  0.51552  0.37465  1.0000
  S   S303      1.0  0.65979  0.52725  0.39401  1.0000
  H   H1321     1.0  0.54052  0.57613  0.33544  1.0000
  S   S304      1.0  0.70429  0.52614  0.37845  1.0000
  S   S305      1.0  0.59922  0.63025  0.33904  1.0000
  C   C1095     1.0  0.72650  0.43531  0.47453  1.0000
  N   N75       1.0  0.71922  0.43785  0.44260  1.0000
  S   S306      1.0  0.60612  0.60553  0.41179  1.0000
  H   H1322     1.0  0.71752  0.41408  0.44299  1.0000
  Fe  Fe153     1.0  0.61966  0.61289  0.35783  1.0000
  S   S307      1.0  0.63602  0.59691  0.32268  1.0000
  S   S308      1.0  0.51464  0.60480  0.33155  1.0000
  H   H1323     1.0  0.60715  0.58868  0.35350  1.0000
  C   C1096     1.0  0.71002  0.51845  0.48282  1.0000
  Fe  Fe154     1.0  0.61480  0.62425  0.42763  1.0000
  H   H1324     1.0  0.49183  0.63495  0.32594  1.0000
  H   H1325     1.0  0.68691  0.63223  0.37981  1.0000
  C   C1097     1.0  0.60289  0.55909  0.36000  1.0000
  H   H1326     1.0  0.57750  0.56750  0.40770  1.0000
  H   H1327     1.0  0.61049  0.55694  0.33440  1.0000
  H   H1328     1.0  0.59066  0.59780  0.33226  1.0000
  H   H1329     1.0  0.64864  0.34533  0.46504  1.0000
  S   S309      1.0  0.59420  0.64256  0.41494  1.0000
  C   C1098     1.0  0.54831  0.61744  0.39031  1.0000
  C   C1099     1.0  0.55308  0.61489  0.35528  1.0000
  C   C1100     1.0  0.54255  0.61133  0.33739  1.0000
  C   C1101     1.0  0.52726  0.61004  0.35447  1.0000
  C   C1102     1.0  0.52239  0.61298  0.38918  1.0000
  C   C1103     1.0  0.53282  0.61686  0.40676  1.0000
  H   H1330     1.0  0.56487  0.61560  0.34200  1.0000
  H   H1331     1.0  0.54635  0.60933  0.31031  1.0000
  H   H1332     1.0  0.48840  0.64674  0.28417  1.0000
  H   H1333     1.0  0.60644  0.58452  0.31163  1.0000
  H   H1334     1.0  0.59272  0.57743  0.40781  1.0000
  H   H1335     1.0  0.72932  0.56477  0.23028  1.0000
  H   H1336     1.0  0.70393  0.52201  0.46042  1.0000
  C   C1104     1.0  0.65398  0.54678  0.37429  1.0000
  C   C1105     1.0  0.64269  0.55672  0.39400  1.0000
  C   C1106     1.0  0.63745  0.57221  0.37866  1.0000
  C   C1107     1.0  0.64306  0.57773  0.34309  1.0000
  C   C1108     1.0  0.65427  0.56774  0.32323  1.0000
  C   C1109     1.0  0.65992  0.55238  0.33894  1.0000
  H   H1337     1.0  0.63813  0.55245  0.42140  1.0000
  H   H1338     1.0  0.62902  0.57978  0.39442  1.0000
  H   H1339     1.0  0.65867  0.57187  0.29565  1.0000
  H   H1340     1.0  0.66860  0.54475  0.32350  1.0000
  H   H1341     1.0  0.56625  0.31764  0.45348  1.0000
  C   C1110     1.0  0.61811  0.31555  0.35854  1.0000
  H   H1342     1.0  0.61785  0.32282  0.40787  1.0000
  H   H1343     1.0  0.69372  0.37785  0.44920  1.0000
  C   C1111     1.0  0.71821  0.39202  0.27875  1.0000
  C   C1112     1.0  0.63423  0.33307  0.36566  1.0000
  C   C1113     1.0  0.63991  0.34129  0.48806  1.0000
  H   H1344     1.0  0.57566  0.58831  0.39137  1.0000
  H   H1345     1.0  0.65945  0.61778  0.31711  1.0000
  C   C1114     1.0  0.63584  0.32605  0.30807  1.0000
  C   C1115     1.0  0.64069  0.33419  0.32956  1.0000
  C   C1116     1.0  0.73158  0.63174  0.21730  1.0000
  C   C1117     1.0  0.72010  0.33441  0.28210  1.0000
  S   S310      1.0  0.56134  0.62060  0.41531  1.0000
  H   H1346     1.0  0.64919  0.34157  0.31809  1.0000
  C   C1118     1.0  0.67951  0.42538  0.35813  1.0000
  C   C1119     1.0  0.69574  0.42091  0.35183  1.0000
  C   C1120     1.0  0.70522  0.43217  0.34567  1.0000
  C   C1121     1.0  0.69862  0.44791  0.34717  1.0000
  C   C1122     1.0  0.68241  0.45225  0.35520  1.0000
  C   C1123     1.0  0.67292  0.44107  0.36016  1.0000
  H   H1347     1.0  0.70095  0.40888  0.35060  1.0000
  H   H1348     1.0  0.71774  0.42870  0.33914  1.0000
  H   H1349     1.0  0.67716  0.46432  0.35630  1.0000
  H   H1350     1.0  0.66037  0.44464  0.36508  1.0000
  H   H1351     1.0  0.69352  0.63608  0.26678  1.0000
  N   N76       1.0  0.70666  0.40188  0.25704  1.0000
  H   H1352     1.0  0.67256  0.32183  0.33926  1.0000
  C   C1124     1.0  0.71119  0.39841  0.22045  1.0000
  H   H1353     1.0  0.50943  0.57048  0.45538  1.0000
  C   C1125     1.0  0.70634  0.41858  0.25618  1.0000
  C   C1126     1.0  0.52556  0.58345  0.46348  1.0000
  H   H1354     1.0  0.66040  0.60891  0.26238  1.0000
  C   C1127     1.0  0.62294  0.32372  0.38000  1.0000
  H   H1355     1.0  0.68222  0.40346  0.25642  1.0000
  C   C1128     1.0  0.69974  0.35689  0.48645  1.0000
  H   H1356     1.0  0.70425  0.42841  0.41943  1.0000
  H   H1357     1.0  0.73119  0.44466  0.23688  1.0000
  C   C1129     1.0  0.69140  0.39714  0.27232  1.0000
  Fe  Fe155     1.0  0.48953  0.60239  0.35522  1.0000
  H   H1358     1.0  0.65946  0.62852  0.23931  1.0000
  C   C1130     1.0  0.66756  0.62581  0.30323  1.0000
  C   C1131     1.0  0.59912  0.58672  0.33750  1.0000
  C   C1132     1.0  0.69246  0.42918  0.26664  1.0000
  H   H1359     1.0  0.71881  0.33165  0.33861  1.0000
  H   H1360     1.0  0.56408  0.63806  0.46831  1.0000
  C   C1133     1.0  0.51236  0.57668  0.47325  1.0000
  C   C1134     1.0  0.70663  0.45029  0.25574  1.0000
  C   C1135     1.0  0.72037  0.44030  0.24473  1.0000
  H   H1361     1.0  0.68131  0.42566  0.27650  1.0000
  H   H1362     1.0  0.69262  0.63089  0.22520  1.0000
  H   H1363     1.0  0.59726  0.56678  0.28881  1.0000
  C   C1136     1.0  0.68180  0.64411  0.36951  1.0000
  N   N77       1.0  0.59108  0.57370  0.35602  1.0000
  H   H1364     1.0  0.67047  0.59322  0.31214  1.0000
  C   C1137     1.0  0.70852  0.45320  0.43912  1.0000
  H   H1365     1.0  0.72187  0.62881  0.02177  1.0000
  H   H1366     1.0  0.68809  0.56869  0.32823  1.0000
  H   H1367     1.0  0.55042  0.56954  0.27566  1.0000
  H   H1368     1.0  0.68741  0.39922  0.30017  1.0000
  C   C1138     1.0  0.71003  0.42584  0.44317  1.0000
  C   C1139     1.0  0.58500  0.56864  0.30015  1.0000
  H   H1369     1.0  0.71585  0.39502  0.30577  1.0000
  N   N78       1.0  0.67768  0.62052  0.27105  1.0000
  H   H1370     1.0  0.53294  0.58242  0.43792  1.0000
  H   H1371     1.0  0.70240  0.45520  0.41604  1.0000
  Fe  Fe156     1.0  0.58641  0.62430  0.39477  1.0000
  C   C1140     1.0  0.72724  0.32807  0.25145  1.0000
  H   H1372     1.0  0.66778  0.31813  0.23980  1.0000
  C   C1141     1.0  0.57453  0.56756  0.27922  1.0000
  H   H1373     1.0  0.57880  0.56485  0.25274  1.0000
  H   H1374     1.0  0.71794  0.37939  0.28203  1.0000
  H   H1375     1.0  0.72421  0.33396  0.22597  1.0000
  H   H1376     1.0  0.69206  0.38452  0.27295  1.0000
  H   H1377     1.0  0.67723  0.64452  0.24477  1.0000
  H   H1378     1.0  0.55818  0.57812  0.37263  1.0000
  C   C1142     1.0  0.73496  0.63127  0.15429  1.0000
  C   C1143     1.0  0.57975  0.57229  0.33481  1.0000
  H   H1379     1.0  0.70681  0.46224  0.25702  1.0000
  H   H1380     1.0  0.59726  0.54880  0.37138  1.0000
  H   H1381     1.0  0.72674  0.43879  0.38617  1.0000
  H   H1382     1.0  0.70289  0.40570  0.20315  1.0000
  H   H1383     1.0  0.61102  0.55939  0.37774  1.0000
  H   H1384     1.0  0.72924  0.64470  0.05648  1.0000
  H   H1385     1.0  0.69947  0.45416  0.46333  1.0000
  C   C1144     1.0  0.73160  0.43770  0.41068  1.0000
  C   C1145     1.0  0.70878  0.57715  0.30050  1.0000
  H   H1386     1.0  0.71472  0.46312  0.43440  1.0000
  C   C1146     1.0  0.56337  0.57488  0.34709  1.0000
  C   C1147     1.0  0.55856  0.57016  0.29207  1.0000
  H   H1387     1.0  0.73613  0.45668  0.45915  1.0000
  H   H1388     1.0  0.67468  0.62670  0.32252  1.0000
  H   H1389     1.0  0.69657  0.39542  0.48780  1.0000
  C   C1148     1.0  0.72161  0.50501  0.48450  1.0000
  H   H1390     1.0  0.73404  0.62622  0.24347  1.0000
  H   H1391     1.0  0.73121  0.41743  0.23586  1.0000
  H   H1392     1.0  0.70056  0.42529  0.46677  1.0000
  H   H1393     1.0  0.51063  0.61221  0.40257  1.0000
  S   S311      1.0  0.72239  0.53736  0.27818  1.0000
  S   S312      1.0  0.72723  0.49544  0.35016  1.0000
  H   H1394     1.0  0.67485  0.61332  0.22418  1.0000
  H   H1395     1.0  0.63536  0.33227  0.47967  1.0000
  H   H1396     1.0  0.69018  0.32295  0.30897  1.0000
  H   H1397     1.0  0.73038  0.39323  0.26673  1.0000
  H   H1398     1.0  0.71131  0.38593  0.22018  1.0000
  C   C1149     1.0  0.66767  0.61771  0.24824  1.0000
  C   C1150     1.0  0.72026  0.42471  0.24460  1.0000
  C   C1151     1.0  0.73751  0.62390  0.18845  1.0000
  H   H1399     1.0  0.71646  0.56614  0.30758  1.0000
  S   S313      1.0  0.62982  0.63028  0.37480  1.0000
  H   H1400     1.0  0.53697  0.64778  0.33224  1.0000
  C   C1152     1.0  0.58382  0.57685  0.39227  1.0000
  C   C1153     1.0  0.69269  0.44478  0.26627  1.0000
  H   H1401     1.0  0.72735  0.58841  0.26987  1.0000
  C   C1154     1.0  0.55301  0.57378  0.32590  1.0000
  C   C1155     1.0  0.68565  0.63349  0.25115  1.0000
  C   C1156     1.0  0.69705  0.37303  0.47490  1.0000
  H   H1402     1.0  0.52885  0.61929  0.43342  1.0000
  C   C1157     1.0  0.68858  0.60584  0.28130  1.0000
  C   C1158     1.0  0.70498  0.60388  0.26959  1.0000
  C   C1159     1.0  0.68280  0.59274  0.30280  1.0000
  C   C1160     1.0  0.71487  0.58973  0.27925  1.0000
  C   C1161     1.0  0.69277  0.57863  0.31218  1.0000
  H   H1403     1.0  0.66002  0.63740  0.29668  1.0000
  C   C1162     1.0  0.72410  0.32676  0.31490  1.0000
  C   C1163     1.0  0.72284  0.64683  0.21200  1.0000
  S   S314      1.0  0.72605  0.49315  0.45167  1.0000
  H   H1404     1.0  0.64067  0.32722  0.28008  1.0000
  H   H1405     1.0  0.73783  0.44760  0.40603  1.0000
  H   H1406     1.0  0.69996  0.64618  0.32357  1.0000
  H   H1407     1.0  0.72304  0.40060  0.20792  1.0000
  H   H1408     1.0  0.53949  0.59684  0.47660  1.0000
  H   H1409     1.0  0.66256  0.64500  0.41220  1.0000
  H   H1410     1.0  0.51095  0.64157  0.34592  1.0000
  C   C1164     1.0  0.52910  0.59188  0.48601  1.0000
  C   C1165     1.0  0.72546  0.64596  0.14940  1.0000
  H   H1411     1.0  0.70735  0.64522  0.00800  1.0000
  C   C1166     1.0  0.71975  0.63943  0.00131  1.0000
  C   C1167     1.0  0.73489  0.44630  0.47888  1.0000
  S   S315      1.0  0.62515  0.61746  0.47783  1.0000
  C   C1168     1.0  0.62451  0.31673  0.32243  1.0000
  Fe  Fe157     1.0  0.60854  0.64714  0.36028  1.0000
  C   C1169     1.0  0.68126  0.31546  0.32002  1.0000
  H   H1412     1.0  0.64793  0.36650  0.49015  1.0000
  C   C1170     1.0  0.66531  0.36840  0.55717  1.0000
  C   C1171     1.0  0.70960  0.55845  0.73997  1.0000
  H   H1413     1.0  0.70250  0.47717  0.52328  1.0000
  S   S316      1.0  0.61228  0.33455  0.63761  1.0000
  S   S317      1.0  0.71982  0.50237  0.72424  1.0000
  H   H1414     1.0  0.72172  0.35148  0.76259  1.0000
  Fe  Fe158     1.0  0.71458  0.52249  0.62836  1.0000
  S   S318      1.0  0.69793  0.50795  0.66323  1.0000
  S   S319      1.0  0.70853  0.53370  0.57419  1.0000
  Fe  Fe159     1.0  0.69982  0.52033  0.70592  1.0000
  S   S320      1.0  0.68021  0.53134  0.74469  1.0000
  Fe  Fe160     1.0  0.71945  0.49136  0.67776  1.0000
  S   S321      1.0  0.72526  0.46598  0.66996  1.0000
  S   S322      1.0  0.71455  0.53648  0.66990  1.0000
  H   H1415     1.0  0.50311  0.62198  0.52904  1.0000
  Fe  Fe161     1.0  0.70287  0.37848  0.61570  1.0000
  S   S323      1.0  0.67961  0.38367  0.65062  1.0000
  S   S324      1.0  0.70456  0.38932  0.55764  1.0000
  Fe  Fe162     1.0  0.71871  0.36070  0.67897  1.0000
  S   S325      1.0  0.69667  0.36497  0.71791  1.0000
  C   C1172     1.0  0.65882  0.37286  0.52633  1.0000
  Fe  Fe163     1.0  0.68533  0.35873  0.67797  1.0000
  S   S326      1.0  0.67305  0.33800  0.69244  1.0000
  Fe  Fe164     1.0  0.69355  0.38943  0.68628  1.0000
  S   S327      1.0  0.68639  0.41109  0.71215  1.0000
  S   S328      1.0  0.70775  0.35327  0.64054  1.0000
  S   S329      1.0  0.71648  0.38541  0.64979  1.0000
  Fe  Fe165     1.0  0.59190  0.62402  0.71893  1.0000
  S   S330      1.0  0.60228  0.61884  0.66495  1.0000
  S   S331      1.0  0.56653  0.62160  0.74015  1.0000
  Fe  Fe166     1.0  0.62409  0.60772  0.68645  1.0000
  S   S332      1.0  0.63588  0.58627  0.66326  1.0000
  C   C1173     1.0  0.69579  0.57819  0.77549  1.0000
  S   S333      1.0  0.61319  0.61090  0.74217  1.0000
  H   H1416     1.0  0.72065  0.46062  0.60180  1.0000
  S   S334      1.0  0.52270  0.59334  0.67148  1.0000
  C   C1174     1.0  0.55434  0.61485  0.71865  1.0000
  C   C1175     1.0  0.53817  0.61717  0.73119  1.0000
  C   C1176     1.0  0.52824  0.61106  0.71644  1.0000
  C   C1177     1.0  0.53442  0.60237  0.68921  1.0000
  C   C1178     1.0  0.55056  0.60029  0.67622  1.0000
  C   C1179     1.0  0.56044  0.60655  0.69072  1.0000
  C   C1180     1.0  0.65507  0.32322  0.66691  1.0000
  S   S335      1.0  0.63408  0.62950  0.67260  1.0000
  H   H1417     1.0  0.55549  0.59345  0.65543  1.0000
  H   H1418     1.0  0.57284  0.60447  0.68122  1.0000
  H   H1419     1.0  0.67025  0.37659  0.56610  1.0000
  H   H1420     1.0  0.68158  0.45853  0.64238  1.0000
  H   H1421     1.0  0.71038  0.32908  0.71810  1.0000
  Fe  Fe167     1.0  0.73464  0.51811  0.68612  1.0000
  H   H1422     1.0  0.62461  0.62545  0.59745  1.0000
  C   C1181     1.0  0.66771  0.54661  0.72258  1.0000
  C   C1182     1.0  0.66827  0.54802  0.68613  1.0000
  C   C1183     1.0  0.65828  0.56018  0.66849  1.0000
  C   C1184     1.0  0.64815  0.57136  0.68679  1.0000
  C   C1185     1.0  0.64769  0.57013  0.72323  1.0000
  C   C1186     1.0  0.65727  0.55755  0.74126  1.0000
  H   H1423     1.0  0.67627  0.53963  0.67155  1.0000
  H   H1424     1.0  0.65860  0.56106  0.64042  1.0000
  H   H1425     1.0  0.63987  0.57872  0.73756  1.0000
  H   H1426     1.0  0.65677  0.55644  0.76954  1.0000
  C   C1187     1.0  0.71371  0.45136  0.68135  1.0000
  C   C1188     1.0  0.69973  0.45250  0.70566  1.0000
  C   C1189     1.0  0.69147  0.44009  0.71493  1.0000
  C   C1190     1.0  0.69697  0.42659  0.69959  1.0000
  C   C1191     1.0  0.71075  0.42570  0.67464  1.0000
  C   C1192     1.0  0.71913  0.43791  0.66593  1.0000
  H   H1427     1.0  0.69547  0.46276  0.71788  1.0000
  H   H1428     1.0  0.68080  0.44094  0.73419  1.0000
  H   H1429     1.0  0.71503  0.41562  0.66204  1.0000
  H   H1430     1.0  0.62050  0.32472  0.76823  1.0000
  C   C1193     1.0  0.63027  0.33556  0.64816  1.0000
  H   H1431     1.0  0.72177  0.47966  0.57738  1.0000
  C   C1194     1.0  0.72233  0.63740  0.76072  1.0000
  C   C1195     1.0  0.65724  0.33755  0.67240  1.0000
  C   C1196     1.0  0.64617  0.35096  0.66445  1.0000
  C   C1197     1.0  0.63268  0.34993  0.65267  1.0000
  H   H1432     1.0  0.70584  0.45099  0.53692  1.0000
  H   H1433     1.0  0.57279  0.62231  0.62233  1.0000
  H   H1434     1.0  0.64769  0.36205  0.66864  1.0000
  H   H1435     1.0  0.62390  0.36029  0.64776  1.0000
  N   N79       1.0  0.52216  0.60348  0.54277  1.0000
  C   C1198     1.0  0.73480  0.33753  0.80250  1.0000
  H   H1436     1.0  0.67104  0.34983  0.59979  1.0000
  C   C1199     1.0  0.69873  0.38296  0.49670  1.0000
  C   C1200     1.0  0.69424  0.45762  0.58788  1.0000
  C   C1201     1.0  0.71383  0.52258  0.53982  1.0000
  H   H1437     1.0  0.53235  0.62022  0.50127  1.0000
  H   H1438     1.0  0.73159  0.50567  0.56375  1.0000
  H   H1439     1.0  0.65925  0.60341  0.57740  1.0000
  H   H1440     1.0  0.66504  0.58296  0.50367  1.0000
  H   H1441     1.0  0.51587  0.61271  0.72680  1.0000
  C   C1202     1.0  0.70551  0.36064  0.54165  1.0000
  C   C1203     1.0  0.65292  0.34675  0.53305  1.0000
  C   C1204     1.0  0.72458  0.42799  0.77145  1.0000
  H   H1442     1.0  0.70891  0.35574  0.56712  1.0000
  S   S336      1.0  0.59964  0.64712  0.70914  1.0000
  C   C1205     1.0  0.69850  0.44778  0.56198  1.0000
  N   N80       1.0  0.59424  0.56699  0.72223  1.0000
  C   C1206     1.0  0.59944  0.57895  0.73564  1.0000
  C   C1207     1.0  0.60285  0.55153  0.73672  1.0000
  C   C1208     1.0  0.59881  0.56983  0.68295  1.0000
  C   C1209     1.0  0.57725  0.56730  0.73226  1.0000
  C   C1210     1.0  0.56726  0.57701  0.75553  1.0000
  C   C1211     1.0  0.57018  0.55759  0.71877  1.0000
  C   C1212     1.0  0.55118  0.57741  0.76333  1.0000
  C   C1213     1.0  0.55407  0.55822  0.72648  1.0000
  C   C1214     1.0  0.50621  0.58643  0.52867  1.0000
  H   H1443     1.0  0.59757  0.57695  0.76517  1.0000
  H   H1444     1.0  0.61213  0.57886  0.72648  1.0000
  H   H1445     1.0  0.59322  0.59089  0.72598  1.0000
  H   H1446     1.0  0.61572  0.55101  0.73039  1.0000
  H   H1447     1.0  0.60050  0.54199  0.72572  1.0000
  H   H1448     1.0  0.59955  0.54884  0.76615  1.0000
  H   H1449     1.0  0.59235  0.58122  0.67092  1.0000
  H   H1450     1.0  0.61147  0.57007  0.67467  1.0000
  H   H1451     1.0  0.59674  0.56063  0.67047  1.0000
  H   H1452     1.0  0.57144  0.58484  0.76723  1.0000
  H   H1453     1.0  0.57705  0.54955  0.70184  1.0000
  H   H1454     1.0  0.54374  0.58535  0.78007  1.0000
  C   C1215     1.0  0.73287  0.64661  0.88181  1.0000
  C   C1216     1.0  0.69191  0.57419  0.52677  1.0000
  C   C1217     1.0  0.70289  0.37676  0.53021  1.0000
  C   C1218     1.0  0.50783  0.61491  0.55287  1.0000
  H   H1455     1.0  0.66037  0.33103  0.57990  1.0000
  H   H1456     1.0  0.70962  0.58762  0.80314  1.0000
  H   H1457     1.0  0.62516  0.33841  0.55683  1.0000
  H   H1458     1.0  0.70611  0.33825  0.52874  1.0000
  C   C1219     1.0  0.69005  0.60455  0.78998  1.0000
  C   C1220     1.0  0.72546  0.50919  0.54142  1.0000
  H   H1459     1.0  0.53333  0.62350  0.75292  1.0000
  C   C1221     1.0  0.65997  0.32204  0.51256  1.0000
  C   C1222     1.0  0.73213  0.34310  0.76744  1.0000
  H   H1460     1.0  0.68318  0.48353  0.54652  1.0000
  C   C1223     1.0  0.61121  0.64393  0.50697  1.0000
  H   H1461     1.0  0.55133  0.32592  0.54556  1.0000
  H   H1462     1.0  0.69736  0.49342  0.60244  1.0000
  C   C1224     1.0  0.70622  0.52725  0.51030  1.0000
  H   H1463     1.0  0.71960  0.40514  0.78535  1.0000
  H   H1464     1.0  0.51722  0.58662  0.59027  1.0000
  H   H1465     1.0  0.69848  0.49401  0.54289  1.0000
  C   C1225     1.0  0.57472  0.63330  0.54904  1.0000
  H   H1466     1.0  0.69615  0.63349  0.71171  1.0000
  C   C1226     1.0  0.56177  0.64294  0.56674  1.0000
  H   H1467     1.0  0.72340  0.62482  0.71748  1.0000
  H   H1468     1.0  0.73175  0.32087  0.66858  1.0000
  H   H1469     1.0  0.65448  0.63741  0.81945  1.0000
  C   C1227     1.0  0.67270  0.59726  0.75964  1.0000
  H   H1470     1.0  0.73566  0.61352  0.80681  1.0000
  S   S337      1.0  0.73615  0.50554  0.64080  1.0000
  H   H1471     1.0  0.69302  0.61318  0.80177  1.0000
  H   H1472     1.0  0.73201  0.40962  0.55181  1.0000
  C   C1228     1.0  0.71992  0.56008  0.79051  1.0000
  Fe  Fe168     1.0  0.62207  0.63369  0.72764  1.0000
  C   C1229     1.0  0.72939  0.50049  0.51375  1.0000
  H   H1473     1.0  0.71829  0.39548  0.71637  1.0000
  H   H1474     1.0  0.72310  0.46412  0.55421  1.0000
  C   C1230     1.0  0.70400  0.35073  0.51979  1.0000
  C   C1231     1.0  0.68500  0.45216  0.62058  1.0000
  C   C1232     1.0  0.68020  0.43785  0.62650  1.0000
  C   C1233     1.0  0.50286  0.57796  0.50602  1.0000
  N   N81       1.0  0.67637  0.57660  0.54983  1.0000
  C   C1234     1.0  0.71301  0.31697  0.73303  1.0000
  C   C1235     1.0  0.67090  0.56155  0.56076  1.0000
  H   H1475     1.0  0.69726  0.53762  0.50877  1.0000
  C   C1236     1.0  0.67753  0.58233  0.58185  1.0000
  C   C1237     1.0  0.66802  0.59623  0.59213  1.0000
  C   C1238     1.0  0.68822  0.57370  0.60438  1.0000
  N   N82       1.0  0.64695  0.33505  0.52066  1.0000
  C   C1239     1.0  0.68934  0.57866  0.63512  1.0000
  C   C1240     1.0  0.67985  0.59233  0.64440  1.0000
  C   C1241     1.0  0.52657  0.59305  0.57543  1.0000
  C   C1242     1.0  0.65965  0.34261  0.56436  1.0000
  H   H1476     1.0  0.64716  0.32065  0.74993  1.0000
  H   H1477     1.0  0.67875  0.55259  0.57654  1.0000
  H   H1478     1.0  0.72725  0.56864  0.77528  1.0000
  H   H1479     1.0  0.65911  0.56296  0.57752  1.0000
  C   C1243     1.0  0.66576  0.35330  0.57609  1.0000
  Fe  Fe169     1.0  0.49604  0.59659  0.68174  1.0000
  H   H1480     1.0  0.55155  0.33398  0.49928  1.0000
  C   C1244     1.0  0.67668  0.60828  0.77460  1.0000
  C   C1245     1.0  0.72691  0.41248  0.76705  1.0000
  H   H1481     1.0  0.69683  0.58504  0.51962  1.0000
  H   H1482     1.0  0.58469  0.62726  0.56126  1.0000
  C   C1246     1.0  0.73288  0.41988  0.53136  1.0000
  H   H1483     1.0  0.72727  0.54831  0.78876  1.0000
  H   H1484     1.0  0.72155  0.31709  0.74984  1.0000
  H   H1485     1.0  0.69248  0.55318  0.82676  1.0000
  C   C1247     1.0  0.69327  0.48208  0.60918  1.0000
  C   C1248     1.0  0.57540  0.63153  0.51406  1.0000
  C   C1249     1.0  0.51921  0.59403  0.51894  1.0000
  C   C1250     1.0  0.69582  0.48212  0.54702  1.0000
  H   H1486     1.0  0.52888  0.59967  0.59425  1.0000
  H   H1487     1.0  0.71546  0.56747  0.72123  1.0000
  H   H1488     1.0  0.68049  0.59600  0.66861  1.0000
  H   H1489     1.0  0.69939  0.55739  0.72926  1.0000
  H   H1490     1.0  0.62630  0.32317  0.72189  1.0000
  C   C1251     1.0  0.63480  0.32883  0.54880  1.0000
  H   H1491     1.0  0.69706  0.47622  0.63489  1.0000
  H   H1492     1.0  0.56933  0.32846  0.51741  1.0000
  H   H1493     1.0  0.68512  0.55120  0.78911  1.0000
  H   H1494     1.0  0.68106  0.41728  0.60546  1.0000
  H   H1495     1.0  0.66216  0.60021  0.74809  1.0000
  H   H1496     1.0  0.69563  0.56285  0.59881  1.0000
  C   C1252     1.0  0.54458  0.56821  0.74846  1.0000
  C   C1253     1.0  0.53483  0.61240  0.52653  1.0000
  H   H1497     1.0  0.63106  0.61036  0.54862  1.0000
  C   C1254     1.0  0.68456  0.42850  0.60049  1.0000
  H   H1498     1.0  0.66960  0.32645  0.49251  1.0000
  H   H1499     1.0  0.49264  0.57259  0.51366  1.0000
  H   H1500     1.0  0.72995  0.43689  0.64720  1.0000
  C   C1255     1.0  0.62077  0.63065  0.57242  1.0000
  H   H1501     1.0  0.69740  0.57169  0.65212  1.0000
  C   C1256     1.0  0.62451  0.62213  0.54461  1.0000
  H   H1502     1.0  0.54883  0.55109  0.71499  1.0000
  H   H1503     1.0  0.68032  0.48482  0.61317  1.0000
  H   H1504     1.0  0.58555  0.62434  0.50088  1.0000
  H   H1505     1.0  0.53204  0.56902  0.75356  1.0000
  C   C1257     1.0  0.61978  0.62870  0.51186  1.0000
  C   C1258     1.0  0.66930  0.60111  0.62286  1.0000
  C   C1259     1.0  0.71708  0.46906  0.57830  1.0000
  C   C1260     1.0  0.61962  0.31828  0.74758  1.0000
  C   C1261     1.0  0.71626  0.63241  0.73514  1.0000
  H   H1506     1.0  0.70052  0.56490  0.53967  1.0000
  C   C1262     1.0  0.69598  0.55086  0.79907  1.0000
  H   H1507     1.0  0.70261  0.53867  0.79990  1.0000
  H   H1508     1.0  0.71760  0.56122  0.81900  1.0000
  C   C1263     1.0  0.68208  0.58244  0.76003  1.0000
  H   H1509     1.0  0.66502  0.31575  0.53644  1.0000
  H   H1510     1.0  0.50987  0.62303  0.56858  1.0000
  H   H1511     1.0  0.71551  0.43232  0.79211  1.0000
  C   C1264     1.0  0.69364  0.43347  0.56826  1.0000
  N   N83       1.0  0.70525  0.56225  0.77634  1.0000
  H   H1512     1.0  0.69704  0.42600  0.54840  1.0000
  N   N84       1.0  0.69990  0.47250  0.58094  1.0000
  H   H1513     1.0  0.66171  0.61157  0.63054  1.0000
  H   H1514     1.0  0.57162  0.63631  0.65000  1.0000
  H   H1515     1.0  0.54633  0.60457  0.52099  1.0000
  H   H1516     1.0  0.67841  0.57423  0.74848  1.0000
  H   H1517     1.0  0.54336  0.63109  0.62479  1.0000
  H   H1518     1.0  0.71739  0.38559  0.76135  1.0000
  H   H1519     1.0  0.53634  0.61985  0.54451  1.0000
  H   H1520     1.0  0.71770  0.54699  0.73931  1.0000
  H   H1521     1.0  0.49835  0.60925  0.57001  1.0000
  C   C1265     1.0  0.64177  0.32227  0.65419  1.0000
  H   H1522     1.0  0.67336  0.43377  0.65184  1.0000
  C   C1266     1.0  0.56338  0.63932  0.49559  1.0000
  H   H1523     1.0  0.67031  0.55658  0.53742  1.0000
  C   C1267     1.0  0.72490  0.38648  0.73475  1.0000
  Fe  Fe170     1.0  0.61114  0.64101  0.65551  1.0000
  C   C1268     1.0  0.57303  0.63472  0.62190  1.0000
  H   H1524     1.0  0.72617  0.37511  0.72626  1.0000
  H   H1525     1.0  0.70531  0.31973  0.66994  1.0000
  H   H1526     1.0  0.49839  0.58710  0.55374  1.0000
  H   H1527     1.0  0.72650  0.34180  0.82435  1.0000
  C   C1269     1.0  0.69951  0.58974  0.79056  1.0000
  C   C1270     1.0  0.55797  0.32509  0.51835  1.0000
  H   H1528     1.0  0.58483  0.63699  0.60914  1.0000
  H   H1529     1.0  0.73409  0.63154  0.82179  1.0000
  C   C1271     1.0  0.61230  0.64589  0.56767  1.0000
  H   H1530     1.0  0.66875  0.59906  0.51883  1.0000
  S   S338      1.0  0.71360  0.64809  0.90382  1.0000
  H   H1531     1.0  0.60719  0.32109  0.74406  1.0000
  S   S339      1.0  0.63659  0.63667  0.76709  1.0000
  H   H1532     1.0  0.53722  0.58420  0.56916  1.0000
  H   H1533     1.0  0.66928  0.61971  0.77449  1.0000
  H   H1534     1.0  0.69139  0.57045  0.50173  1.0000
  C   C1272     1.0  0.73364  0.43807  0.74881  1.0000
  H   H1535     1.0  0.73154  0.45022  0.75152  1.0000
  H   H1536     1.0  0.65883  0.38453  0.51124  1.0000
  N   N85       1.0  0.56078  0.64537  0.60351  1.0000
  H   H1537     1.0  0.62961  0.32042  0.53986  1.0000
  H   H1538     1.0  0.54498  0.64340  0.65386  1.0000
  C   C1273     1.0  0.66538  0.58742  0.52793  1.0000
  H   H1539     1.0  0.72112  0.63550  0.97543  1.0000
  C   C1274     1.0  0.72588  0.42188  0.50153  1.0000
  C   C1275     1.0  0.70057  0.63732  0.73147  1.0000
  H   H1540     1.0  0.63940  0.32252  0.57323  1.0000
  H   H1541     1.0  0.72001  0.41270  0.50049  1.0000
  C   C1276     1.0  0.54551  0.64281  0.62540  1.0000
  C   C1277     1.0  0.65266  0.36227  0.51434  1.0000
  H   H1542     1.0  0.65321  0.58897  0.54281  1.0000
  C   C1278     1.0  0.71168  0.64726  0.78256  1.0000
  C   C1279     1.0  0.69052  0.64724  0.75295  1.0000
  H   H1543     1.0  0.62992  0.35108  0.49214  1.0000
  C   C1280     1.0  0.67571  0.71124  0.03107  1.0000
  H   H1544     1.0  0.72674  0.80051  0.31132  1.0000
  S   S340      1.0  0.73127  0.73042  0.20508  1.0000
  C   C1281     1.0  0.64898  0.67526  0.43191  1.0000
  H   H1545     1.0  0.70878  0.76202  0.28331  1.0000
  S   S341      1.0  0.71644  0.65720  0.24721  1.0000
  Fe  Fe171     1.0  0.71358  0.71513  0.20628  1.0000
  S   S342      1.0  0.69994  0.70158  0.25294  1.0000
  H   H1546     1.0  0.68838  0.67311  0.29981  1.0000
  Fe  Fe172     1.0  0.70220  0.70154  0.15090  1.0000
  S   S343      1.0  0.68749  0.68718  0.19363  1.0000
  S   S344      1.0  0.70991  0.69795  0.09287  1.0000
  Fe  Fe173     1.0  0.68069  0.70796  0.22059  1.0000
  S   S345      1.0  0.65593  0.71488  0.24815  1.0000
  Fe  Fe174     1.0  0.70758  0.68175  0.22285  1.0000
  H   H1547     1.0  0.71564  0.81646  0.28524  1.0000
  S   S346      1.0  0.69364  0.72328  0.17543  1.0000
  S   S347      1.0  0.72288  0.69439  0.17912  1.0000
  C   C1282     1.0  0.71368  0.78581  0.20341  1.0000
  C   C1283     1.0  0.71957  0.65379  0.17814  1.0000
  C   C1284     1.0  0.66107  0.66720  0.37544  1.0000
  S   S348      1.0  0.60728  0.67245  0.33477  1.0000
  H   H1548     1.0  0.72320  0.65163  0.12317  1.0000
  C   C1285     1.0  0.73082  0.73166  0.27583  1.0000
  H   H1549     1.0  0.62977  0.69659  0.39468  1.0000
  H   H1550     1.0  0.73062  0.73324  0.33023  1.0000
  C   C1286     1.0  0.64315  0.70192  0.27007  1.0000
  C   C1287     1.0  0.62781  0.70856  0.28288  1.0000
  C   C1288     1.0  0.61712  0.69921  0.30170  1.0000
  C   C1289     1.0  0.62155  0.68299  0.30863  1.0000
  C   C1290     1.0  0.63694  0.67610  0.29585  1.0000
  C   C1291     1.0  0.64773  0.68559  0.27628  1.0000
  H   H1551     1.0  0.62414  0.72110  0.27819  1.0000
  H   H1552     1.0  0.60531  0.70466  0.31132  1.0000
  H   H1553     1.0  0.64048  0.66358  0.30100  1.0000
  H   H1554     1.0  0.65957  0.68035  0.26637  1.0000
  C   C1292     1.0  0.69937  0.70194  0.05702  1.0000
  C   C1293     1.0  0.70746  0.69859  0.02372  1.0000
  C   C1294     1.0  0.68341  0.70828  0.06056  1.0000
  H   H1555     1.0  0.72719  0.82492  0.22015  1.0000
  H   H1556     1.0  0.67702  0.71096  0.08595  1.0000
  H   H1557     1.0  0.66462  0.68665  0.33109  1.0000
  H   H1558     1.0  0.71291  0.66541  0.17355  1.0000
  H   H1559     1.0  0.63275  0.66420  0.37279  1.0000
  C   C1295     1.0  0.73544  0.73698  0.30271  1.0000
  H   H1560     1.0  0.51983  0.69249  0.27394  1.0000
  H   H1561     1.0  0.64947  0.69873  0.37673  1.0000
  H   H1562     1.0  0.71680  0.66216  0.04115  1.0000
  H   H1563     1.0  0.63837  0.68142  0.44760  1.0000
  H   H1564     1.0  0.71116  0.78724  0.17685  1.0000
  H   H1565     1.0  0.71983  0.69390  0.02048  1.0000
  C   C1296     1.0  0.73668  0.73666  0.24014  1.0000
  H   H1566     1.0  0.66339  0.71620  0.03410  1.0000
  C   C1297     1.0  0.68264  0.66714  0.32459  1.0000
  H   H1567     1.0  0.63618  0.65425  0.41615  1.0000
  C   C1298     1.0  0.72190  0.79586  0.21132  1.0000
  N   N86       1.0  0.64648  0.67487  0.39584  1.0000
  H   H1568     1.0  0.62239  0.67206  0.41136  1.0000
  H   H1569     1.0  0.65181  0.66341  0.44773  1.0000
  H   H1570     1.0  0.70291  0.76567  0.22287  1.0000
  C   C1299     1.0  0.63397  0.66594  0.39928  1.0000
  C   C1300     1.0  0.68381  0.70781  0.99780  1.0000
  C   C1301     1.0  0.72059  0.78149  0.27150  1.0000
  H   H1571     1.0  0.72258  0.72385  0.28274  1.0000
  C   C1302     1.0  0.70892  0.77369  0.22932  1.0000
  C   C1303     1.0  0.71223  0.77165  0.26337  1.0000
  H   H1572     1.0  0.65874  0.68134  0.43046  1.0000
  H   H1573     1.0  0.72355  0.77882  0.29782  1.0000
  C   C1304     1.0  0.64084  0.69117  0.37911  1.0000
  C   C1305     1.0  0.68915  0.65190  0.33788  1.0000
  H   H1574     1.0  0.49365  0.68701  0.28679  1.0000
  H   H1575     1.0  0.73718  0.71791  0.08598  1.0000
  H   H1576     1.0  0.63830  0.69173  0.35221  1.0000
  C   C1306     1.0  0.52736  0.65627  0.32254  1.0000
  C   C1307     1.0  0.72565  0.79395  0.24576  1.0000
  C   C1308     1.0  0.66791  0.65156  0.38794  1.0000
  H   H1577     1.0  0.72539  0.80486  0.18986  1.0000
  C   C1309     1.0  0.51768  0.68141  0.28976  1.0000
  C   C1310     1.0  0.72762  0.80983  0.28752  1.0000
  C   C1311     1.0  0.66888  0.67479  0.34303  1.0000
  N   N87       1.0  0.73528  0.80362  0.25449  1.0000
  C   C1312     1.0  0.53001  0.67054  0.30232  1.0000
  N   N88       1.0  0.73058  0.65006  0.99910  1.0000
  C   C1313     1.0  0.51239  0.65282  0.33029  1.0000
  C   C1314     1.0  0.49954  0.66361  0.31804  1.0000
  H   H1578     1.0  0.73434  0.81773  0.29366  1.0000
  C   C1315     1.0  0.69976  0.70151  0.99435  1.0000
  C   C1316     1.0  0.50263  0.67808  0.29740  1.0000
  H   H1579     1.0  0.54165  0.67316  0.29632  1.0000
  C   C1317     1.0  0.72848  0.65479  0.03427  1.0000
  H   H1580     1.0  0.73738  0.66164  0.03459  1.0000
  H   H1581     1.0  0.60751  0.64909  0.48178  1.0000
  Fe  Fe175     1.0  0.67597  0.69204  0.84624  1.0000
  S   S349      1.0  0.67632  0.68061  0.90327  1.0000
  S   S350      1.0  0.65663  0.69268  0.81514  1.0000
  Fe  Fe176     1.0  0.70713  0.70323  0.83919  1.0000
  S   S351      1.0  0.70980  0.69236  0.89561  1.0000
  H   H1582     1.0  0.72338  0.80524  0.81514  1.0000
  Fe  Fe177     1.0  0.70165  0.67227  0.88466  1.0000
  C   C1318     1.0  0.73759  0.76141  0.75561  1.0000
  Fe  Fe178     1.0  0.68433  0.70172  0.91038  1.0000
  H   H1583     1.0  0.65321  0.75099  0.89184  1.0000
  S   S352      1.0  0.70094  0.68204  0.82721  1.0000
  S   S353      1.0  0.68197  0.71424  0.85438  1.0000
  H   H1584     1.0  0.73591  0.82118  0.76379  1.0000
  C   C1319     1.0  0.65391  0.73872  0.80239  1.0000
  C   C1320     1.0  0.65274  0.74741  0.86751  1.0000
  H   H1585     1.0  0.65479  0.73494  0.77736  1.0000
  C   C1321     1.0  0.73743  0.65919  0.85688  1.0000
  H   H1586     1.0  0.66268  0.65865  0.83848  1.0000
  H   H1587     1.0  0.56236  0.66374  0.62968  1.0000
  N   N89       1.0  0.63518  0.72792  0.89896  1.0000
  H   H1588     1.0  0.72931  0.82772  0.82633  1.0000
  C   C1322     1.0  0.64498  0.73187  0.83306  1.0000
  C   C1323     1.0  0.66221  0.74988  0.80412  1.0000
  H   H1589     1.0  0.70623  0.69921  0.96880  1.0000
  H   H1590     1.0  0.66835  0.76269  0.83789  1.0000
  H   H1591     1.0  0.64317  0.70533  0.88274  1.0000
  H   H1592     1.0  0.55317  0.67034  0.59116  1.0000
  H   H1593     1.0  0.72574  0.66174  0.94709  1.0000
  H   H1594     1.0  0.73401  0.67271  0.96962  1.0000
  C   C1324     1.0  0.64248  0.71120  0.90555  1.0000
  H   H1595     1.0  0.63923  0.72289  0.83036  1.0000
  C   C1325     1.0  0.65146  0.67692  0.80159  1.0000
  C   C1326     1.0  0.64223  0.68016  0.77486  1.0000
  C   C1327     1.0  0.63759  0.66809  0.76384  1.0000
  H   H1596     1.0  0.72941  0.67008  0.85250  1.0000
  C   C1328     1.0  0.72601  0.66439  0.97339  1.0000
  H   H1597     1.0  0.66943  0.75489  0.78042  1.0000
  H   H1598     1.0  0.63867  0.69211  0.76247  1.0000
  H   H1599     1.0  0.63056  0.67082  0.74318  1.0000
  H   H1600     1.0  0.61340  0.74163  0.88610  1.0000
  H   H1601     1.0  0.62917  0.74688  0.92841  1.0000
  H   H1602     1.0  0.61824  0.72280  0.87308  1.0000
  S   S354      1.0  0.67377  0.71184  0.96104  1.0000
  C   C1329     1.0  0.63452  0.73428  0.93148  1.0000
  C   C1330     1.0  0.64415  0.73593  0.86666  1.0000
  S   S355      1.0  0.60713  0.65639  0.60305  1.0000
  C   C1331     1.0  0.72019  0.74434  0.79258  1.0000
  C   C1332     1.0  0.66158  0.75425  0.83657  1.0000
  H   H1603     1.0  0.71397  0.67057  0.98226  1.0000
  H   H1604     1.0  0.65457  0.70979  0.91042  1.0000
  H   H1605     1.0  0.70922  0.74292  0.80976  1.0000
  C   C1333     1.0  0.72339  0.75938  0.77812  1.0000
  C   C1334     1.0  0.60752  0.65253  0.53487  1.0000
  H   H1606     1.0  0.61158  0.72422  0.91856  1.0000
  C   C1335     1.0  0.61891  0.72923  0.89392  1.0000
  H   H1607     1.0  0.64635  0.73266  0.93829  1.0000
  H   H1608     1.0  0.71478  0.76949  0.78423  1.0000
  H   H1609     1.0  0.60092  0.66431  0.53112  1.0000
  C   C1336     1.0  0.65584  0.66138  0.81745  1.0000
  C   C1337     1.0  0.73116  0.73117  0.78443  1.0000
  H   H1610     1.0  0.63603  0.70461  0.92933  1.0000
  H   H1611     1.0  0.48831  0.65994  0.85775  1.0000
  C   C1338     1.0  0.73518  0.79871  0.81955  1.0000
  H   H1612     1.0  0.62758  0.72814  0.95520  1.0000
  C   C1339     1.0  0.64198  0.65255  0.77971  1.0000
  S   S356      1.0  0.72781  0.71191  0.80125  1.0000
  H   H1613     1.0  0.57392  0.66383  0.58630  1.0000
  H   H1614     1.0  0.73433  0.79340  0.84816  1.0000
  C   C1340     1.0  0.56254  0.66153  0.60260  1.0000
  H   H1615     1.0  0.68828  0.66000  0.79496  1.0000
  H   H1616     1.0  0.54001  0.65895  0.55797  1.0000
  H   H1617     1.0  0.67841  0.65119  0.74977  1.0000
  C   C1341     1.0  0.54987  0.65092  0.54686  1.0000
  H   H1618     1.0  0.71541  0.65143  0.80279  1.0000
  H   H1619     1.0  0.54156  0.65539  0.49701  1.0000
  C   C1342     1.0  0.69608  0.65217  0.77847  1.0000
  C   C1343     1.0  0.65112  0.64932  0.80661  1.0000
  H   H1620     1.0  0.53557  0.65170  0.61672  1.0000
  H   H1621     1.0  0.73785  0.78922  0.80363  1.0000
  C   C1344     1.0  0.55067  0.64904  0.51189  1.0000
  Fe  Fe179     1.0  0.96359  0.09935  0.18318  1.0000
  S   S357      1.0  0.95726  0.12076  0.14369  1.0000
  S   S358      1.0  0.94473  0.08467  0.20248  1.0000
  Fe  Fe180     1.0  0.96413  0.13349  0.17978  1.0000
  S   S359      1.0  0.94610  0.15508  0.18917  1.0000
  S   S360      1.0  0.96941  0.11222  0.22086  1.0000
  Fe  Fe181     1.0  0.91062  0.02707  0.12769  1.0000
  S   S361      1.0  0.88868  0.04503  0.12988  1.0000
  S   S362      1.0  0.93417  0.03306  0.12526  1.0000
  S   S363      1.0  0.87088  0.01725  0.12270  1.0000
  Fe  Fe182     1.0  0.88379  0.03496  0.08666  1.0000
  S   S364      1.0  0.87595  0.05080  0.03852  1.0000
  Fe  Fe183     1.0  0.87771  0.02590  0.16601  1.0000
  S   S365      1.0  0.85972  0.03018  0.21461  1.0000
  S   S366      1.0  0.90665  0.01852  0.08100  1.0000
  S   S367      1.0  0.90014  0.00829  0.16722  1.0000
  Fe  Fe184     1.0  0.81265  0.10605  0.27769  1.0000
  S   S368      1.0  0.79263  0.09336  0.29120  1.0000
  S   S369      1.0  0.83698  0.09878  0.24788  1.0000
  Fe  Fe185     1.0  0.79307  0.13404  0.30915  1.0000
  S   S370      1.0  0.77139  0.12386  0.32531  1.0000
  S   S371      1.0  0.79411  0.15739  0.31982  1.0000
  Fe  Fe186     1.0  0.78768  0.10185  0.34360  1.0000
  S   S372      1.0  0.78427  0.08629  0.39721  1.0000
  Fe  Fe187     1.0  0.77822  0.11656  0.27172  1.0000
  S   S373      1.0  0.76323  0.11991  0.22978  1.0000
  S   S374      1.0  0.80887  0.11265  0.33141  1.0000
  S   S375      1.0  0.79866  0.12861  0.25429  1.0000
  S   S376      1.0  0.79159  0.25339  0.17060  1.0000
  S   S377      1.0  0.76464  0.22485  0.22304  1.0000
  Fe  Fe188     1.0  0.86979  0.16734  0.35999  1.0000
  S   S378      1.0  0.87806  0.18825  0.32563  1.0000
  S   S379      1.0  0.86422  0.14986  0.33404  1.0000
  Fe  Fe189     1.0  0.87490  0.17506  0.42836  1.0000
  S   S380      1.0  0.88391  0.19666  0.39957  1.0000
  H   H1622     1.0  0.75979  0.16904  0.24151  1.0000
  Fe  Fe190     1.0  0.86420  0.20091  0.36911  1.0000
  S   S381      1.0  0.84759  0.22395  0.36265  1.0000
  Fe  Fe191     1.0  0.89697  0.18194  0.35848  1.0000
  S   S382      1.0  0.92217  0.18124  0.33339  1.0000
  S   S383      1.0  0.85419  0.18040  0.40088  1.0000
  S   S384      1.0  0.88964  0.15997  0.39001  1.0000
  H   H1623     1.0  0.82440  0.05067  0.10204  1.0000
  H   H1624     1.0  0.76517  0.22802  0.06747  1.0000
  H   H1625     1.0  0.85985  0.13728  0.43024  1.0000
  H   H1626     1.0  0.80808  0.31200  0.00347  1.0000
  H   H1627     1.0  0.87549  0.26028  0.18446  1.0000
  S   S385      1.0  0.75669  0.27060  0.20615  1.0000
  C   C1345     1.0  0.75522  0.13075  0.10868  1.0000
  H   H1628     1.0  0.93782  0.04284  0.99721  1.0000
  C   C1346     1.0  0.85235  0.02211  0.01388  1.0000
  H   H1629     1.0  0.84486  0.01399  0.02798  1.0000
  C   C1347     1.0  0.90142  0.21621  0.26417  1.0000
  C   C1348     1.0  0.83126  0.24387  0.25569  1.0000
  C   C1349     1.0  0.84442  0.23192  0.25782  1.0000
  C   C1350     1.0  0.84916  0.22529  0.29070  1.0000
  C   C1351     1.0  0.84104  0.23091  0.32153  1.0000
  C   C1352     1.0  0.82775  0.24269  0.31945  1.0000
  C   C1353     1.0  0.82273  0.24899  0.28674  1.0000
  H   H1630     1.0  0.85115  0.22803  0.23383  1.0000
  H   H1631     1.0  0.85946  0.21633  0.29185  1.0000
  H   H1632     1.0  0.82136  0.24708  0.34314  1.0000
  H   H1633     1.0  0.81261  0.25825  0.28533  1.0000
  C   C1354     1.0  0.76709  0.06037  0.47346  1.0000
  C   C1355     1.0  0.74477  0.24249  0.13584  1.0000
  H   H1634     1.0  0.76170  0.24808  0.16004  1.0000
  H   H1635     1.0  0.74494  0.25261  0.11497  1.0000
  C   C1356     1.0  0.84823  0.13683  0.42483  1.0000
  C   C1357     1.0  0.94703  0.08953  0.08122  1.0000
  H   H1636     1.0  0.77912  0.13271  0.43861  1.0000
  C   C1358     1.0  0.79354  0.13261  0.47625  1.0000
  N   N90       1.0  0.83661  0.13487  0.45801  1.0000
  C   C1359     1.0  0.77871  0.09546  0.43486  1.0000
  C   C1360     1.0  0.76147  0.23830  0.04736  1.0000
  H   H1637     1.0  0.90355  0.21589  0.32992  1.0000
  S   S386      1.0  0.86874  0.16611  0.48716  1.0000
  C   C1361     1.0  0.81371  0.15679  0.32060  1.0000
  C   C1362     1.0  0.82519  0.14598  0.30398  1.0000
  C   C1363     1.0  0.84076  0.14428  0.30740  1.0000
  C   C1364     1.0  0.84493  0.15352  0.32704  1.0000
  C   C1365     1.0  0.83358  0.16495  0.34211  1.0000
  C   C1366     1.0  0.81791  0.16652  0.33908  1.0000
  H   H1638     1.0  0.82210  0.13875  0.28872  1.0000
  H   H1639     1.0  0.84951  0.13564  0.29509  1.0000
  H   H1640     1.0  0.83674  0.17228  0.35689  1.0000
  H   H1641     1.0  0.80901  0.17490  0.35193  1.0000
  H   H1642     1.0  0.79494  0.22089  0.37516  1.0000
  C   C1367     1.0  0.74656  0.14798  0.40106  1.0000
  H   H1643     1.0  0.83973  0.04742  0.15071  1.0000
  Fe  Fe192     1.0  0.77266  0.24751  0.21570  1.0000
  C   C1368     1.0  0.95383  0.12422  0.02133  1.0000
  C   C1369     1.0  0.82175  0.07541  0.13775  1.0000
  H   H1644     1.0  0.89245  0.18397  0.48781  1.0000
  C   C1370     1.0  0.85357  0.04927  0.22383  1.0000
  C   C1371     1.0  0.83933  0.05306  0.24629  1.0000
  C   C1372     1.0  0.83407  0.06822  0.25385  1.0000
  C   C1373     1.0  0.84312  0.07964  0.23920  1.0000
  C   C1374     1.0  0.85745  0.07581  0.21704  1.0000
  C   C1375     1.0  0.86267  0.06067  0.20941  1.0000
  H   H1645     1.0  0.83226  0.04427  0.25771  1.0000
  H   H1646     1.0  0.82305  0.07104  0.27112  1.0000
  H   H1647     1.0  0.86448  0.08462  0.20563  1.0000
  H   H1648     1.0  0.87375  0.05787  0.19250  1.0000
  H   H1649     1.0  0.77019  0.18380  0.29181  1.0000
  H   H1650     1.0  0.82193  0.20705  0.35842  1.0000
  H   H1651     1.0  0.85524  0.02873  0.06141  1.0000
  C   C1376     1.0  0.93944  0.16070  0.23113  1.0000
  C   C1377     1.0  0.92401  0.16859  0.23879  1.0000
  C   C1378     1.0  0.91842  0.17407  0.27104  1.0000
  C   C1379     1.0  0.92844  0.17244  0.29515  1.0000
  C   C1380     1.0  0.94389  0.16452  0.28756  1.0000
  C   C1381     1.0  0.94930  0.15837  0.25594  1.0000
  H   H1652     1.0  0.91636  0.17050  0.21960  1.0000
  H   H1653     1.0  0.90651  0.18006  0.27649  1.0000
  H   H1654     1.0  0.95173  0.16327  0.30601  1.0000
  H   H1655     1.0  0.96128  0.15247  0.25004  1.0000
  H   H1656     1.0  0.96024  0.12864  0.06774  1.0000
  C   C1382     1.0  0.94182  0.07124  0.17828  1.0000
  C   C1383     1.0  0.92695  0.06754  0.18336  1.0000
  C   C1384     1.0  0.92434  0.05620  0.16649  1.0000
  C   C1385     1.0  0.93670  0.04820  0.14488  1.0000
  C   C1386     1.0  0.95155  0.05198  0.13951  1.0000
  C   C1387     1.0  0.95409  0.06354  0.15592  1.0000
  H   H1657     1.0  0.91744  0.07335  0.20072  1.0000
  H   H1658     1.0  0.91285  0.05351  0.17054  1.0000
  H   H1659     1.0  0.96116  0.04592  0.12264  1.0000
  H   H1660     1.0  0.96561  0.06624  0.15184  1.0000
  N   N91       1.0  0.90832  0.02440  0.25831  1.0000
  C   C1388     1.0  0.90470  0.01279  0.29066  1.0000
  C   C1389     1.0  0.89427  0.02995  0.24130  1.0000
  C   C1390     1.0  0.92071  0.01626  0.23309  1.0000
  C   C1391     1.0  0.91277  0.03764  0.26832  1.0000
  C   C1392     1.0  0.90194  0.04698  0.29112  1.0000
  C   C1393     1.0  0.90592  0.05942  0.30132  1.0000
  H   H1661     1.0  0.89452  0.01761  0.30959  1.0000
  H   H1662     1.0  0.90175  0.00240  0.28411  1.0000
  H   H1663     1.0  0.91481  0.00869  0.30494  1.0000
  H   H1664     1.0  0.89063  0.02023  0.23353  1.0000
  H   H1665     1.0  0.89638  0.03879  0.21697  1.0000
  H   H1666     1.0  0.91699  0.00642  0.22595  1.0000
  H   H1667     1.0  0.92376  0.02423  0.20763  1.0000
  H   H1668     1.0  0.93148  0.01111  0.24461  1.0000
  H   H1669     1.0  0.89029  0.04473  0.30126  1.0000
  H   H1670     1.0  0.89739  0.06651  0.31839  1.0000
  N   N92       1.0  0.91036  0.12198  0.26106  1.0000
  C   C1394     1.0  0.91420  0.12922  0.22321  1.0000
  C   C1395     1.0  0.90530  0.13475  0.28226  1.0000
  C   C1396     1.0  0.92476  0.11211  0.27245  1.0000
  C   C1397     1.0  0.89845  0.11229  0.26516  1.0000
  C   C1398     1.0  0.88389  0.11460  0.28846  1.0000
  C   C1399     1.0  0.90122  0.10009  0.24531  1.0000
  C   C1400     1.0  0.87282  0.10539  0.29119  1.0000
  C   C1401     1.0  0.89001  0.09101  0.24811  1.0000
  C   C1402     1.0  0.87586  0.09366  0.27104  1.0000
  H   H1671     1.0  0.90354  0.13595  0.21277  1.0000
  H   H1672     1.0  0.92238  0.13737  0.21946  1.0000
  H   H1673     1.0  0.92011  0.12050  0.20586  1.0000
  H   H1674     1.0  0.89476  0.14300  0.27428  1.0000
  H   H1675     1.0  0.91454  0.14173  0.27876  1.0000
  H   H1676     1.0  0.90273  0.13020  0.31124  1.0000
  H   H1677     1.0  0.92997  0.10287  0.25611  1.0000
  H   H1678     1.0  0.93397  0.11908  0.26975  1.0000
  H   H1679     1.0  0.92241  0.10630  0.30065  1.0000
  H   H1680     1.0  0.88064  0.12356  0.30461  1.0000
  H   H1681     1.0  0.91206  0.09757  0.22723  1.0000
  H   H1682     1.0  0.86165  0.10752  0.30860  1.0000
  H   H1683     1.0  0.89223  0.08192  0.23233  1.0000
  H   H1684     1.0  0.86712  0.08672  0.27303  1.0000
  S   S387      1.0  0.78294  0.25382  0.25662  1.0000
  S   S388      1.0  0.82650  0.25301  0.21368  1.0000
  H   H1685     1.0  0.92238  0.22832  0.28413  1.0000
  Fe  Fe193     1.0  0.89416  0.00121  0.12060  1.0000
  H   H1686     1.0  0.89052  0.21177  0.26642  1.0000
  H   H1687     1.0  0.80811  0.25877  0.03104  1.0000
  Fe  Fe194     1.0  0.80084  0.26162  0.21101  1.0000
  N   N93       1.0  0.83488  0.06838  0.11245  1.0000
  C   C1403     1.0  0.76893  0.28789  0.04209  1.0000
  N   N94       1.0  0.74985  0.17416  0.29404  1.0000
  C   C1404     1.0  0.78941  0.27279  0.00483  1.0000
  H   H1688     1.0  0.82249  0.22678  0.46550  1.0000
  H   H1689     1.0  0.75355  0.15303  0.27282  1.0000
  C   C1405     1.0  0.91550  0.05883  0.03643  1.0000
  H   H1690     1.0  0.80011  0.13549  0.38671  1.0000
  H   H1691     1.0  0.74703  0.11718  0.47858  1.0000
  H   H1692     1.0  0.91647  0.00123  0.01104  1.0000
  H   H1693     1.0  0.94154  0.12861  0.02921  1.0000
  H   H1694     1.0  0.78696  0.04255  0.46187  1.0000
  N   N95       1.0  0.76548  0.23467  0.01083  1.0000
  H   H1695     1.0  0.76331  0.17737  0.35058  1.0000
  C   C1406     1.0  0.88703  0.99666  0.01746  1.0000
  H   H1696     1.0  0.76780  0.12894  0.10137  1.0000
  H   H1697     1.0  0.75174  0.19622  0.30511  1.0000
  C   C1407     1.0  0.73984  0.15341  0.34231  1.0000
  H   H1698     1.0  0.94506  0.04228  0.03728  1.0000
  C   C1408     1.0  0.75419  0.23998  0.16162  1.0000
  H   H1699     1.0  0.84460  0.14792  0.40689  1.0000
  C   C1409     1.0  0.95095  0.07661  0.03086  1.0000
  H   H1700     1.0  0.74382  0.20673  0.21175  1.0000
  C   C1410     1.0  0.95641  0.08480  0.05077  1.0000
  H   H1701     1.0  0.85448  0.11962  0.48518  1.0000
  H   H1702     1.0  0.74377  0.30925  0.22989  1.0000
  N   N96       1.0  0.81256  0.20179  0.24817  1.0000
  C   C1411     1.0  0.81150  0.21591  0.22028  1.0000
  C   C1412     1.0  0.82873  0.19275  0.24212  1.0000
  C   C1413     1.0  0.80197  0.19202  0.24373  1.0000
  C   C1414     1.0  0.80788  0.20650  0.28357  1.0000
  C   C1415     1.0  0.79245  0.21434  0.29431  1.0000
  C   C1416     1.0  0.81841  0.20402  0.30774  1.0000
  C   C1417     1.0  0.78786  0.21940  0.32701  1.0000
  C   C1418     1.0  0.81363  0.20892  0.34063  1.0000
  C   C1419     1.0  0.79844  0.21670  0.35013  1.0000
  H   H1703     1.0  0.81513  0.21303  0.19309  1.0000
  H   H1704     1.0  0.79944  0.22282  0.22164  1.0000
  H   H1705     1.0  0.81906  0.22371  0.22304  1.0000
  H   H1706     1.0  0.83026  0.18195  0.26246  1.0000
  H   H1707     1.0  0.83744  0.19983  0.24252  1.0000
  H   H1708     1.0  0.83177  0.18903  0.21572  1.0000
  H   H1709     1.0  0.78985  0.19856  0.24332  1.0000
  H   H1710     1.0  0.80572  0.18753  0.21824  1.0000
  H   H1711     1.0  0.80161  0.18182  0.26559  1.0000
  H   H1712     1.0  0.78391  0.21705  0.27700  1.0000
  H   H1713     1.0  0.83046  0.19842  0.30187  1.0000
  C   C1420     1.0  0.74827  0.21421  0.03416  1.0000
  C   C1421     1.0  0.85829  0.03040  0.03283  1.0000
  H   H1714     1.0  0.75571  0.11704  0.16088  1.0000
  H   H1715     1.0  0.76389  0.06216  0.44745  1.0000
  C   C1422     1.0  0.80247  0.13495  0.41308  1.0000
  H   H1716     1.0  0.91082  0.24763  0.28436  1.0000
  C   C1423     1.0  0.74847  0.16565  0.33117  1.0000
  H   H1717     1.0  0.88390  0.03522  0.25905  1.0000
  C   C1424     1.0  0.81237  0.09043  0.18640  1.0000
  H   H1718     1.0  0.78770  0.09451  0.20571  1.0000
  H   H1719     1.0  0.85230  0.27217  0.22328  1.0000
  N   N97       1.0  0.89825  0.23040  0.28044  1.0000
  C   C1425     1.0  0.93220  0.08592  0.09210  1.0000
  H   H1720     1.0  0.83548  0.09015  0.07639  1.0000
  C   C1426     1.0  0.81742  0.13554  0.41760  1.0000
  C   C1427     1.0  0.79389  0.08124  0.16321  1.0000
  H   H1721     1.0  0.85545  0.05044  0.11417  1.0000
  C   C1428     1.0  0.75374  0.22719  0.18932  1.0000
  C   C1429     1.0  0.79708  0.08926  0.18682  1.0000
  C   C1430     1.0  0.87252  0.24982  0.28679  1.0000
  H   H1722     1.0  0.78195  0.08026  0.16396  1.0000
  H   H1723     1.0  0.81480  0.09659  0.20505  1.0000
  C   C1431     1.0  0.92786  0.04144  0.25675  1.0000
  C   C1432     1.0  0.91271  0.23686  0.27284  1.0000
  C   C1433     1.0  0.75890  0.16335  0.26992  1.0000
  Fe  Fe195     1.0  0.77650  0.27712  0.16333  1.0000
  C   C1434     1.0  0.80598  0.07437  0.13897  1.0000
  C   C1435     1.0  0.82455  0.08357  0.16244  1.0000
  H   H1724     1.0  0.82191  0.06905  0.07129  1.0000
  H   H1725     1.0  0.93685  0.03528  0.23884  1.0000
  C   C1436     1.0  0.86808  0.04079  0.01477  1.0000
  H   H1726     1.0  0.84016  0.05589  0.06848  1.0000
  C   C1437     1.0  0.79058  0.13345  0.44229  1.0000
  C   C1438     1.0  0.83000  0.06069  0.08762  1.0000
  H   H1727     1.0  0.83623  0.08460  0.16372  1.0000
  H   H1728     1.0  0.80268  0.06823  0.12169  1.0000
  C   C1439     1.0  0.84579  0.05644  0.13239  1.0000
  C   C1440     1.0  0.74840  0.12397  0.14207  1.0000
  H   H1729     1.0  0.85133  0.06154  0.14881  1.0000
  C   C1441     1.0  0.84343  0.08057  0.09061  1.0000
  C   C1442     1.0  0.93173  0.05383  0.26738  1.0000
  C   C1443     1.0  0.92078  0.06287  0.28935  1.0000
  H   H1730     1.0  0.85304  0.07576  0.07029  1.0000
  C   C1444     1.0  0.96440  0.12409  0.04333  1.0000
  H   H1731     1.0  0.82286  0.20043  0.46404  1.0000
  C   C1445     1.0  0.86076  0.26065  0.27157  1.0000
  H   H1732     1.0  0.84901  0.08580  0.10677  1.0000
  H   H1733     1.0  0.94324  0.05669  0.25769  1.0000
  C   C1446     1.0  0.82902  0.22791  0.48579  1.0000
  H   H1734     1.0  0.82605  0.13656  0.39373  1.0000
  H   H1735     1.0  0.77613  0.22579  0.33401  1.0000
  H   H1736     1.0  0.89332  0.23513  0.33406  1.0000
  H   H1737     1.0  0.92382  0.07264  0.29680  1.0000
  H   H1738     1.0  0.84749  0.14826  0.48193  1.0000
  H   H1739     1.0  0.75602  0.14693  0.17684  1.0000
  C   C1447     1.0  0.77518  0.28318  0.00908  1.0000
  C   C1448     1.0  0.83586  0.14794  0.47648  1.0000
  H   H1740     1.0  0.89663  0.24183  0.20987  1.0000
  H   H1741     1.0  0.84515  0.20886  0.44152  1.0000
  C   C1449     1.0  0.87480  0.25741  0.21305  1.0000
  H   H1742     1.0  0.91689  0.23995  0.24383  1.0000
  H   H1743     1.0  0.88703  0.00828  0.02338  1.0000
  C   C1450     1.0  0.78018  0.04942  0.48157  1.0000
  H   H1744     1.0  0.76139  0.16212  0.40977  1.0000
  C   C1451     1.0  0.73888  0.14479  0.37678  1.0000
  C   C1452     1.0  0.78795  0.09130  0.46153  1.0000
  H   H1745     1.0  0.88322  0.22099  0.32696  1.0000
  C   C1453     1.0  0.79704  0.26675  0.03414  1.0000
  H   H1746     1.0  0.95848  0.07374  0.00678  1.0000
  H   H1747     1.0  0.77093  0.15886  0.27569  1.0000
  H   H1748     1.0  0.85046  0.26583  0.28839  1.0000
  C   C1454     1.0  0.82086  0.13465  0.45195  1.0000
  S   S389      1.0  0.75572  0.28867  0.29079  1.0000
  H   H1749     1.0  0.75682  0.10821  0.42060  1.0000
  C   C1455     1.0  0.93603  0.07245  0.04147  1.0000
  H   H1750     1.0  0.75809  0.29621  0.04504  1.0000
  C   C1456     1.0  0.88575  0.24223  0.26532  1.0000
  C   C1457     1.0  0.76414  0.10522  0.44073  1.0000
  S   S390      1.0  0.78748  0.28626  0.19979  1.0000
  S   S391      1.0  0.76951  0.28998  0.11063  1.0000
  H   H1751     1.0  0.87065  0.24727  0.31545  1.0000
  C   C1458     1.0  0.89436  0.22544  0.31953  1.0000
  Fe  Fe196     1.0  0.76868  0.27776  0.24305  1.0000
  C   C1459     1.0  0.86178  0.26427  0.23484  1.0000
  H   H1752     1.0  0.79693  0.26702  0.08932  1.0000
  C   C1460     1.0  0.79072  0.27138  0.06722  1.0000
  C   C1461     1.0  0.77679  0.28224  0.07111  1.0000
  C   C1462     1.0  0.88672  0.24670  0.22794  1.0000
  C   C1463     1.0  0.85123  0.20977  0.46274  1.0000
  H   H1753     1.0  0.90676  0.21817  0.23565  1.0000
  H   H1754     1.0  0.90986  0.20666  0.27716  1.0000
  H   H1755     1.0  0.79911  0.08356  0.45734  1.0000
  H   H1756     1.0  0.95127  0.09599  0.09642  1.0000
  H   H1757     1.0  0.74840  0.07811  0.49167  1.0000
  H   H1758     1.0  0.74602  0.14109  0.42754  1.0000
  C   C1464     1.0  0.75859  0.11023  0.47361  1.0000
  C   C1465     1.0  0.74639  0.14713  0.19889  1.0000
  C   C1466     1.0  0.80843  0.13315  0.48114  1.0000
  H   H1759     1.0  0.75116  0.14553  0.05914  1.0000
  H   H1760     1.0  0.74873  0.24256  0.05464  1.0000
  H   H1761     1.0  0.75838  0.19396  0.25977  1.0000
  H   H1762     1.0  0.76727  0.24770  0.05004  1.0000
  H   H1763     1.0  0.84282  0.10988  0.46800  1.0000
  C   C1467     1.0  0.74584  0.14010  0.08500  1.0000
  C   C1468     1.0  0.75807  0.22219  0.00609  1.0000
  H   H1764     1.0  0.85005  0.12705  0.41005  1.0000
  H   H1765     1.0  0.91529  0.07475  0.08322  1.0000
  H   H1766     1.0  0.90570  0.06886  0.03987  1.0000
  C   C1469     1.0  0.84252  0.12002  0.48051  1.0000
  C   C1470     1.0  0.74725  0.13554  0.22924  1.0000
  H   H1767     1.0  0.83492  0.23803  0.47427  1.0000
  H   H1768     1.0  0.92501  0.08954  0.11599  1.0000
  C   C1471     1.0  0.92674  0.07739  0.07284  1.0000
  H   H1769     1.0  0.85941  0.19857  0.46858  1.0000
  H   H1770     1.0  0.85835  0.21892  0.45074  1.0000
  H   H1771     1.0  0.78691  0.21892  0.01944  1.0000
  H   H1772     1.0  0.83162  0.15934  0.46031  1.0000
  C   C1472     1.0  0.75515  0.15987  0.39105  1.0000
  C   C1473     1.0  0.74327  0.19920  0.99449  1.0000
  C   C1474     1.0  0.75787  0.18760  0.28764  1.0000
  H   H1773     1.0  0.91653  0.05125  0.06273  1.0000
  C   C1475     1.0  0.75610  0.16864  0.35672  1.0000
  H   H1774     1.0  0.91190  0.05197  0.01996  1.0000
  N   N98       1.0  0.93043  0.06400  0.01945  1.0000
  C   C1476     1.0  0.98561  0.11282  0.00120  1.0000
  H   H1775     1.0  0.96788  0.08779  0.04211  1.0000
  H   H1776     1.0  0.78863  0.23909  0.00650  1.0000
  C   C1477     1.0  0.74232  0.30645  0.28645  1.0000
  C   C1478     1.0  0.74105  0.20288  0.02821  1.0000
  H   H1777     1.0  0.87603  0.99731  0.00784  1.0000
  C   C1479     1.0  0.94211  0.04986  0.01209  1.0000
  C   C1480     1.0  0.98029  0.11828  0.03345  1.0000
  H   H1778     1.0  0.88663  0.98856  0.04329  1.0000
  Fe  Fe197     1.0  0.98247  0.11697  0.11875  1.0000
  H   H1779     1.0  0.74584  0.21659  0.06091  1.0000
  C   C1481     1.0  0.78268  0.23009  0.00238  1.0000
  C   C1482     1.0  0.91508  0.98996  0.00557  1.0000
  H   H1780     1.0  0.73829  0.30700  0.34249  1.0000
  C   C1483     1.0  0.74418  0.21663  0.19056  1.0000
  H   H1781     1.0  0.95309  0.05266  0.99497  1.0000
  C   C1484     1.0  0.73831  0.31409  0.25360  1.0000
  H   H1782     1.0  0.80844  0.17941  0.49060  1.0000
  C   C1485     1.0  0.82324  0.19527  0.49154  1.0000
  Fe  Fe198     1.0  0.85850  0.01563  0.89540  1.0000
  S   S392      1.0  0.88227  0.00374  0.87341  1.0000
  S   S393      1.0  0.85042  0.01189  0.95449  1.0000
  Fe  Fe199     1.0  0.85047  0.03005  0.82169  1.0000
  S   S394      1.0  0.87368  0.01849  0.79448  1.0000
  S   S395      1.0  0.83411  0.05129  0.79794  1.0000
  C   C1486     1.0  0.81493  0.09952  0.80834  1.0000
  Fe  Fe200     1.0  0.88372  0.02602  0.83477  1.0000
  S   S396      1.0  0.90297  0.04017  0.81512  1.0000
  S   S397      1.0  0.84591  0.00809  0.86015  1.0000
  S   S398      1.0  0.86082  0.03838  0.86008  1.0000
  S   S399      1.0  0.94309  0.09818  0.88631  1.0000
  Fe  Fe201     1.0  0.79403  0.08835  0.63676  1.0000
  S   S400      1.0  0.79986  0.09686  0.57794  1.0000
  S   S401      1.0  0.80382  0.06337  0.65900  1.0000
  Fe  Fe202     1.0  0.77554  0.12042  0.65146  1.0000
  S   S402      1.0  0.77950  0.13126  0.59378  1.0000
  S   S403      1.0  0.76862  0.13559  0.69388  1.0000
  Fe  Fe203     1.0  0.77488  0.10915  0.58336  1.0000
  S   S404      1.0  0.75971  0.11125  0.54243  1.0000
  Fe  Fe204     1.0  0.80392  0.11811  0.59317  1.0000
  S   S405      1.0  0.82435  0.12991  0.57288  1.0000
  S   S406      1.0  0.76851  0.09924  0.64165  1.0000
  S   S407      1.0  0.80052  0.10849  0.65101  1.0000
  S   S408      1.0  0.78676  0.25322  0.89062  1.0000
  S   S409      1.0  0.80426  0.26226  0.78723  1.0000
  Fe  Fe205     1.0  0.76142  0.26300  0.89181  1.0000
  H   H1783     1.0  0.82031  0.23088  0.50945  1.0000
  Fe  Fe206     1.0  0.87726  0.15298  0.73249  1.0000
  S   S410      1.0  0.85337  0.16243  0.75940  1.0000
  S   S411      1.0  0.88901  0.12919  0.75681  1.0000
  Fe  Fe207     1.0  0.87529  0.17920  0.66828  1.0000
  S   S412      1.0  0.85133  0.19104  0.69079  1.0000
  Fe  Fe208     1.0  0.86030  0.18583  0.74238  1.0000
  S   S413      1.0  0.85477  0.19970  0.78693  1.0000
  Fe  Fe209     1.0  0.84655  0.16675  0.70601  1.0000
  S   S414      1.0  0.82364  0.16148  0.70252  1.0000
  S   S415      1.0  0.88495  0.17608  0.71881  1.0000
  S   S416      1.0  0.86984  0.15519  0.68036  1.0000
  C   C1487     1.0  0.81821  0.24482  0.78766  1.0000
  C   C1488     1.0  0.82345  0.23666  0.81892  1.0000
  C   C1489     1.0  0.83475  0.22290  0.81823  1.0000
  C   C1490     1.0  0.84072  0.21709  0.78646  1.0000
  C   C1491     1.0  0.83541  0.22519  0.75522  1.0000
  C   C1492     1.0  0.82426  0.23906  0.75582  1.0000
  H   H1784     1.0  0.81897  0.24108  0.84348  1.0000
  H   H1785     1.0  0.83887  0.21672  0.84244  1.0000
  H   H1786     1.0  0.84010  0.22093  0.73052  1.0000
  H   H1787     1.0  0.82035  0.24541  0.73151  1.0000
  Fe  Fe210     1.0  0.78640  0.27378  0.91539  1.0000
  C   C1493     1.0  0.75924  0.22919  0.82109  1.0000
  C   C1494     1.0  0.75831  0.23717  0.84873  1.0000
  H   H1788     1.0  0.78682  0.22866  0.97419  1.0000
  N   N99       1.0  0.84035  0.21348  0.49545  1.0000
  H   H1789     1.0  0.73914  0.30041  0.66864  1.0000
  H   H1790     1.0  0.76646  0.24471  0.84635  1.0000
  H   H1791     1.0  0.80031  0.06834  0.54755  1.0000
  C   C1495     1.0  0.78478  0.04760  0.51445  1.0000
  C   C1496     1.0  0.82412  0.14024  0.60630  1.0000
  C   C1497     1.0  0.81015  0.14464  0.62891  1.0000
  C   C1498     1.0  0.81003  0.15162  0.65770  1.0000
  C   C1499     1.0  0.82391  0.15428  0.66404  1.0000
  C   C1500     1.0  0.83780  0.15046  0.64059  1.0000
  C   C1501     1.0  0.83793  0.14338  0.61182  1.0000
  H   H1792     1.0  0.79935  0.14254  0.62463  1.0000
  H   H1793     1.0  0.79918  0.15465  0.67544  1.0000
  H   H1794     1.0  0.84849  0.15270  0.64468  1.0000
  H   H1795     1.0  0.84876  0.14000  0.59440  1.0000
  H   H1796     1.0  0.75417  0.20419  0.94001  1.0000
  H   H1797     1.0  0.88404  0.10774  0.66154  1.0000
  H   H1798     1.0  0.86463  0.05870  0.77438  1.0000
  H   H1799     1.0  0.77805  0.06611  0.62045  1.0000
  H   H1800     1.0  0.87311  0.11754  0.60621  1.0000
  H   H1801     1.0  0.92854  0.12241  0.66665  1.0000
  H   H1802     1.0  0.75843  0.16005  0.73394  1.0000
  C   C1502     1.0  0.75284  0.20673  0.96647  1.0000
  H   H1803     1.0  0.84808  0.09882  0.83875  1.0000
  C   C1503     1.0  0.74817  0.15617  0.73143  1.0000
  H   H1804     1.0  0.94068  0.06704  0.83929  1.0000
  C   C1504     1.0  0.76042  0.24920  0.98640  1.0000
  H   H1805     1.0  0.87948  0.05093  0.96356  1.0000
  C   C1505     1.0  0.93750  0.12390  0.78364  1.0000
  C   C1506     1.0  0.91588  0.13963  0.75563  1.0000
  C   C1507     1.0  0.90754  0.12749  0.76753  1.0000
  C   C1508     1.0  0.91411  0.11365  0.78797  1.0000
  C   C1509     1.0  0.92899  0.11192  0.79639  1.0000
  H   H1806     1.0  0.91078  0.15048  0.74068  1.0000
  H   H1807     1.0  0.90771  0.10422  0.79744  1.0000
  H   H1808     1.0  0.93403  0.10117  0.81204  1.0000
  C   C1510     1.0  0.82653  0.05417  0.75835  1.0000
  C   C1511     1.0  0.82819  0.04225  0.73906  1.0000
  C   C1512     1.0  0.82126  0.04516  0.70847  1.0000
  C   C1513     1.0  0.81273  0.05999  0.69698  1.0000
  C   C1514     1.0  0.81129  0.07189  0.71614  1.0000
  C   C1515     1.0  0.81822  0.06900  0.74650  1.0000
  H   H1809     1.0  0.83454  0.03075  0.74801  1.0000
  H   H1810     1.0  0.82240  0.03585  0.69390  1.0000
  H   H1811     1.0  0.80453  0.08323  0.70808  1.0000
  H   H1812     1.0  0.81704  0.07825  0.76113  1.0000
  C   C1516     1.0  0.91397  0.04442  0.84329  1.0000
  C   C1517     1.0  0.92368  0.05542  0.82943  1.0000
  C   C1518     1.0  0.93309  0.05080  0.88539  1.0000
  C   C1519     1.0  0.92321  0.03995  0.89948  1.0000
  C   C1520     1.0  0.91357  0.03686  0.87861  1.0000
  C   C1521     1.0  0.83129  0.19327  0.54794  1.0000
  H   H1813     1.0  0.92311  0.03384  0.92651  1.0000
  H   H1814     1.0  0.90609  0.02842  0.88950  1.0000
  C   C1522     1.0  0.78110  0.03985  0.59523  1.0000
  C   C1523     1.0  0.86625  0.03431  0.95874  1.0000
  C   C1524     1.0  0.76031  0.21791  0.97217  1.0000
  H   H1815     1.0  0.80579  0.29537  0.98797  1.0000
  S   S417      1.0  0.76442  0.27743  0.83753  1.0000
  H   H1816     1.0  0.86963  0.03562  0.93022  1.0000
  H   H1817     1.0  0.78341  0.14032  0.75303  1.0000
  Fe  Fe211     1.0  0.79007  0.26931  0.83839  1.0000
  Fe  Fe212     1.0  0.86996  0.99699  0.83593  1.0000
  H   H1818     1.0  0.80303  0.05756  0.59083  1.0000
  C   C1525     1.0  0.88599  0.18152  0.51444  1.0000
  N   N100      1.0  0.87601  0.07868  0.75645  1.0000
  Fe  Fe213     1.0  0.95806  0.07445  0.89274  1.0000
  H   H1819     1.0  0.76902  0.31220  0.78620  1.0000
  H   H1820     1.0  0.94159  0.13499  0.64432  1.0000
  S   S418      1.0  0.76068  0.28238  0.92009  1.0000
  N   N101      1.0  0.79689  0.19749  0.76482  1.0000
  C   C1526     1.0  0.79284  0.21308  0.74299  1.0000
  C   C1527     1.0  0.81397  0.19188  0.75650  1.0000
  C   C1528     1.0  0.78919  0.18666  0.75376  1.0000
  C   C1529     1.0  0.79227  0.19863  0.80298  1.0000
  C   C1530     1.0  0.78096  0.19067  0.82644  1.0000
  C   C1531     1.0  0.79900  0.20820  0.81761  1.0000
  C   C1532     1.0  0.77682  0.19224  0.86224  1.0000
  C   C1533     1.0  0.79482  0.20967  0.85336  1.0000
  C   C1534     1.0  0.78377  0.20168  0.87566  1.0000
  H   H1821     1.0  0.79889  0.22177  0.74804  1.0000
  H   H1822     1.0  0.79606  0.21269  0.71408  1.0000
  H   H1823     1.0  0.78007  0.21768  0.74868  1.0000
  H   H1824     1.0  0.81781  0.19071  0.72807  1.0000
  H   H1825     1.0  0.81754  0.18028  0.77280  1.0000
  H   H1826     1.0  0.82081  0.19989  0.76140  1.0000
  H   H1827     1.0  0.79322  0.18581  0.72514  1.0000
  H   H1828     1.0  0.79189  0.17464  0.76889  1.0000
  H   H1829     1.0  0.77630  0.19066  0.75729  1.0000
  H   H1830     1.0  0.77471  0.18365  0.81753  1.0000
  H   H1831     1.0  0.80741  0.21485  0.80129  1.0000
  H   H1832     1.0  0.76782  0.18644  0.87933  1.0000
  H   H1833     1.0  0.80002  0.21728  0.86352  1.0000
  H   H1834     1.0  0.78040  0.20306  0.90319  1.0000
  S   S419      1.0  0.97104  0.07971  0.93076  1.0000
  H   H1835     1.0  0.79912  0.12462  0.70790  1.0000
  C   C1535     1.0  0.82291  0.18128  0.56256  1.0000
  C   C1536     1.0  0.78258  0.09671  0.49401  1.0000
  C   C1537     1.0  0.81484  0.17621  0.54187  1.0000
  H   H1836     1.0  0.91136  0.00185  0.93857  1.0000
  C   C1538     1.0  0.97502  0.11273  0.97944  1.0000
  C   C1539     1.0  0.84970  0.21674  0.51928  1.0000
  H   H1837     1.0  0.76786  0.23091  0.79740  1.0000
  H   H1838     1.0  0.85613  0.16387  0.56056  1.0000
  H   H1839     1.0  0.80853  0.16678  0.55341  1.0000
  H   H1840     1.0  0.85838  0.20622  0.52773  1.0000
  H   H1841     1.0  0.90282  0.15087  0.57263  1.0000
  C   C1540     1.0  0.74866  0.21949  0.82372  1.0000
  H   H1842     1.0  0.85643  0.22608  0.50597  1.0000
  H   H1843     1.0  0.83797  0.11344  0.66648  1.0000
  H   H1844     1.0  0.90146  0.01569  0.96654  1.0000
  H   H1845     1.0  0.92937  0.14880  0.57751  1.0000
  Fe  Fe214     1.0  0.76613  0.29616  0.86527  1.0000
  C   C1541     1.0  0.83787  0.11724  0.80049  1.0000
  S   S420      1.0  0.95631  0.12195  0.79293  1.0000
  S   S421      1.0  0.74444  0.24697  0.91126  1.0000
  H   H1846     1.0  0.89973  0.19229  0.53793  1.0000
  C   C1542     1.0  0.89012  0.18618  0.54285  1.0000
  C   C1543     1.0  0.82725  0.09413  0.82738  1.0000
  H   H1847     1.0  0.84686  0.12406  0.79724  1.0000
  C   C1544     1.0  0.85653  0.02384  0.97688  1.0000
  H   H1848     1.0  0.82813  0.14702  0.50276  1.0000
  C   C1545     1.0  0.83183  0.20056  0.51172  1.0000
  C   C1546     1.0  0.76771  0.10585  0.50050  1.0000
  C   C1547     1.0  0.84538  0.10657  0.68516  1.0000
  H   H1849     1.0  0.84220  0.22075  0.54342  1.0000
  N   N102      1.0  0.80116  0.11986  0.76308  1.0000
  C   C1548     1.0  0.80806  0.11983  0.72524  1.0000
  C   C1549     1.0  0.78876  0.11033  0.77230  1.0000
  C   C1550     1.0  0.79350  0.13605  0.76744  1.0000
  C   C1551     1.0  0.81372  0.11404  0.78465  1.0000
  H   H1850     1.0  0.79501  0.03895  0.51946  1.0000
  C   C1552     1.0  0.82569  0.12265  0.78103  1.0000
  C   C1553     1.0  0.83862  0.10303  0.82373  1.0000
  H   H1851     1.0  0.77354  0.07931  0.58099  1.0000
  C   C1554     1.0  0.84702  0.09041  0.69242  1.0000
  C   C1555     1.0  0.87384  0.17326  0.52091  1.0000
  H   H1852     1.0  0.80678  0.04761  0.55446  1.0000
  C   C1556     1.0  0.87187  0.04293  0.97766  1.0000
  H   H1853     1.0  0.79328  0.09832  0.76660  1.0000
  H   H1854     1.0  0.77929  0.11533  0.75626  1.0000
  H   H1855     1.0  0.78318  0.10969  0.80071  1.0000
  H   H1856     1.0  0.76499  0.24825  0.95818  1.0000
  H   H1857     1.0  0.78911  0.13684  0.79593  1.0000
  C   C1557     1.0  0.74969  0.14423  0.71212  1.0000
  H   H1858     1.0  0.82805  0.08286  0.84482  1.0000
  H   H1859     1.0  0.82584  0.13356  0.76269  1.0000
  C   C1558     1.0  0.74672  0.23558  0.87879  1.0000
  C   C1559     1.0  0.88832  0.11716  0.64241  1.0000
  H   H1860     1.0  0.92348  0.06866  0.96803  1.0000
  N   N103      1.0  0.92764  0.15416  0.86340  1.0000
  C   C1560     1.0  0.92574  0.16248  0.89348  1.0000
  C   C1561     1.0  0.93257  0.13733  0.87690  1.0000
  C   C1562     1.0  0.94042  0.15912  0.83530  1.0000
  C   C1563     1.0  0.91300  0.15782  0.84870  1.0000
  C   C1564     1.0  0.90624  0.17354  0.83659  1.0000
  C   C1565     1.0  0.90520  0.14614  0.84529  1.0000
  C   C1566     1.0  0.89241  0.17731  0.82268  1.0000
  C   C1567     1.0  0.89137  0.15007  0.83132  1.0000
  C   C1568     1.0  0.88498  0.16560  0.82016  1.0000
  H   H1861     1.0  0.91565  0.15964  0.91421  1.0000
  H   H1862     1.0  0.93625  0.15914  0.90655  1.0000
  H   H1863     1.0  0.92388  0.17533  0.88508  1.0000
  H   H1864     1.0  0.93516  0.13042  0.85520  1.0000
  H   H1865     1.0  0.92359  0.13273  0.89848  1.0000
  H   H1866     1.0  0.94347  0.13492  0.88829  1.0000
  H   H1867     1.0  0.93824  0.17188  0.82548  1.0000
  H   H1868     1.0  0.95180  0.15602  0.84489  1.0000
  H   H1869     1.0  0.94197  0.15325  0.81204  1.0000
  H   H1870     1.0  0.91166  0.18303  0.83758  1.0000
  H   H1871     1.0  0.90962  0.13384  0.85270  1.0000
  H   H1872     1.0  0.88736  0.18939  0.81360  1.0000
  H   H1873     1.0  0.88572  0.14098  0.82853  1.0000
  H   H1874     1.0  0.87429  0.16860  0.80926  1.0000
  C   C1569     1.0  0.93093  0.13773  0.76316  1.0000
  C   C1570     1.0  0.85669  0.08148  0.71610  1.0000
  H   H1875     1.0  0.85755  0.06897  0.72090  1.0000
  C   C1571     1.0  0.76298  0.06780  0.53121  1.0000
  H   H1876     1.0  0.78428  0.13124  0.49902  1.0000
  H   H1877     1.0  0.80142  0.14450  0.75623  1.0000
  S   S422      1.0  0.94566  0.11776  0.96324  1.0000
  H   H1878     1.0  0.92409  0.06129  0.80214  1.0000
  C   C1572     1.0  0.93311  0.05869  0.85043  1.0000
  Fe  Fe215     1.0  0.95743  0.10392  0.92032  1.0000
  C   C1573     1.0  0.88204  0.18272  0.57765  1.0000
  Fe  Fe216     1.0  0.96208  0.10456  0.84158  1.0000
  S   S423      1.0  0.94559  0.05390  0.91172  1.0000
  H   H1879     1.0  0.76925  0.28803  0.98671  1.0000
  S   S424      1.0  0.79878  0.26821  0.96277  1.0000
  H   H1880     1.0  0.78838  0.03034  0.58148  1.0000
  H   H1881     1.0  0.88283  0.13901  0.56223  1.0000
  H   H1882     1.0  0.93744  0.14706  0.75342  1.0000
  C   C1574     1.0  0.88220  0.12261  0.61119  1.0000
  H   H1883     1.0  0.83516  0.11830  0.50724  1.0000
  H   H1884     1.0  0.97920  0.10822  0.95492  1.0000
  C   C1575     1.0  0.77324  0.06724  0.59576  1.0000
  H   H1885     1.0  0.82144  0.30652  0.91247  1.0000
  H   H1886     1.0  0.87429  0.09512  0.79089  1.0000
  N   N104      1.0  0.78221  0.05548  0.57374  1.0000
  H   H1887     1.0  0.91541  0.16456  0.59514  1.0000
  H   H1888     1.0  0.89116  0.07992  0.79177  1.0000
  H   H1889     1.0  0.89054  0.09529  0.75443  1.0000
  C   C1576     1.0  0.77655  0.05702  0.53997  1.0000
  H   H1890     1.0  0.89522  0.07660  0.71294  1.0000
  H   H1891     1.0  0.86312  0.17244  0.61022  1.0000
  H   H1892     1.0  0.75597  0.07558  0.54861  1.0000
  C   C1577     1.0  0.88324  0.08772  0.77406  1.0000
  H   H1893     1.0  0.80664  0.09193  0.81236  1.0000
  C   C1578     1.0  0.79876  0.05732  0.56623  1.0000
  H   H1894     1.0  0.84074  0.08471  0.67968  1.0000
  S   S425      1.0  0.88791  0.18776  0.61334  1.0000
  H   H1895     1.0  0.93403  0.15876  0.60794  1.0000
  H   H1896     1.0  0.78513  0.03840  0.62109  1.0000
  H   H1897     1.0  0.87494  0.06187  0.80521  1.0000
  H   H1898     1.0  0.86860  0.11150  0.73791  1.0000
  C   C1579     1.0  0.80847  0.30917  0.91826  1.0000
  H   H1899     1.0  0.82278  0.17580  0.59014  1.0000
  H   H1900     1.0  0.85668  0.07441  0.79840  1.0000
  C   C1580     1.0  0.86562  0.17012  0.55552  1.0000
  C   C1581     1.0  0.86960  0.17492  0.58372  1.0000
  H   H1901     1.0  0.83740  0.19640  0.56557  1.0000
  C   C1582     1.0  0.86769  0.06805  0.78473  1.0000
  H   H1902     1.0  0.89743  0.06175  0.75154  1.0000
  C   C1583     1.0  0.88882  0.06913  0.73505  1.0000
  C   C1584     1.0  0.86285  0.10506  0.72593  1.0000
  H   H1903     1.0  0.93589  0.12288  0.61995  1.0000
  C   C1585     1.0  0.92454  0.15415  0.60169  1.0000
  N   N105      1.0  0.91831  0.14275  0.63193  1.0000
  C   C1586     1.0  0.93161  0.13020  0.64102  1.0000
  C   C1587     1.0  0.86512  0.08850  0.73318  1.0000
  H   H1904     1.0  0.85155  0.12650  0.69703  1.0000
  H   H1905     1.0  0.92100  0.15578  0.67003  1.0000
  C   C1588     1.0  0.88770  0.13469  0.58645  1.0000
  C   C1589     1.0  0.85307  0.11389  0.70231  1.0000
  H   H1906     1.0  0.90721  0.14309  0.68654  1.0000
  H   H1907     1.0  0.88452  0.06096  0.72337  1.0000
  S   S426      1.0  0.97525  0.11235  0.87540  1.0000
  H   H1908     1.0  0.81349  0.10782  0.72047  1.0000
  C   C1590     1.0  0.90592  0.13602  0.62430  1.0000
  H   H1909     1.0  0.90236  0.16078  0.65629  1.0000
  H   H1910     1.0  0.76886  0.03794  0.60115  1.0000
  C   C1591     1.0  0.89934  0.14139  0.59276  1.0000
  H   H1911     1.0  0.89023  0.00658  0.94752  1.0000
  S   S427      1.0  0.79216  0.28934  0.86257  1.0000
  C   C1592     1.0  0.91198  0.15091  0.66256  1.0000
  S   S428      1.0  0.74843  0.21099  0.78773  1.0000
  H   H1912     1.0  0.90380  0.11957  0.67442  1.0000
  S   S429      1.0  0.97639  0.08021  0.84504  1.0000
  C   C1593     1.0  0.89984  0.12386  0.64922  1.0000
  H   H1913     1.0  0.81713  0.12716  0.71594  1.0000
  H   H1914     1.0  0.82296  0.30353  0.97164  1.0000
  C   C1594     1.0  0.95909  0.11836  0.98957  1.0000
  H   H1915     1.0  0.78971  0.09332  0.51442  1.0000
  H   H1916     1.0  0.76085  0.06593  0.60461  1.0000
  H   H1917     1.0  0.76746  0.22359  0.94945  1.0000
  H   H1918     1.0  0.80453  0.29788  0.92202  1.0000
  N   N106      1.0  0.90070  0.99167  0.99077  1.0000
  H   H1919     1.0  0.89994  0.98368  0.92519  1.0000
  H   H1920     1.0  0.74249  0.30978  0.70184  1.0000
  C   C1595     1.0  0.81490  0.18327  0.50649  1.0000
  H   H1921     1.0  0.93908  0.07771  0.96967  1.0000
  H   H1922     1.0  0.81018  0.13217  0.50811  1.0000
  C   C1596     1.0  0.90098  0.00443  0.95938  1.0000
  H   H1923     1.0  0.74464  0.26796  0.79085  1.0000
  H   H1924     1.0  0.73909  0.29428  0.75681  1.0000
  C   C1597     1.0  0.75841  0.06938  0.49839  1.0000
  H   H1925     1.0  0.76462  0.25924  0.99108  1.0000
  H   H1926     1.0  0.74750  0.25220  0.98933  1.0000
  C   C1598     1.0  0.81008  0.30653  0.97958  1.0000
  H   H1927     1.0  0.77987  0.31486  0.91111  1.0000
  H   H1928     1.0  0.92561  0.98559  0.98688  1.0000
  C   C1599     1.0  0.92804  0.07438  0.98527  1.0000
  H   H1929     1.0  0.91973  0.08539  0.98959  1.0000
  Fe  Fe217     1.0  0.76854  0.61031  0.12907  1.0000
  S   S430      1.0  0.78934  0.62020  0.09963  1.0000
  Fe  Fe218     1.0  0.78738  0.58284  0.16893  1.0000
  S   S431      1.0  0.81023  0.59044  0.14255  1.0000
  S   S432      1.0  0.78634  0.56054  0.20947  1.0000
  Fe  Fe219     1.0  0.79792  0.61456  0.15184  1.0000
  H   H1930     1.0  0.84426  0.59161  0.12190  1.0000
  Fe  Fe220     1.0  0.80014  0.59580  0.09204  1.0000
  S   S433      1.0  0.81524  0.59341  0.03811  1.0000
  S   S434      1.0  0.77601  0.60648  0.18202  1.0000
  S   S435      1.0  0.77848  0.58628  0.11755  1.0000
  C   C1600     1.0  0.76150  0.32647  0.00279  1.0000
  H   H1931     1.0  0.78856  0.58019  0.03453  1.0000
  C   C1601     1.0  0.78061  0.52627  0.16950  1.0000
  H   H1932     1.0  0.75610  0.32960  0.02850  1.0000
  H   H1933     1.0  0.78642  0.53346  0.18050  1.0000
  H   H1934     1.0  0.87944  0.59932  0.08178  1.0000
  H   H1935     1.0  0.78013  0.53029  0.06623  1.0000
  H   H1936     1.0  0.76917  0.55680  0.15599  1.0000
  H   H1937     1.0  0.82471  0.61553  0.06983  1.0000
  N   N107      1.0  0.84837  0.61081  0.07973  1.0000
  H   H1938     1.0  0.85545  0.62561  0.03059  1.0000
  C   C1602     1.0  0.76461  0.52492  0.12879  1.0000
  H   H1939     1.0  0.81671  0.55934  0.09025  1.0000
  H   H1940     1.0  0.75335  0.54657  0.16839  1.0000
  C   C1603     1.0  0.74021  0.55814  0.23772  1.0000
  H   H1941     1.0  0.77212  0.51403  0.12098  1.0000
  H   H1942     1.0  0.77380  0.61127  0.02214  1.0000
  H   H1943     1.0  0.79667  0.55095  0.13890  1.0000
  H   H1944     1.0  0.81874  0.55343  0.03045  1.0000
  C   C1604     1.0  0.76837  0.55494  0.23114  1.0000
  C   C1605     1.0  0.76842  0.54091  0.25565  1.0000
  H   H1945     1.0  0.84104  0.63379  0.12353  1.0000
  C   C1606     1.0  0.75378  0.62930  0.01299  1.0000
  C   C1607     1.0  0.88403  0.61234  0.11665  1.0000
  H   H1946     1.0  0.77936  0.53410  0.26244  1.0000
  H   H1947     1.0  0.83972  0.59006  0.08024  1.0000
  H   H1948     1.0  0.75389  0.57452  0.20403  1.0000
  H   H1949     1.0  0.75566  0.52139  0.15192  1.0000
  H   H1950     1.0  0.80028  0.53910  0.01908  1.0000
  C   C1608     1.0  0.83203  0.61949  0.08462  1.0000
  H   H1951     1.0  0.82642  0.61771  0.11305  1.0000
  C   C1609     1.0  0.80839  0.58916  0.00242  1.0000
  C   C1610     1.0  0.83967  0.62374  0.22503  1.0000
  C   C1611     1.0  0.82841  0.62264  0.20571  1.0000
  C   C1612     1.0  0.87440  0.60838  0.09745  1.0000
  H   H1952     1.0  0.84657  0.61321  0.23738  1.0000
  H   H1953     1.0  0.82671  0.61133  0.20340  1.0000
  H   H1954     1.0  0.85950  0.58644  0.08608  1.0000
  C   C1613     1.0  0.75413  0.56368  0.22276  1.0000
  C   C1614     1.0  0.85457  0.61319  0.04107  1.0000
  H   H1955     1.0  0.88551  0.62666  0.15319  1.0000
  C   C1615     1.0  0.81953  0.63614  0.18926  1.0000
  S   S436      1.0  0.85708  0.63900  0.25152  1.0000
  H   H1956     1.0  0.77143  0.52250  0.19178  1.0000
  H   H1957     1.0  0.76417  0.64516  0.15193  1.0000
  H   H1958     1.0  0.86631  0.60599  0.03457  1.0000
  C   C1616     1.0  0.77774  0.32365  0.99325  1.0000
  C   C1617     1.0  0.84798  0.59402  0.09253  1.0000
  C   C1618     1.0  0.79521  0.58239  0.00807  1.0000
  C   C1619     1.0  0.85849  0.61575  0.09900  1.0000
  C   C1620     1.0  0.75442  0.53554  0.27127  1.0000
  C   C1621     1.0  0.84216  0.63831  0.22836  1.0000
  C   C1622     1.0  0.87816  0.62378  0.13774  1.0000
  H   H1959     1.0  0.83134  0.63220  0.07474  1.0000
  S   S437      1.0  0.74514  0.62318  0.11719  1.0000
  H   H1960     1.0  0.75462  0.52468  0.28991  1.0000
  H   H1961     1.0  0.74039  0.42670  0.41301  1.0000
  S   S438      1.0  0.80569  0.63555  0.16306  1.0000
  H   H1962     1.0  0.75815  0.55633  0.12323  1.0000
  H   H1963     1.0  0.84690  0.60992  0.02587  1.0000
  H   H1964     1.0  0.74405  0.61216  0.19265  1.0000
  N   N108      1.0  0.77396  0.53492  0.13755  1.0000
  H   H1965     1.0  0.75806  0.53118  0.10704  1.0000
  H   H1966     1.0  0.74767  0.62573  0.03941  1.0000
  C   C1623     1.0  0.76317  0.54925  0.14664  1.0000
  C   C1624     1.0  0.78653  0.53932  0.10815  1.0000
  C   C1625     1.0  0.78795  0.53626  0.07325  1.0000
  C   C1626     1.0  0.79732  0.54771  0.11348  1.0000
  H   H1967     1.0  0.78938  0.51577  0.16342  1.0000
  C   C1627     1.0  0.80886  0.55259  0.08580  1.0000
  C   C1628     1.0  0.85295  0.62754  0.12038  1.0000
  C   C1629     1.0  0.86271  0.63143  0.13934  1.0000
  C   C1630     1.0  0.81002  0.54928  0.05207  1.0000
  C   C1631     1.0  0.79956  0.54121  0.04576  1.0000
  C   C1632     1.0  0.76871  0.62078  0.00325  1.0000
  H   H1968     1.0  0.89607  0.60638  0.11557  1.0000
  H   H1969     1.0  0.78430  0.32512  0.01210  1.0000
  H   H1970     1.0  0.85818  0.64025  0.15602  1.0000
  C   C1633     1.0  0.74025  0.54406  0.26203  1.0000
  Fe  Fe221     1.0  0.79796  0.58340  0.85252  1.0000
  S   S439      1.0  0.81077  0.60310  0.82784  1.0000
  S   S440      1.0  0.79536  0.57219  0.91130  1.0000
  Fe  Fe222     1.0  0.78271  0.58610  0.78625  1.0000
  S   S441      1.0  0.79404  0.60645  0.75792  1.0000
  S   S442      1.0  0.76356  0.58200  0.76014  1.0000
  Fe  Fe223     1.0  0.81574  0.59298  0.77782  1.0000
  S   S443      1.0  0.83730  0.59385  0.73514  1.0000
  Fe  Fe224     1.0  0.78835  0.61496  0.80952  1.0000
  H   H1971     1.0  0.80475  0.31678  0.89389  1.0000
  S   S444      1.0  0.80492  0.57175  0.80367  1.0000
  S   S445      1.0  0.77507  0.59604  0.83660  1.0000
  H   H1972     1.0  0.76099  0.61943  0.74381  1.0000
  C   C1634     1.0  0.75049  0.38689  0.70084  1.0000
  C   C1635     1.0  0.81246  0.58760  0.93921  1.0000
  C   C1636     1.0  0.84680  0.61882  0.74990  1.0000
  C   C1637     1.0  0.76879  0.53747  0.74237  1.0000
  H   H1973     1.0  0.73954  0.38097  0.79047  1.0000
  H   H1974     1.0  0.80172  0.33993  0.92088  1.0000
  H   H1975     1.0  0.90980  0.62337  0.66617  1.0000
  S   S446      1.0  0.75532  0.52205  0.70658  1.0000
  C   C1638     1.0  0.74572  0.64723  0.75834  1.0000
  C   C1639     1.0  0.75631  0.32675  0.74604  1.0000
  H   H1976     1.0  0.76692  0.62056  0.87259  1.0000
  C   C1640     1.0  0.74929  0.55375  0.70940  1.0000
  C   C1641     1.0  0.75224  0.32503  0.97967  1.0000
  C   C1642     1.0  0.74513  0.43267  0.72185  1.0000
  C   C1643     1.0  0.77694  0.62416  0.96899  1.0000
  H   H1977     1.0  0.78131  0.57180  0.98465  1.0000
  H   H1978     1.0  0.82709  0.59709  0.96302  1.0000
  C   C1644     1.0  0.74864  0.62281  0.73955  1.0000
  H   H1979     1.0  0.74888  0.62870  0.71142  1.0000
  H   H1980     1.0  0.74843  0.45264  0.51107  1.0000
  C   C1645     1.0  0.86173  0.62727  0.67986  1.0000
  C   C1646     1.0  0.91483  0.64250  0.68425  1.0000
  C   C1647     1.0  0.75870  0.32078  0.78114  1.0000
  C   C1648     1.0  0.76231  0.56530  0.74375  1.0000
  H   H1981     1.0  0.75187  0.44074  0.70386  1.0000
  H   H1982     1.0  0.78833  0.61725  0.96122  1.0000
  C   C1649     1.0  0.75778  0.53894  0.72034  1.0000
  C   C1650     1.0  0.77102  0.55054  0.75410  1.0000
  H   H1983     1.0  0.76269  0.38806  0.70003  1.0000
  H   H1984     1.0  0.75271  0.62128  0.80498  1.0000
  H   H1985     1.0  0.77937  0.54916  0.77145  1.0000
  C   C1651     1.0  0.81688  0.59187  0.96779  1.0000
  C   C1652     1.0  0.75155  0.56683  0.72104  1.0000
  C   C1653     1.0  0.77036  0.63621  0.94447  1.0000
  C   C1654     1.0  0.84623  0.61041  0.72404  1.0000
  C   C1655     1.0  0.85371  0.61472  0.68900  1.0000
  H   H1986     1.0  0.92902  0.62598  0.61047  1.0000
  C   C1656     1.0  0.85526  0.63100  0.74104  1.0000
  H   H1987     1.0  0.75641  0.41397  0.69515  1.0000
  H   H1988     1.0  0.85343  0.60819  0.66893  1.0000
  H   H1989     1.0  0.82366  0.64675  0.73061  1.0000
  C   C1657     1.0  0.75859  0.63121  0.86761  1.0000
  C   C1658     1.0  0.79974  0.58013  0.94515  1.0000
  C   C1659     1.0  0.78524  0.31904  0.96029  1.0000
  C   C1660     1.0  0.92767  0.63375  0.62914  1.0000
  H   H1990     1.0  0.81931  0.58944  0.91285  1.0000
  H   H1991     1.0  0.84123  0.61550  0.77703  1.0000
  N   N109      1.0  0.80245  0.31663  0.95023  1.0000
  C   C1661     1.0  0.80728  0.33195  0.94265  1.0000
  C   C1662     1.0  0.75916  0.32087  0.94682  1.0000
  H   H1992     1.0  0.77558  0.52611  0.75061  1.0000
  C   C1663     1.0  0.74748  0.41722  0.71696  1.0000
  H   H1993     1.0  0.82907  0.64307  0.68630  1.0000
  H   H1994     1.0  0.75192  0.31993  0.92863  1.0000
  H   H1995     1.0  0.80386  0.33779  0.96630  1.0000
  H   H1996     1.0  0.76484  0.32270  0.72425  1.0000
  C   C1664     1.0  0.74812  0.32639  0.80946  1.0000
  H   H1997     1.0  0.86759  0.63034  0.65289  1.0000
  S   S447      1.0  0.77980  0.64046  0.80976  1.0000
  C   C1665     1.0  0.74675  0.64177  0.98880  1.0000
  H   H1998     1.0  0.74635  0.42932  0.55806  1.0000
  H   H1999     1.0  0.75124  0.37468  0.69734  1.0000
  C   C1666     1.0  0.86279  0.63526  0.70605  1.0000
  C   C1667     1.0  0.79111  0.57763  0.97973  1.0000
  H   H2000     1.0  0.85609  0.63706  0.76151  1.0000
  C   C1668     1.0  0.91691  0.63226  0.66051  1.0000
  H   H2001     1.0  0.74597  0.39467  0.67746  1.0000
  H   H2002     1.0  0.75861  0.38252  0.76559  1.0000
  C   C1669     1.0  0.74090  0.43096  0.53494  1.0000
  S   S448      1.0  0.75166  0.32024  0.85347  1.0000
  C   C1670     1.0  0.74201  0.44409  0.50859  1.0000
  H   H2003     1.0  0.74446  0.61167  0.74334  1.0000
  C   C1671     1.0  0.76268  0.64338  0.84067  1.0000
  H   H2004     1.0  0.75837  0.64435  0.76007  1.0000
  H   H2005     1.0  0.77667  0.63857  0.91754  1.0000
  C   C1672     1.0  0.77539  0.31794  0.93706  1.0000
  C   C1673     1.0  0.75551  0.64494  0.95404  1.0000
  C   C1674     1.0  0.74311  0.33803  0.73901  1.0000
  H   H2006     1.0  0.90609  0.64100  0.70783  1.0000
  C   C1675     1.0  0.74719  0.37985  0.76436  1.0000
  H   H2007     1.0  0.82015  0.33080  0.93446  1.0000
  S   S449      1.0  0.74108  0.34574  0.69438  1.0000
  H   H2008     1.0  0.73966  0.32718  0.98716  1.0000
  N   N110      1.0  0.74024  0.39030  0.73460  1.0000
  C   C1676     1.0  0.74359  0.63274  0.88799  1.0000
  H   H2009     1.0  0.74492  0.57822  0.71240  1.0000
  H   H2010     1.0  0.74920  0.36737  0.76157  1.0000
  H   H2011     1.0  0.74025  0.62310  0.90791  1.0000
  H   H2012     1.0  0.74125  0.55513  0.69139  1.0000
  C   C1677     1.0  0.93643  0.64548  0.62146  1.0000
  H   H2013     1.0  0.94461  0.64676  0.59669  1.0000
  H   H2014     1.0  0.80889  0.64691  0.70528  1.0000
  H   H2015     1.0  0.73849  0.49021  0.51501  1.0000
  C   C1678     1.0  0.73823  0.40669  0.73919  1.0000
  N   N111      1.0  0.73896  0.63298  0.76462  1.0000
  C   C1679     1.0  0.74033  0.62449  0.80110  1.0000
  Fe  Fe225     1.0  0.79779  0.77500  0.34141  1.0000
  S   S450      1.0  0.82284  0.76320  0.33604  1.0000
  C   C1680     1.0  0.76535  0.69067  0.14572  1.0000
  H   H2016     1.0  0.80105  0.75039  0.31182  1.0000
  S   S451      1.0  0.78964  0.79798  0.35974  1.0000
  N   N112      1.0  0.78735  0.69945  0.24294  1.0000
  Fe  Fe226     1.0  0.85197  0.69555  0.25555  1.0000
  S   S452      1.0  0.84502  0.67611  0.29805  1.0000
  S   S453      1.0  0.83249  0.71393  0.23687  1.0000
  Fe  Fe227     1.0  0.88641  0.68240  0.25011  1.0000
  H   H2017     1.0  0.90168  0.82357  0.06379  1.0000
  S   S454      1.0  0.91103  0.68605  0.22432  1.0000
  H   H2018     1.0  0.86098  0.95215  0.07299  1.0000
  C   C1681     1.0  0.98178  0.84320  0.11017  1.0000
  Fe  Fe228     1.0  0.86485  0.67837  0.32283  1.0000
  S   S455      1.0  0.85937  0.68257  0.38052  1.0000
  S   S456      1.0  0.86841  0.68044  0.21966  1.0000
  S   S457      1.0  0.87031  0.69925  0.28240  1.0000
  C   C1682     1.0  0.89253  0.66485  0.44453  1.0000
  Fe  Fe229     1.0  0.94958  0.76075  0.12148  1.0000
  S   S458      1.0  0.96078  0.77927  0.13175  1.0000
  S   S459      1.0  0.92784  0.75305  0.15679  1.0000
  Fe  Fe230     1.0  0.96834  0.76125  0.04661  1.0000
  H   H2019     1.0  0.80625  0.73587  0.37481  1.0000
  H   H2020     1.0  0.89157  0.71264  0.31789  1.0000
  C   C1683     1.0  0.73828  0.81716  0.22621  1.0000
  H   H2021     1.0  0.90949  0.71993  0.30761  1.0000
  Fe  Fe231     1.0  0.95763  0.79123  0.07646  1.0000
  S   S460      1.0  0.94923  0.81697  0.05976  1.0000
  S   S461      1.0  0.97253  0.74685  0.09947  1.0000
  S   S462      1.0  0.94481  0.77399  0.06797  1.0000
  Fe  Fe232     1.0  0.85263  0.88892  0.10140  1.0000
  S   S463      1.0  0.87512  0.89212  0.11366  1.0000
  S   S464      1.0  0.84930  0.89893  0.04491  1.0000
  Fe  Fe233     1.0  0.83979  0.87637  0.17854  1.0000
  S   S465      1.0  0.86114  0.87946  0.19548  1.0000
  S   S466      1.0  0.82495  0.86669  0.22972  1.0000
  Fe  Fe234     1.0  0.85952  0.90253  0.15911  1.0000
  S   S467      1.0  0.85881  0.92456  0.18009  1.0000
  Fe  Fe235     1.0  0.87457  0.86871  0.14892  1.0000
  S   S468      1.0  0.89230  0.84743  0.16522  1.0000
  S   S469      1.0  0.83706  0.90042  0.14545  1.0000
  S   S470      1.0  0.85334  0.86460  0.13306  1.0000
  C   C1684     1.0  0.75024  0.69469  0.09880  1.0000
  H   H2022     1.0  0.85283  0.83145  0.16451  1.0000
  C   C1685     1.0  0.86966  0.93923  0.15805  1.0000
  C   C1686     1.0  0.86619  0.95354  0.17015  1.0000
  Fe  Fe236     1.0  0.77512  0.80330  0.31648  1.0000
  C   C1687     1.0  0.88731  0.96277  0.12631  1.0000
  C   C1688     1.0  0.89074  0.94849  0.11409  1.0000
  C   C1689     1.0  0.88187  0.93682  0.12965  1.0000
  H   H2023     1.0  0.85677  0.95550  0.19213  1.0000
  S   S471      1.0  0.78482  0.78088  0.29574  1.0000
  H   H2024     1.0  0.90048  0.94629  0.09296  1.0000
  H   H2025     1.0  0.88475  0.92581  0.12031  1.0000
  C   C1690     1.0  0.83841  0.89911  0.26708  1.0000
  H   H2026     1.0  0.76384  0.71097  0.16873  1.0000
  C   C1691     1.0  0.93326  0.82546  0.08867  1.0000
  C   C1692     1.0  0.92624  0.84111  0.07939  1.0000
  C   C1693     1.0  0.91362  0.84810  0.10260  1.0000
  C   C1694     1.0  0.90815  0.83946  0.13529  1.0000
  C   C1695     1.0  0.91543  0.82395  0.14483  1.0000
  C   C1696     1.0  0.92779  0.81689  0.12139  1.0000
  H   H2027     1.0  0.93047  0.84781  0.05411  1.0000
  H   H2028     1.0  0.90814  0.86013  0.09524  1.0000
  H   H2029     1.0  0.91141  0.81733  0.17040  1.0000
  H   H2030     1.0  0.93313  0.80484  0.12884  1.0000
  C   C1697     1.0  0.74600  0.74729  0.29435  1.0000
  H   H2031     1.0  0.93516  0.70047  0.30525  1.0000
  C   C1698     1.0  0.86272  0.78888  0.22120  1.0000
  C   C1699     1.0  0.91557  0.70470  0.20508  1.0000
  C   C1700     1.0  0.93100  0.70597  0.18919  1.0000
  C   C1701     1.0  0.93499  0.72063  0.17388  1.0000
  C   C1702     1.0  0.92356  0.73418  0.17456  1.0000
  C   C1703     1.0  0.90814  0.73286  0.19048  1.0000
  C   C1704     1.0  0.90414  0.71823  0.20552  1.0000
  H   H2032     1.0  0.93992  0.69555  0.18872  1.0000
  H   H2033     1.0  0.94693  0.72145  0.16210  1.0000
  H   H2034     1.0  0.89919  0.74321  0.19112  1.0000
  H   H2035     1.0  0.89220  0.71744  0.21740  1.0000
  C   C1705     1.0  0.86984  0.67747  0.41676  1.0000
  C   C1706     1.0  0.88455  0.66778  0.41551  1.0000
  H   H2036     1.0  0.74622  0.72827  0.13012  1.0000
  C   C1707     1.0  0.74747  0.74675  0.23175  1.0000
  H   H2037     1.0  0.96072  0.81448  0.13697  1.0000
  H   H2038     1.0  0.88427  0.84563  0.08923  1.0000
  H   H2039     1.0  0.80480  0.73177  0.27124  1.0000
  H   H2040     1.0  0.85175  0.69103  0.44937  1.0000
  C   C1708     1.0  0.90772  0.72496  0.09622  1.0000
  H   H2041     1.0  0.75213  0.75063  0.20421  1.0000
  H   H2042     1.0  0.77295  0.68345  0.16339  1.0000
  C   C1709     1.0  0.78818  0.83538  0.25985  1.0000
  C   C1710     1.0  0.79173  0.84288  0.22446  1.0000
  C   C1711     1.0  0.80322  0.85226  0.21438  1.0000
  C   C1712     1.0  0.81091  0.85455  0.23992  1.0000
  C   C1713     1.0  0.80725  0.84716  0.27530  1.0000
  C   C1714     1.0  0.79616  0.83740  0.28511  1.0000
  H   H2043     1.0  0.80581  0.85801  0.18712  1.0000
  H   H2044     1.0  0.81307  0.84892  0.29529  1.0000
  H   H2045     1.0  0.79341  0.83185  0.31249  1.0000
  H   H2046     1.0  0.74938  0.78404  0.28285  1.0000
  C   C1715     1.0  0.82557  0.75018  0.30683  1.0000
  C   C1716     1.0  0.84061  0.74387  0.29139  1.0000
  C   C1717     1.0  0.84272  0.73322  0.26848  1.0000
  C   C1718     1.0  0.82982  0.72873  0.26147  1.0000
  C   C1719     1.0  0.81478  0.73526  0.27640  1.0000
  C   C1720     1.0  0.81267  0.74592  0.29922  1.0000
  H   H2047     1.0  0.85059  0.74727  0.29698  1.0000
  H   H2048     1.0  0.85431  0.72864  0.25585  1.0000
  C   C1721     1.0  0.83318  0.72047  0.39386  1.0000
  H   H2049     1.0  0.88974  0.66246  0.39242  1.0000
  H   H2050     1.0  0.76050  0.75965  0.25177  1.0000
  H   H2051     1.0  0.79704  0.66826  0.23985  1.0000
  C   C1722     1.0  0.81959  0.71685  0.47165  1.0000
  H   H2052     1.0  0.94796  0.70409  0.03773  1.0000
  H   H2053     1.0  0.94647  0.74318  0.05322  1.0000
  C   C1723     1.0  0.84532  0.88754  0.01773  1.0000
  H   H2054     1.0  0.90438  0.73719  0.08573  1.0000
  H   H2055     1.0  0.96148  0.82846  0.16331  1.0000
  H   H2056     1.0  0.98140  0.80838  0.08940  1.0000
  C   C1724     1.0  0.81933  0.69909  0.41442  1.0000
  H   H2057     1.0  0.78139  0.64927  0.23944  1.0000
  H   H2058     1.0  0.82394  0.69446  0.38916  1.0000
  H   H2059     1.0  0.78922  0.66699  0.12486  1.0000
  C   C1725     1.0  0.89887  0.83371  0.00971  1.0000
  H   H2060     1.0  0.84191  0.71486  0.41132  1.0000
  C   C1726     1.0  0.85686  0.93918  0.03666  1.0000
  H   H2061     1.0  0.94220  0.73283  0.09777  1.0000
  H   H2062     1.0  0.88588  0.70653  0.43746  1.0000
  N   N113      1.0  0.81765  0.71628  0.40862  1.0000
  C   C1727     1.0  0.87678  0.80791  0.18180  1.0000
  C   C1728     1.0  0.88872  0.79587  0.17132  1.0000
  C   C1729     1.0  0.88776  0.78043  0.18579  1.0000
  H   H2063     1.0  0.84218  0.80632  0.27008  1.0000
  H   H2064     1.0  0.87815  0.81972  0.16995  1.0000
  H   H2065     1.0  0.89884  0.79849  0.15197  1.0000
  H   H2066     1.0  0.89715  0.77118  0.17774  1.0000
  C   C1730     1.0  0.75056  0.79381  0.26012  1.0000
  H   H2067     1.0  0.79873  0.77446  0.44635  1.0000
  C   C1731     1.0  0.92471  0.69360  0.41548  1.0000
  H   H2068     1.0  0.79595  0.71975  0.38937  1.0000
  H   H2069     1.0  0.89160  0.68500  0.34003  1.0000
  H   H2070     1.0  0.90973  0.69878  0.46405  1.0000
  H   H2071     1.0  0.88529  0.72459  0.12998  1.0000
  H   H2072     1.0  0.80796  0.69542  0.42607  1.0000
  C   C1732     1.0  0.91520  0.69368  0.12686  1.0000
  H   H2073     1.0  0.80915  0.92616  0.32471  1.0000
  H   H2074     1.0  0.76136  0.66859  0.06543  1.0000
  H   H2075     1.0  0.91766  0.74054  0.02885  1.0000
  H   H2076     1.0  0.90488  0.70908  0.27880  1.0000
  C   C1733     1.0  0.80863  0.76881  0.45946  1.0000
  H   H2077     1.0  0.75474  0.70387  0.24540  1.0000
  H   H2078     1.0  0.83244  0.73331  0.38940  1.0000
  C   C1734     1.0  0.78875  0.89709  0.35390  1.0000
  H   H2079     1.0  0.78594  0.67201  0.07969  1.0000
  H   H2080     1.0  0.78942  0.91758  0.37329  1.0000
  H   H2081     1.0  0.80638  0.70932  0.20876  1.0000
  C   C1735     1.0  0.77574  0.66128  0.24077  1.0000
  C   C1736     1.0  0.81128  0.72191  0.44278  1.0000
  N   N114      1.0  0.93434  0.72439  0.05851  1.0000
  C   C1737     1.0  0.92788  0.73096  0.02530  1.0000
  C   C1738     1.0  0.93764  0.73723  0.07240  1.0000
  H   H2082     1.0  0.81533  0.66125  0.17962  1.0000
  C   C1739     1.0  0.92288  0.71654  0.08529  1.0000
  S   S472      1.0  0.88214  0.66131  0.29199  1.0000
  C   C1740     1.0  0.75826  0.66253  0.09315  1.0000
  N   N115      1.0  0.91227  0.69522  0.32677  1.0000
  H   H2083     1.0  0.81713  0.90137  0.22733  1.0000
  H   H2084     1.0  0.81813  0.93607  0.26528  1.0000
  H   H2085     1.0  0.93659  0.73601  0.00370  1.0000
  C   C1741     1.0  0.85897  0.95254  0.04639  1.0000
  C   C1742     1.0  0.92634  0.70063  0.10156  1.0000
  H   H2086     1.0  0.85714  0.92840  0.05582  1.0000
  H   H2087     1.0  0.90658  0.82369  0.00044  1.0000
  H   H2088     1.0  0.76940  0.71583  0.26943  1.0000
  H   H2089     1.0  0.78728  0.65224  0.10308  1.0000
  H   H2090     1.0  0.88673  0.70456  0.37593  1.0000
  N   N116      1.0  0.98031  0.82652  0.11873  1.0000
  C   C1743     1.0  0.89668  0.71787  0.12148  1.0000
  H   H2091     1.0  0.74547  0.69098  0.07957  1.0000
  C   C1744     1.0  0.79475  0.88820  0.32721  1.0000
  H   H2092     1.0  0.77994  0.89339  0.37584  1.0000
  H   H2093     1.0  0.92712  0.74632  0.07792  1.0000
  H   H2094     1.0  0.92420  0.72183  0.01537  1.0000
  H   H2095     1.0  0.83738  0.92948  0.24336  1.0000
  H   H2096     1.0  0.82720  0.91703  0.20899  1.0000
  C   C1745     1.0  0.85835  0.96641  0.02196  1.0000
  Fe  Fe237     1.0  0.98348  0.76654  0.10474  1.0000
  H   H2097     1.0  0.78688  0.69311  0.29935  1.0000
  Fe  Fe238     1.0  0.76538  0.77128  0.33435  1.0000
  H   H2098     1.0  0.85303  0.78529  0.24051  1.0000
  H   H2099     1.0  0.78944  0.73667  0.42877  1.0000
  H   H2100     1.0  0.84812  0.83807  0.24168  1.0000
  H   H2101     1.0  0.89200  0.69688  0.15707  1.0000
  H   H2102     1.0  0.81045  0.88555  0.27909  1.0000
  C   C1746     1.0  0.91200  0.69690  0.36374  1.0000
  H   H2103     1.0  0.90437  0.68043  0.30030  1.0000
  C   C1747     1.0  0.81186  0.90671  0.29639  1.0000
  H   H2104     1.0  0.84807  0.90242  0.24556  1.0000
  H   H2105     1.0  0.84255  0.89714  0.29285  1.0000
  C   C1748     1.0  0.83951  0.86366  0.00826  1.0000
  H   H2106     1.0  0.74516  0.82441  0.23428  1.0000
  C   C1749     1.0  0.77828  0.71546  0.24470  1.0000
  C   C1750     1.0  0.80613  0.89290  0.29894  1.0000
  C   C1751     1.0  0.86311  0.68374  0.44776  1.0000
  H   H2107     1.0  0.97588  0.82772  0.06609  1.0000
  H   H2108     1.0  0.97250  0.85053  0.09550  1.0000
  S   S473      1.0  0.75453  0.79418  0.35247  1.0000
  N   N117      1.0  0.82407  0.91126  0.26623  1.0000
  H   H2109     1.0  0.95544  0.70924  0.07247  1.0000
  C   C1752     1.0  0.78463  0.67228  0.24087  1.0000
  H   H2110     1.0  0.94440  0.77085  0.99577  1.0000
  Fe  Fe239     1.0  0.77004  0.78690  0.39423  1.0000
  H   H2111     1.0  0.83505  0.66311  0.21416  1.0000
  C   C1753     1.0  0.89611  0.83342  0.04639  1.0000
  C   C1754     1.0  0.76039  0.70639  0.14874  1.0000
  H   H2112     1.0  0.85978  0.97684  0.02971  1.0000
  C   C1755     1.0  0.79675  0.73230  0.44873  1.0000
  H   H2113     1.0  0.83343  0.92582  0.29055  1.0000
  H   H2114     1.0  0.93695  0.68848  0.36563  1.0000
  S   S474      1.0  0.89896  0.97701  0.10628  1.0000
  S   S475      1.0  0.97380  0.74893  0.99947  1.0000
  C   C1756     1.0  0.76030  0.68429  0.12084  1.0000
  C   C1757     1.0  0.75242  0.68106  0.24412  1.0000
  C   C1758     1.0  0.90041  0.70225  0.13668  1.0000
  C   C1759     1.0  0.81865  0.91271  0.23212  1.0000
  C   C1760     1.0  0.84403  0.82652  0.18592  1.0000
  C   C1761     1.0  0.88582  0.67137  0.47530  1.0000
  H   H2115     1.0  0.78551  0.84149  0.20480  1.0000
  C   C1762     1.0  0.88641  0.84588  0.06080  1.0000
  H   H2116     1.0  0.95775  0.72024  0.02865  1.0000
  H   H2117     1.0  0.79060  0.87756  0.32837  1.0000
  S   S476      1.0  0.98100  0.77972  0.05008  1.0000
  C   C1763     1.0  0.90408  0.68247  0.32750  1.0000
  C   C1764     1.0  0.92824  0.69145  0.30621  1.0000
  H   H2118     1.0  0.80365  0.68307  0.27328  1.0000
  H   H2119     1.0  0.83709  0.85208  0.01865  1.0000
  C   C1765     1.0  0.83413  0.75256  0.45857  1.0000
  H   H2120     1.0  0.89922  0.96411  0.03714  1.0000
  C   C1766     1.0  0.89767  0.70199  0.38558  1.0000
  C   C1767     1.0  0.82200  0.65073  0.19254  1.0000
  H   H2121     1.0  0.79382  0.70336  0.18599  1.0000
  Fe  Fe240     1.0  0.86253  0.66091  0.26370  1.0000
  N   N118      1.0  0.76566  0.66760  0.11824  1.0000
  C   C1768     1.0  0.89700  0.70304  0.42101  1.0000
  C   C1769     1.0  0.76119  0.69217  0.24413  1.0000
  H   H2122     1.0  0.82168  0.75877  0.41446  1.0000
  H   H2123     1.0  0.85206  0.92903  0.99684  1.0000
  C   C1770     1.0  0.75964  0.66565  0.24263  1.0000
  H   H2124     1.0  0.93762  0.69335  0.09573  1.0000
  H   H2125     1.0  0.84137  0.86802  0.05929  1.0000
  C   C1771     1.0  0.87479  0.77693  0.21059  1.0000
  H   H2126     1.0  0.86574  0.83468  0.21111  1.0000
  H   H2127     1.0  0.83470  0.83656  0.19258  1.0000
  C   C1772     1.0  0.86339  0.80481  0.20712  1.0000
  C   C1773     1.0  0.83796  0.81266  0.24513  1.0000
  H   H2128     1.0  0.83192  0.80511  0.23574  1.0000
  C   C1774     1.0  0.84197  0.87265  0.03125  1.0000
  H   H2129     1.0  0.89648  0.93930  0.02506  1.0000
  H   H2130     1.0  0.87214  0.97622  0.16392  1.0000
  H   H2131     1.0  0.83659  0.88772  0.26324  1.0000
  H   H2132     1.0  0.87409  0.76486  0.22171  1.0000
  H   H2133     1.0  0.82881  0.82270  0.25241  1.0000
  C   C1775     1.0  0.85739  0.82864  0.23163  1.0000
  N   N119      1.0  0.85086  0.81782  0.21750  1.0000
  S   S477      1.0  0.76138  0.78422  0.45398  1.0000
  C   C1776     1.0  0.94949  0.71393  0.04905  1.0000
  H   H2134     1.0  0.86362  0.82236  0.25386  1.0000
  H   H2135     1.0  0.91815  0.68168  0.13991  1.0000
  H   H2136     1.0  0.80732  0.92095  0.23128  1.0000
  S   S478      1.0  0.77945  0.76349  0.37832  1.0000
  H   H2137     1.0  0.83886  0.81888  0.17458  1.0000
  C   C1777     1.0  0.82834  0.92633  0.26664  1.0000
  H   H2138     1.0  0.76958  0.65851  0.17223  1.0000
  H   H2139     1.0  0.93456  0.67982  0.31735  1.0000
  H   H2140     1.0  0.75269  0.65709  0.24294  1.0000
  C   C1778     1.0  0.87966  0.85881  0.03860  1.0000
  C   C1779     1.0  0.76212  0.65776  0.15359  1.0000
  H   H2141     1.0  0.74534  0.66471  0.10098  1.0000
  H   H2142     1.0  0.93508  0.68998  0.42759  1.0000
  C   C1780     1.0  0.79111  0.73742  0.48125  1.0000
  S   S479      1.0  0.77309  0.82439  0.27224  1.0000
  C   C1781     1.0  0.79411  0.91072  0.35237  1.0000
  H   H2143     1.0  0.78587  0.72376  0.24474  1.0000
  C   C1782     1.0  0.91045  0.69868  0.43606  1.0000
  H   H2144     1.0  0.90953  0.67132  0.34278  1.0000
  C   C1783     1.0  0.79930  0.70034  0.21019  1.0000
  C   C1784     1.0  0.88219  0.85916  0.00197  1.0000
  H   H2145     1.0  0.97945  0.79693  0.15762  1.0000
  C   C1785     1.0  0.87489  0.96530  0.15421  1.0000
  S   S480      1.0  0.75064  0.75416  0.32953  1.0000
  H   H2146     1.0  0.83060  0.70885  0.46938  1.0000
  C   C1786     1.0  0.80551  0.91553  0.32412  1.0000
  C   C1787     1.0  0.90421  0.70986  0.30710  1.0000
  H   H2147     1.0  0.83814  0.71661  0.36779  1.0000
  H   H2148     1.0  0.80256  0.70289  0.27558  1.0000
  H   H2149     1.0  0.92798  0.69088  0.27813  1.0000
  H   H2150     1.0  0.80782  0.68922  0.20882  1.0000
  C   C1788     1.0  0.92557  0.69274  0.37979  1.0000
  C   C1789     1.0  0.77764  0.68808  0.24267  1.0000
  C   C1790     1.0  0.80768  0.72295  0.38106  1.0000
  H   H2151     1.0  0.81290  0.71868  0.35559  1.0000
  H   H2152     1.0  0.78038  0.80759  0.44965  1.0000
  C   C1791     1.0  0.85404  0.93965  0.00260  1.0000
  C   C1792     1.0  0.82152  0.75992  0.44156  1.0000
  C   C1793     1.0  0.75218  0.75196  0.25866  1.0000
  H   H2153     1.0  0.98083  0.84794  0.13479  1.0000
  C   C1794     1.0  0.79541  0.69439  0.27414  1.0000
  C   C1795     1.0  0.75043  0.71621  0.12694  1.0000
  H   H2154     1.0  0.82767  0.69301  0.43254  1.0000
  H   H2155     1.0  0.74972  0.66118  0.16600  1.0000
  H   H2156     1.0  0.87235  0.86862  0.04987  1.0000
  H   H2157     1.0  0.75836  0.80067  0.26591  1.0000
  H   H2158     1.0  0.75662  0.78864  0.23624  1.0000
  H   H2159     1.0  0.95540  0.83443  0.12066  1.0000
  C   C1796     1.0  0.96386  0.82592  0.13584  1.0000
  H   H2160     1.0  0.77226  0.72024  0.22142  1.0000
  C   C1797     1.0  0.74540  0.71038  0.10203  1.0000
  C   C1798     1.0  0.78275  0.66462  0.10586  1.0000
  H   H2161     1.0  0.90398  0.65752  0.44317  1.0000
  C   C1799     1.0  0.77685  0.80283  0.47731  1.0000
  C   C1800     1.0  0.89882  0.96339  0.01013  1.0000
  C   C1801     1.0  0.83318  0.65183  0.21211  1.0000
  C   C1802     1.0  0.98350  0.82050  0.08500  1.0000
  C   C1803     1.0  0.89728  0.94913  0.00345  1.0000
  H   H2162     1.0  0.76203  0.64981  0.09272  1.0000
  C   C1804     1.0  0.87096  0.68070  0.47685  1.0000
  H   H2163     1.0  0.78010  0.74558  0.48487  1.0000
  C   C1805     1.0  0.76755  0.79145  0.48644  1.0000
  H   H2164     1.0  0.84412  0.74560  0.44455  1.0000
  H   H2165     1.0  0.74536  0.81341  0.20142  1.0000
  H   H2166     1.0  0.73988  0.68440  0.24548  1.0000
  H   H2167     1.0  0.91503  0.98172  0.03130  1.0000
  Fe  Fe241     1.0  0.88626  0.67666  0.56331  1.0000
  S   S481      1.0  0.86430  0.67034  0.59825  1.0000
  S   S482      1.0  0.89653  0.66822  0.51051  1.0000
  Fe  Fe242     1.0  0.89168  0.69586  0.61555  1.0000
  S   S483      1.0  0.86985  0.69134  0.65313  1.0000
  S   S484      1.0  0.90903  0.70987  0.62317  1.0000
  Fe  Fe243     1.0  0.87698  0.66660  0.64406  1.0000
  H   H2168     1.0  0.84548  0.76035  0.54966  1.0000
  Fe  Fe244     1.0  0.85897  0.69538  0.60449  1.0000
  S   S485      1.0  0.83448  0.70832  0.60259  1.0000
  S   S486      1.0  0.89968  0.67073  0.60897  1.0000
  S   S487      1.0  0.88005  0.70212  0.56697  1.0000
  Fe  Fe245     1.0  0.78454  0.81049  0.70063  1.0000
  S   S488      1.0  0.80183  0.80133  0.65596  1.0000
  S   S489      1.0  0.78528  0.83101  0.72591  1.0000
  Fe  Fe246     1.0  0.79903  0.77778  0.68718  1.0000
  S   S490      1.0  0.82122  0.76086  0.69499  1.0000
  H   H2169     1.0  0.80550  0.77962  0.82598  1.0000
  S   S491      1.0  0.78321  0.78688  0.73368  1.0000
  Fe  Fe247     1.0  0.87737  0.86329  0.83257  1.0000
  S   S492      1.0  0.86588  0.87537  0.78569  1.0000
  S   S493      1.0  0.90197  0.85053  0.83609  1.0000
  Fe  Fe248     1.0  0.84685  0.86633  0.88499  1.0000
  S   S494      1.0  0.83267  0.87808  0.84234  1.0000
  S   S495      1.0  0.83838  0.85778  0.94298  1.0000
  Fe  Fe249     1.0  0.84754  0.86048  0.80922  1.0000
  S   S496      1.0  0.84382  0.84201  0.78062  1.0000
  Fe  Fe250     1.0  0.85206  0.89208  0.82240  1.0000
  S   S497      1.0  0.84518  0.91866  0.80910  1.0000
  S   S498      1.0  0.86003  0.84783  0.85411  1.0000
  S   S499      1.0  0.86526  0.88099  0.86712  1.0000
  H   H2170     1.0  0.79510  0.73615  0.53413  1.0000
  Fe  Fe251     1.0  0.93910  0.76102  0.83279  1.0000
  S   S500      1.0  0.95589  0.77577  0.79988  1.0000
  S   S501      1.0  0.92801  0.76566  0.88791  1.0000
  Fe  Fe252     1.0  0.93779  0.74546  0.76993  1.0000
  S   S502      1.0  0.95499  0.75901  0.73257  1.0000
  S   S503      1.0  0.92178  0.73062  0.75975  1.0000
  Fe  Fe253     1.0  0.96835  0.75414  0.77844  1.0000
  Fe  Fe254     1.0  0.94123  0.77944  0.75794  1.0000
  S   S504      1.0  0.93060  0.80287  0.73001  1.0000
  S   S505      1.0  0.95210  0.73890  0.81414  1.0000
  S   S506      1.0  0.92356  0.76634  0.79235  1.0000
  C   C1806     1.0  0.90938  0.83732  0.80648  1.0000
  C   C1807     1.0  0.91790  0.82266  0.81846  1.0000
  C   C1808     1.0  0.92420  0.81200  0.79521  1.0000
  C   C1809     1.0  0.92238  0.81607  0.75956  1.0000
  C   C1810     1.0  0.91370  0.83069  0.74763  1.0000
  C   C1811     1.0  0.90705  0.84124  0.77116  1.0000
  H   H2171     1.0  0.91958  0.81947  0.84582  1.0000
  H   H2172     1.0  0.93058  0.80070  0.80495  1.0000
  H   H2173     1.0  0.91212  0.83389  0.72017  1.0000
  H   H2174     1.0  0.90042  0.85254  0.76177  1.0000
  C   C1812     1.0  0.85446  0.93295  0.81705  1.0000
  C   C1813     1.0  0.84666  0.94861  0.81384  1.0000
  C   C1814     1.0  0.85371  0.96039  0.81898  1.0000
  C   C1815     1.0  0.86880  0.95668  0.82690  1.0000
  C   C1816     1.0  0.87660  0.94104  0.83015  1.0000
  C   C1817     1.0  0.86944  0.92922  0.82559  1.0000
  H   H2175     1.0  0.83510  0.95164  0.80706  1.0000
  H   H2176     1.0  0.83870  0.66820  0.71516  1.0000
  H   H2177     1.0  0.88829  0.93802  0.83616  1.0000
  H   H2178     1.0  0.87565  0.91728  0.82786  1.0000
  C   C1818     1.0  0.90390  0.67437  0.70412  1.0000
  H   H2179     1.0  0.81691  0.68278  0.64053  1.0000
  C   C1819     1.0  0.83431  0.75713  0.56473  1.0000
  H   H2180     1.0  0.90168  0.68114  0.67771  1.0000
  H   H2181     1.0  0.81282  0.69922  0.68001  1.0000
  C   C1820     1.0  0.84350  0.88452  0.95849  1.0000
  C   C1821     1.0  0.81593  0.67068  0.65407  1.0000
  H   H2182     1.0  0.89118  0.76897  0.83142  1.0000
  C   C1822     1.0  0.89749  0.96018  0.94150  1.0000
  H   H2183     1.0  0.84387  0.88927  0.93057  1.0000
  H   H2184     1.0  0.87135  0.81927  0.78488  1.0000
  H   H2185     1.0  0.85375  0.81402  0.84055  1.0000
  H   H2186     1.0  0.81067  0.79072  0.53538  1.0000
  C   C1823     1.0  0.95438  0.74974  0.91458  1.0000
  H   H2187     1.0  0.86646  0.81469  0.86924  1.0000
  C   C1824     1.0  0.76300  0.78548  0.52257  1.0000
  H   H2188     1.0  0.95719  0.74384  0.89195  1.0000
  H   H2189     1.0  0.88375  0.82325  0.81016  1.0000
  C   C1825     1.0  0.80165  0.83381  0.74120  1.0000
  C   C1826     1.0  0.80004  0.84645  0.75862  1.0000
  C   C1827     1.0  0.81276  0.84915  0.77101  1.0000
  C   C1828     1.0  0.82727  0.83923  0.76597  1.0000
  C   C1829     1.0  0.82883  0.82652  0.74874  1.0000
  C   C1830     1.0  0.81611  0.82377  0.73654  1.0000
  H   H2190     1.0  0.78893  0.85431  0.76231  1.0000
  H   H2191     1.0  0.81137  0.85897  0.78415  1.0000
  H   H2192     1.0  0.84001  0.81887  0.74438  1.0000
  H   H2193     1.0  0.81751  0.81402  0.72317  1.0000
  C   C1831     1.0  0.91175  0.71650  0.66091  1.0000
  C   C1832     1.0  0.90160  0.71484  0.69345  1.0000
  C   C1833     1.0  0.90483  0.71932  0.72321  1.0000
  C   C1834     1.0  0.91806  0.72581  0.72077  1.0000
  C   C1835     1.0  0.92794  0.72795  0.68794  1.0000
  C   C1836     1.0  0.92482  0.72326  0.65830  1.0000
  H   H2194     1.0  0.89131  0.71000  0.69576  1.0000
  H   H2195     1.0  0.89702  0.71770  0.74837  1.0000
  H   H2196     1.0  0.93819  0.73287  0.68557  1.0000
  H   H2197     1.0  0.93275  0.72466  0.63326  1.0000
  C   C1837     1.0  0.83064  0.72264  0.62898  1.0000
  C   C1838     1.0  0.81528  0.72971  0.64038  1.0000
  C   C1839     1.0  0.81228  0.74125  0.66144  1.0000
  C   C1840     1.0  0.82464  0.74582  0.67068  1.0000
  C   C1841     1.0  0.83998  0.73865  0.65942  1.0000
  C   C1842     1.0  0.84298  0.72718  0.63830  1.0000
  H   H2198     1.0  0.80571  0.72616  0.63331  1.0000
  H   H2199     1.0  0.80041  0.74642  0.67097  1.0000
  H   H2200     1.0  0.84958  0.74217  0.66635  1.0000
  H   H2201     1.0  0.85488  0.72213  0.62858  1.0000
  S   S507      1.0  0.77991  0.77528  0.66073  1.0000
  H   H2202     1.0  0.94384  0.82786  0.86181  1.0000
  N   N120      1.0  0.98494  0.78438  0.86761  1.0000
  C   C1843     1.0  0.89063  0.79512  0.84765  1.0000
  C   C1844     1.0  0.81378  0.72191  0.50423  1.0000
  H   H2203     1.0  0.88838  0.78571  0.87073  1.0000
  H   H2204     1.0  0.94298  0.67223  0.68993  1.0000
  H   H2205     1.0  0.74011  0.65486  0.77828  1.0000
  H   H2206     1.0  0.75839  0.77669  0.82869  1.0000
  H   H2207     1.0  0.91636  0.83147  0.94155  1.0000
  C   C1845     1.0  0.87322  0.78861  0.81346  1.0000
  C   C1846     1.0  0.86049  0.79228  0.79483  1.0000
  C   C1847     1.0  0.88149  0.77294  0.81721  1.0000
  C   C1848     1.0  0.85636  0.78102  0.78064  1.0000
  C   C1849     1.0  0.87736  0.76179  0.80261  1.0000
  C   C1850     1.0  0.86481  0.76582  0.78441  1.0000
  H   H2208     1.0  0.90145  0.79076  0.82971  1.0000
  H   H2209     1.0  0.89133  0.80961  0.78001  1.0000
  H   H2210     1.0  0.85354  0.80392  0.79145  1.0000
  H   H2211     1.0  0.84651  0.78413  0.76673  1.0000
  H   H2212     1.0  0.88396  0.74994  0.80547  1.0000
  H   H2213     1.0  0.86157  0.75714  0.77332  1.0000
  N   N121      1.0  0.84980  0.95386  0.94148  1.0000
  H   H2214     1.0  0.86561  0.68573  0.50035  1.0000
  C   C1851     1.0  0.96854  0.81386  0.79248  1.0000
  C   C1852     1.0  0.79958  0.73220  0.50896  1.0000
  N   N122      1.0  0.74703  0.80888  0.80848  1.0000
  H   H2215     1.0  0.98274  0.79310  0.91614  1.0000
  C   C1853     1.0  0.96089  0.75374  0.96890  1.0000
  H   H2216     1.0  0.96885  0.78101  0.91695  1.0000
  C   C1854     1.0  0.87896  0.84902  0.93628  1.0000
  C   C1855     1.0  0.76674  0.78418  0.82485  1.0000
  C   C1856     1.0  0.90136  0.86090  0.92878  1.0000
  H   H2217     1.0  0.82507  0.95863  0.96018  1.0000
  C   C1857     1.0  0.82027  0.65031  0.70383  1.0000
  N   N123      1.0  0.90053  0.77734  0.68643  1.0000
  C   C1858     1.0  0.90824  0.76782  0.65852  1.0000
  C   C1859     1.0  0.90773  0.79139  0.67883  1.0000
  C   C1860     1.0  0.90401  0.76834  0.72118  1.0000
  C   C1861     1.0  0.88344  0.78094  0.68757  1.0000
  C   C1862     1.0  0.87507  0.76872  0.69202  1.0000
  C   C1863     1.0  0.87459  0.79639  0.68489  1.0000
  C   C1864     1.0  0.85898  0.77180  0.69281  1.0000
  C   C1865     1.0  0.85846  0.79931  0.68563  1.0000
  C   C1866     1.0  0.85070  0.78705  0.68936  1.0000
  H   H2218     1.0  0.92118  0.76558  0.65578  1.0000
  H   H2219     1.0  0.90505  0.75611  0.66448  1.0000
  H   H2220     1.0  0.90511  0.77373  0.63223  1.0000
  H   H2221     1.0  0.90335  0.79860  0.70013  1.0000
  H   H2222     1.0  0.90564  0.79875  0.65289  1.0000
  H   H2223     1.0  0.92062  0.78827  0.67768  1.0000
  H   H2224     1.0  0.89877  0.77522  0.74277  1.0000
  H   H2225     1.0  0.89950  0.75728  0.72848  1.0000
  H   H2226     1.0  0.91680  0.76505  0.72114  1.0000
  H   H2227     1.0  0.88091  0.75665  0.69505  1.0000
  H   H2228     1.0  0.87981  0.80645  0.68211  1.0000
  H   H2229     1.0  0.85283  0.76229  0.69618  1.0000
  H   H2230     1.0  0.85191  0.81118  0.68325  1.0000
  H   H2231     1.0  0.83820  0.78933  0.68983  1.0000
  N   N124      1.0  0.81966  0.66725  0.69047  1.0000
  H   H2232     1.0  0.79940  0.65884  0.75453  1.0000
  H   H2233     1.0  0.92776  0.68604  0.71022  1.0000
  C   C1867     1.0  0.74534  0.73324  0.76191  1.0000
  C   C1868     1.0  0.80807  0.67728  0.71309  1.0000
  C   C1869     1.0  0.79862  0.67118  0.74479  1.0000
  C   C1870     1.0  0.80596  0.69376  0.70358  1.0000
  C   C1871     1.0  0.78770  0.68103  0.76530  1.0000
  C   C1872     1.0  0.79501  0.70350  0.72430  1.0000
  C   C1873     1.0  0.78586  0.69714  0.75507  1.0000
  H   H2234     1.0  0.94900  0.83287  0.79631  1.0000
  H   H2235     1.0  0.92646  0.77695  0.95210  1.0000
  C   C1874     1.0  0.92333  0.65477  0.67704  1.0000
  H   H2236     1.0  0.91411  0.64961  0.74976  1.0000
  H   H2237     1.0  0.85847  0.94172  0.89719  1.0000
  C   C1875     1.0  0.95638  0.82337  0.81083  1.0000
  C   C1876     1.0  0.93705  0.76833  0.94859  1.0000
  C   C1877     1.0  0.77509  0.80906  0.80897  1.0000
  H   H2238     1.0  0.84108  0.97862  0.92809  1.0000
  H   H2239     1.0  0.88031  0.84851  0.90759  1.0000
  H   H2240     1.0  0.84755  0.97235  0.81627  1.0000
  H   H2241     1.0  0.78063  0.67607  0.78936  1.0000
  H   H2242     1.0  0.79362  0.71606  0.71647  1.0000
  H   H2243     1.0  0.77735  0.70468  0.77112  1.0000
  H   H2244     1.0  0.89336  0.80462  0.85820  1.0000
  Fe  Fe255     1.0  0.78140  0.79974  0.63249  1.0000
  C   C1878     1.0  0.86349  0.80691  0.85407  1.0000
  C   C1879     1.0  0.93045  0.67774  0.69123  1.0000
  S   S508      1.0  0.87410  0.64999  0.69671  1.0000
  H   H2245     1.0  0.86170  0.97248  0.91250  1.0000
  S   S509      1.0  0.87828  0.97093  0.83423  1.0000
  H   H2246     1.0  0.92874  0.68503  0.66494  1.0000
  C   C1880     1.0  0.88107  0.81371  0.79968  1.0000
  H   H2247     1.0  0.80559  0.75006  0.57354  1.0000
  H   H2248     1.0  0.87130  0.86039  0.93995  1.0000
  H   H2249     1.0  0.90373  0.86151  0.89941  1.0000
  C   C1881     1.0  0.85005  0.96914  0.91741  1.0000
  S   S510      1.0  0.78419  0.80844  0.57261  1.0000
  H   H2250     1.0  0.84415  0.74827  0.50496  1.0000
  N   N125      1.0  0.87714  0.80076  0.82858  1.0000
  H   H2251     1.0  0.85893  0.79731  0.87371  1.0000
  C   C1882     1.0  0.77708  0.80206  0.54024  1.0000
  C   C1883     1.0  0.97523  0.79804  0.84875  1.0000
  H   H2252     1.0  0.74230  0.81795  0.85712  1.0000
  C   C1884     1.0  0.90445  0.83317  0.93530  1.0000
  H   H2253     1.0  0.90592  0.83407  0.90596  1.0000
  H   H2254     1.0  0.83327  0.93833  0.96074  1.0000
  H   H2255     1.0  0.82410  0.66290  0.63670  1.0000
  H   H2256     1.0  0.78473  0.76419  0.83622  1.0000
  H   H2257     1.0  0.87245  0.83980  0.95174  1.0000
  C   C1885     1.0  0.96267  0.80798  0.86670  1.0000
  H   H2258     1.0  0.80387  0.66915  0.65460  1.0000
  H   H2259     1.0  0.89522  0.93650  0.96423  1.0000
  N   N126      1.0  0.89420  0.84727  0.94744  1.0000
  H   H2260     1.0  0.81991  0.78590  0.57335  1.0000
  H   H2261     1.0  0.89943  0.82255  0.94736  1.0000
  H   H2262     1.0  0.75548  0.66714  0.81586  1.0000
  H   H2263     1.0  0.97498  0.73749  0.93598  1.0000
  H   H2264     1.0  0.97016  0.76906  0.86452  1.0000
  H   H2265     1.0  0.80627  0.76386  0.60021  1.0000
  C   C1886     1.0  0.76778  0.79069  0.54936  1.0000
  H   H2266     1.0  0.75953  0.74963  0.73033  1.0000
  H   H2267     1.0  0.95959  0.80628  0.89527  1.0000
  H   H2268     1.0  0.76422  0.78596  0.57702  1.0000
  C   C1887     1.0  0.79367  0.78543  0.82336  1.0000
  C   C1888     1.0  0.94070  0.76088  0.91898  1.0000
  H   H2269     1.0  0.84762  0.96889  0.89077  1.0000
  H   H2270     1.0  0.83146  0.78652  0.52938  1.0000
  H   H2271     1.0  0.79564  0.77002  0.56493  1.0000
  S   S511      1.0  0.76407  0.81092  0.67494  1.0000
  H   H2272     1.0  0.74852  0.83141  0.81822  1.0000
  H   H2273     1.0  0.83067  0.95087  0.91951  1.0000
  Fe  Fe256     1.0  0.76402  0.78640  0.70521  1.0000
  H   H2274     1.0  0.89362  0.87213  0.93358  1.0000
  C   C1889     1.0  0.74860  0.74825  0.74773  1.0000
  N   N127      1.0  0.82076  0.76632  0.54837  1.0000
  C   C1890     1.0  0.78151  0.80815  0.50412  1.0000
  C   C1891     1.0  0.82075  0.78304  0.54654  1.0000
  C   C1892     1.0  0.76283  0.80064  0.81467  1.0000
  C   C1893     1.0  0.95347  0.82047  0.84781  1.0000
  C   C1894     1.0  0.89653  0.94754  0.96923  1.0000
  H   H2275     1.0  0.89536  0.66643  0.71322  1.0000
  C   C1895     1.0  0.96443  0.74616  0.93952  1.0000
  C   C1896     1.0  0.82107  0.76344  0.51228  1.0000
  C   C1897     1.0  0.83403  0.95027  0.94571  1.0000
  H   H2276     1.0  0.75381  0.72315  0.75516  1.0000
  C   C1898     1.0  0.98107  0.78275  0.90693  1.0000
  H   H2277     1.0  0.83505  0.74440  0.56660  1.0000
  C   C1899     1.0  0.75232  0.65758  0.83630  1.0000
  C   C1900     1.0  0.83542  0.67046  0.68834  1.0000
  H   H2278     1.0  0.83637  0.68269  0.67600  1.0000
  C   C1901     1.0  0.80646  0.76235  0.57259  1.0000
  H   H2279     1.0  0.87325  0.94447  0.91857  1.0000
  C   C1902     1.0  0.84039  0.86955  0.97181  1.0000
  C   C1903     1.0  0.86127  0.94197  0.92345  1.0000
  C   C1904     1.0  0.79024  0.80155  0.81327  1.0000
  C   C1905     1.0  0.78195  0.77678  0.82919  1.0000
  N   N128      1.0  0.92027  0.66590  0.70193  1.0000
  H   H2280     1.0  0.77322  0.82151  0.79985  1.0000
  H   H2281     1.0  0.83342  0.75917  0.59229  1.0000
  H   H2282     1.0  0.75571  0.77677  0.52991  1.0000
  H   H2283     1.0  0.92139  0.66545  0.75674  1.0000
  H   H2284     1.0  0.82033  0.71780  0.52597  1.0000
  H   H2285     1.0  0.75555  0.82367  0.76009  1.0000
  H   H2286     1.0  0.89701  0.95895  0.91475  1.0000
  H   H2287     1.0  0.86146  0.92997  0.93869  1.0000
  C   C1906     1.0  0.74158  0.82202  0.82846  1.0000
  H   H2288     1.0  0.84840  0.90503  0.97084  1.0000
  C   C1907     1.0  0.74758  0.81518  0.77009  1.0000
  H   H2289     1.0  0.90103  0.68267  0.72306  1.0000
  C   C1908     1.0  0.85340  0.95356  0.97693  1.0000
  C   C1909     1.0  0.83399  0.75423  0.49344  1.0000
  H   H2290     1.0  0.78869  0.81697  0.49681  1.0000
  H   H2291     1.0  0.79943  0.80829  0.80780  1.0000
  C   C1910     1.0  0.85572  0.96698  0.98765  1.0000
  C   C1911     1.0  0.94719  0.76487  0.97336  1.0000
  H   H2292     1.0  0.84445  0.66296  0.67188  1.0000
  H   H2293     1.0  0.91256  0.86040  0.93743  1.0000
  C   C1912     1.0  0.92271  0.65735  0.73785  1.0000
  H   H2294     1.0  0.79821  0.77768  0.50678  1.0000
  C   C1913     1.0  0.98267  0.76999  0.85810  1.0000
  H   H2295     1.0  0.85539  0.97812  0.97019  1.0000
  C   C1914     1.0  0.89962  0.97657  0.98263  1.0000
  S   S512      1.0  0.74101  0.78057  0.73771  1.0000
  C   C1915     1.0  0.89911  0.97447  0.94792  1.0000
  C   C1916     1.0  0.89182  0.84660  0.98634  1.0000
  C   C1917     1.0  0.97789  0.80144  0.81105  1.0000
  H   H2296     1.0  0.97057  0.81597  0.76367  1.0000
  H   H2297     1.0  0.75104  0.65382  0.93333  1.0000
  C   C1918     1.0  0.80838  0.77054  0.49423  1.0000
  H   H2298     1.0  0.94121  0.66493  0.63676  1.0000
  C   C1919     1.0  0.84594  0.89349  0.98140  1.0000
  H   H2299     1.0  0.98701  0.79426  0.79554  1.0000
  H   H2300     1.0  0.75182  0.80568  0.75416  1.0000
  C   C1920     1.0  0.93434  0.65590  0.64490  1.0000
  H   H2301     1.0  0.98642  0.76969  0.82933  1.0000
  H   H2302     1.0  0.74442  0.65429  0.73168  1.0000
  H   H2303     1.0  0.93457  0.64998  0.73690  1.0000
  H   H2304     1.0  0.87639  0.86935  0.98601  1.0000
