data_image0
_chemical_formula_structural       CHCH2FeSHFeS2FeS2FeSFeS3H2FeS2FeCS2FeS2FeS2FeSFeS3C3HSH2C3H2SC6H4CSC4HC6H4CH2C3H4C6H4CHNC5HFeH4C3H7CHNC9H13NC3FeHCH3SH3CH4CNC6H2CH15NH4CHC2H2C4HCHCH3CNH2CH2CH5CH4SFeS2FeS2FeSFeS3FeCSCHSC2S2FeS2FeS2FeSFeS3C3H2CHC6H4NH2C2H2C3HC6H10C6H7C2NCHC4H8CH4CHCHNCH3C5HCHCHCHC2H2CHCH2CHCHCHNHCH2FeH3CH2NC7HCH11CH2C5HC3H2CHC2H2CHC2H3CHCHFeS2FeS2FeSFeS5FeS2FeS2FeSFeS3FeSFeSHCH2C5HCH2C7H4C4H2CHC6H4C2H4C7H5C2H2CNC6H6NH2C3NCH5CH2C5HNH3CH3CH2NC9H11SH3FeCHC5HC2HFeHCH3CH3CH4CHC2HCH2CHC4H2CH3CHCH4C2H2CHCH3CH2C3HC2HCHFeS2FeS2FeSFeS3HSHFeS2FeS2FeSFeS3FeS2FeHFeHS2C2H2C2H2CH2C6H4C2H3C6H4C6H4C2HNC9H9CH2C2H2NHCFeH2C3H2C2HCNHCH2CHCHCH2SH2CH2C3HCH2C3H3CH5CH2C3HCSHNH2CH2C2H3CH2CHCH3CH4CNC2H3NCHC2HCHCHCH5C2H2FeHCH2CHCSHC2HFeSCSFeS2FeS2FeSFeS3H2FeS2FeS3FeS2FeS2FeSFeS3CHCFeHC4SH2C7H4C2H3C7H4C2SCHCHC6H5CHCNC8H14N2HCHNC9H14NC9H13CHNFeHCHCH4CH3C2HSCSCH6C2H2CHCHCHCHCHCH2FeH2C2H3CH2C2H4C7HSCFeS2FeS2FeSFeS3HSFeS2FeS2FeSFeS3H2C3HCH3C6H5SHC7H4C4H4CHC6H4CH2C4HCSC4H2CHCH7CHNCH2NCH2CH2CH3C3H4CHNC9H14CHNHCH4SH5CHC2H4C3HC2HC2HCNHCH2C3HC4FeCH2C2HCHCH2C3HSCH3NHC2HNCHC4HCH2FeHCHCFeSCHC2H4CHCH4CH2CFeS2FeS2FeSFeS3CH2FeS2FeS2FeSFeS3CH3C2SH2C2SCH3C6H4C4H3C2H4C9H4CHC2HC6H5C2H3NC2H3CSC3H2SH2NCH5CH3CH2CH2CHCH2C2HC3H2CN2HC4HCH3CH2CH2C2H6C2SCHC2H2CHCH3C3HC2H2NC9H14NC6HCHC2H3CHCH5C2H2CSH3CHFeHCH3CSFeS2FeS2FeSFeS3NFeSHFeSC2SFeS2FeS2FeSFeS3FeSCH3FeS2CSH4NH3CHCH2NC6H5C2HC2HC7H9C2SC7H6CH3CHCH3CH3CHCHC2H3NHCHC6HCHCH3C4H2SC2HSCHC3H2CSCFeCHCHC4FeH3C2HCNHNH3CH6CH2CH3CH2CHCH3CHC2H3CH3CH2C2H2CFeSCHCFeSHFeS2FeS2FeSFeS3C2HFeS2FeS2FeSFeS3C2HCH3C2H2C6H6C6H4C2HCH3NC5H2C6H4CHC2H2CNSCH3C2HCSH2CH3SHSHCHCH3CH2CHSC2H2CH4C2H2FeHCNC9H14CHC2NHCH2C3H2CH2C2H2CHC4H2NC6HCHCHCNH2CHC2H4SH6CH2SCHC2NH5C2H3C3H2CHCHCH4SFeCSHCS2FeS2FeS2FeSFeS3FeS2HFe2SHFeS2FeS2FeSFeS3H2C5HC6H5CHC7H4C2H2CH2C6H4C2H2CHSCH6NH4CH2FeCHC6HC2H3FeHFeC2H2CHSHNH2NC9H12CHC2HC3H3SCHNC2H3CH2SC2H7C4H2CH5NCHNH2CH2SHC5HSHCH2CH2CH6CH2C3HCFeS2FeS2FeSFeS3FeCSFeSHFeCS2FeS2FeS2FeSFeS3FeS2H2C6H4C3H3CH3C2HC6H4C2H3C2H7C7H2CH2NC9H14CH3CH5CH2C2SHC3H3C3HSHCNH4C3HS2H8SHC4HNC2NCHC4H2CH3C2H5FeNHFeS2FeS2FeSFeS4FeSFeS2FeS2FeSFeS3H2SH2SH3C6H4CHC2HCH2CH3C6H4C6H4C7H4NC4HC4H2CNHSH8CNC6H2CH9CH2C2NC8H15NC9H8C6H4CH2CH2CHFeH2C3H6CH2CHCH3C2H2CNC2HCHCH2CH2CHCH2C4H4SHFeS2FeS2FeSFeS3C2SFeS2FeS2FeSFeS3C2NC2HC5HNHC6H4C7H5C4HFeH3C3NH2C7H7NC9H7C2HCHCH4CHC2H3CHC2HCH3C2H2CH8C2H2CHC5H2CHCH8CHCH2CH3CNH3CH6CH5FeC2H2C2HC2H2C3H2CH6C3HC2HSHFeS2CHFeS2FeS2FeS2FeSFeS3CSHCFeS2FeS2FeSFeS3C2H2C6H4NH4C6H4C2H2C2H2C6H6C2HC2HCHC2H3C2HCH5C3H2CNH2CH2C2H4CSHCH4C3HNC2HCH4CH2FeH2FeNC4NHCH2C2HNC9H15C2H2CSHCH4CHC2HC2H2C2H5NHCH3C2FeS2FeS2FeSFeS3FeS2FeHFeS2HFeS2FeS2FeSFeS3C2SH2SH2C2H3C7H5C2H2NH2C2HCH2CHC6H4C6H4C3H2C3H4NC9H14C3HNFeHCHCHC3H4NH2CHCH5CHCH3CHC2H4CH6CNHCH5C2HCSC2HC7H7FeH2C4H2CSH2CHCN2HC2HCHCSHC3HCH2CH2CFeH2FeS2FeS2FeSFeS3FeNSHC3SHFeS2FeS2FeSFeS3CSNH4CHC9H6C4HCH2C7H4CH2C6H4C3H2C3H2CSH3CH2CHCH3CSH5FeC3NC6HNSH9CH3CNHC6H13SCHNHCHC2HCH3CH4C6SH6CH4C2H4CHC5HC2FeH4
_chemical_formula_sum              "C1440 H1728 Fe192 S384 N96"
_cell_length_a       51.833
_cell_length_b       51.8474
_cell_length_c       84.7958
_cell_angle_alpha    86.1729
_cell_angle_beta     87.8078
_cell_angle_gamma    89.2771

_space_group_name_H-M_alt    "P 1"
_space_group_IT_number       1

loop_
  _space_group_symop_operation_xyz
  'x, y, z'

loop_
  _atom_site_type_symbol
  _atom_site_label
  _atom_site_symmetry_multiplicity
  _atom_site_fract_x
  _atom_site_fract_y
  _atom_site_fract_z
  _atom_site_occupancy
  C   C1        1.0  0.18698  0.34054  0.26109  1.0000
  H   H1        1.0  0.21559  0.46074  0.25201  1.0000
  C   C2        1.0  0.22694  0.47384  0.24410  1.0000
  H   H2        1.0  0.34434  0.07510  0.20202  1.0000
  H   H3        1.0  0.34198  0.10878  0.20593  1.0000
  Fe  Fe1       1.0  0.42709  0.02511  0.10134  1.0000
  S   S1        1.0  0.43095  0.05155  0.12171  1.0000
  H   H4        1.0  0.29058  0.44044  0.19806  1.0000
  Fe  Fe2       1.0  0.40135  0.18161  0.16339  1.0000
  S   S2        1.0  0.42606  0.21706  0.16368  1.0000
  S   S3        1.0  0.39124  0.16308  0.14073  1.0000
  Fe  Fe3       1.0  0.38829  0.18138  0.19901  1.0000
  S   S4        1.0  0.41212  0.21644  0.20204  1.0000
  S   S5        1.0  0.36244  0.15935  0.21734  1.0000
  Fe  Fe4       1.0  0.39418  0.23280  0.17955  1.0000
  S   S6        1.0  0.38069  0.27519  0.17677  1.0000
  Fe  Fe5       1.0  0.44194  0.19809  0.18603  1.0000
  S   S7        1.0  0.48351  0.18865  0.19264  1.0000
  S   S8        1.0  0.36857  0.19876  0.17759  1.0000
  S   S9        1.0  0.41900  0.16169  0.18464  1.0000
  H   H5        1.0  0.34505  0.12849  0.17068  1.0000
  H   H6        1.0  0.31052  0.48007  0.19491  1.0000
  Fe  Fe6       1.0  0.06789  0.40437  0.08753  1.0000
  S   S10       1.0  0.04905  0.36630  0.08461  1.0000
  S   S11       1.0  0.11050  0.40740  0.09297  1.0000
  Fe  Fe7       1.0  0.03262  0.38539  0.06231  1.0000
  C   C3        1.0  0.25616  0.50748  0.22367  1.0000
  S   S12       1.0  0.05371  0.42247  0.06442  1.0000
  S   S13       1.0  0.03475  0.41976  0.10195  1.0000
  Fe  Fe8       1.0  0.24832  0.36324  0.17092  1.0000
  S   S14       1.0  0.21214  0.35724  0.18643  1.0000
  S   S15       1.0  0.26933  0.32592  0.16446  1.0000
  Fe  Fe9       1.0  0.23875  0.42225  0.16759  1.0000
  S   S16       1.0  0.20294  0.41953  0.18298  1.0000
  S   S17       1.0  0.24888  0.46208  0.15632  1.0000
  Fe  Fe10      1.0  0.22534  0.39161  0.19854  1.0000
  S   S18       1.0  0.22418  0.39914  0.22454  1.0000
  Fe  Fe11      1.0  0.19319  0.38583  0.16919  1.0000
  S   S19       1.0  0.15112  0.38388  0.16264  1.0000
  S   S20       1.0  0.26249  0.39639  0.18406  1.0000
  S   S21       1.0  0.22803  0.38969  0.15280  1.0000
  C   C4        1.0  0.21070  0.37597  0.23855  1.0000
  C   C5        1.0  0.20238  0.35211  0.23403  1.0000
  C   C6        1.0  0.19034  0.33457  0.24523  1.0000
  H   H7        1.0  0.49533  0.06177  0.03670  1.0000
  S   S22       1.0  0.42428  0.02600  0.04118  1.0000
  H   H8        1.0  0.20517  0.34723  0.22190  1.0000
  H   H9        1.0  0.18341  0.31637  0.24159  1.0000
  C   C7        1.0  0.29521  0.48893  0.20244  1.0000
  C   C8        1.0  0.22959  0.48920  0.18133  1.0000
  C   C9        1.0  0.24296  0.49025  0.16667  1.0000
  H   H10       1.0  0.16479  0.36376  0.02908  1.0000
  H   H11       1.0  0.22201  0.47109  0.18641  1.0000
  S   S23       1.0  0.39441  0.01372  0.08642  1.0000
  C   C10       1.0  0.12155  0.40020  0.11234  1.0000
  C   C11       1.0  0.10436  0.39508  0.12525  1.0000
  C   C12       1.0  0.11375  0.38997  0.14054  1.0000
  C   C13       1.0  0.14039  0.38981  0.14309  1.0000
  C   C14       1.0  0.15763  0.39488  0.13018  1.0000
  C   C15       1.0  0.14823  0.40010  0.11488  1.0000
  H   H12       1.0  0.08380  0.39500  0.12347  1.0000
  H   H13       1.0  0.10024  0.38597  0.15041  1.0000
  H   H14       1.0  0.17819  0.39467  0.13194  1.0000
  H   H15       1.0  0.16169  0.40395  0.10497  1.0000
  C   C16       1.0  0.24749  0.46421  0.23500  1.0000
  S   S24       1.0  0.45642  0.02297  0.08119  1.0000
  C   C17       1.0  0.49852  0.04174  0.04187  1.0000
  C   C18       1.0  0.36289  0.12655  0.17753  1.0000
  C   C19       1.0  0.04113  0.49216  0.08689  1.0000
  C   C20       1.0  0.11306  0.34392  0.26007  1.0000
  H   H16       1.0  0.04970  0.47310  0.08637  1.0000
  C   C21       1.0  0.34875  0.28832  0.17522  1.0000
  C   C22       1.0  0.32772  0.27330  0.17170  1.0000
  C   C23       1.0  0.30343  0.28505  0.16894  1.0000
  C   C24       1.0  0.29951  0.31180  0.17009  1.0000
  C   C25       1.0  0.32026  0.32667  0.17423  1.0000
  C   C26       1.0  0.34475  0.31503  0.17660  1.0000
  H   H17       1.0  0.33022  0.25274  0.17077  1.0000
  H   H18       1.0  0.28759  0.27335  0.16570  1.0000
  H   H19       1.0  0.31771  0.34728  0.17502  1.0000
  H   H20       1.0  0.36082  0.32687  0.17931  1.0000
  C   C27       1.0  0.37110  0.15720  0.23736  1.0000
  H   H21       1.0  0.38677  0.11562  0.20455  1.0000
  H   H22       1.0  0.10204  0.35159  0.05151  1.0000
  C   C28       1.0  0.39537  0.16504  0.24171  1.0000
  C   C29       1.0  0.38905  0.10105  0.19549  1.0000
  C   C30       1.0  0.20766  0.38182  0.25445  1.0000
  H   H23       1.0  0.40906  0.17299  0.23279  1.0000
  H   H24       1.0  0.29833  0.44586  0.23432  1.0000
  H   H25       1.0  0.36452  0.01718  0.03759  1.0000
  H   H26       1.0  0.48099  0.03691  0.04947  1.0000
  C   C31       1.0  0.40271  0.13222  0.13539  1.0000
  C   C32       1.0  0.39329  0.12160  0.12189  1.0000
  C   C33       1.0  0.40190  0.09712  0.11733  1.0000
  C   C34       1.0  0.42013  0.08304  0.12622  1.0000
  C   C35       1.0  0.42963  0.09377  0.13965  1.0000
  C   C36       1.0  0.42093  0.11812  0.14426  1.0000
  H   H27       1.0  0.37921  0.13234  0.11494  1.0000
  H   H28       1.0  0.39436  0.08913  0.10701  1.0000
  H   H29       1.0  0.44377  0.08309  0.14660  1.0000
  H   H30       1.0  0.42852  0.12606  0.15458  1.0000
  C   C37       1.0  0.12873  0.36516  0.25613  1.0000
  H   H31       1.0  0.40678  0.10659  0.18831  1.0000
  N   N1        1.0  0.12338  0.38667  0.04596  1.0000
  C   C38       1.0  0.14619  0.37850  0.05523  1.0000
  C   C39       1.0  0.11941  0.41481  0.04747  1.0000
  C   C40       1.0  0.10075  0.37266  0.05331  1.0000
  C   C41       1.0  0.12604  0.38151  0.02900  1.0000
  C   C42       1.0  0.22092  0.50015  0.24296  1.0000
  H   H32       1.0  0.33403  0.05898  0.14324  1.0000
  Fe  Fe12      1.0  0.01864  0.43380  0.07875  1.0000
  H   H33       1.0  0.32482  0.09717  0.19015  1.0000
  H   H34       1.0  0.32184  0.45334  0.21872  1.0000
  H   H35       1.0  0.12108  0.46260  0.14411  1.0000
  H   H36       1.0  0.41120  0.03961  0.15610  1.0000
  C   C43       1.0  0.14846  0.36984  0.02220  1.0000
  C   C44       1.0  0.27544  0.44740  0.20647  1.0000
  C   C45       1.0  0.10377  0.32968  0.24818  1.0000
  H   H37       1.0  0.49667  0.23711  0.17416  1.0000
  H   H38       1.0  0.37472  0.03455  0.13884  1.0000
  H   H39       1.0  0.09887  0.37493  0.06627  1.0000
  H   H40       1.0  0.08233  0.37979  0.04832  1.0000
  H   H41       1.0  0.33473  0.14074  0.24578  1.0000
  H   H42       1.0  0.20486  0.50757  0.24993  1.0000
  H   H43       1.0  0.32984  0.08866  0.16440  1.0000
  C   C46       1.0  0.34980  0.06078  0.15111  1.0000
  H   H44       1.0  0.25802  0.45232  0.19961  1.0000
  N   N2        1.0  0.37420  0.25574  0.12928  1.0000
  C   C47       1.0  0.36639  0.23444  0.14091  1.0000
  C   C48       1.0  0.37526  0.24582  0.11324  1.0000
  C   C49       1.0  0.40083  0.26328  0.13283  1.0000
  C   C50       1.0  0.35510  0.27718  0.13005  1.0000
  C   C51       1.0  0.36136  0.30195  0.13502  1.0000
  C   C52       1.0  0.32903  0.27331  0.12626  1.0000
  C   C53       1.0  0.34268  0.32157  0.13584  1.0000
  C   C54       1.0  0.31048  0.29302  0.12726  1.0000
  C   C55       1.0  0.31732  0.31712  0.13199  1.0000
  H   H45       1.0  0.34729  0.22634  0.13857  1.0000
  H   H46       1.0  0.38045  0.21803  0.14092  1.0000
  H   H47       1.0  0.36516  0.24131  0.15306  1.0000
  H   H48       1.0  0.35677  0.23705  0.11027  1.0000
  H   H49       1.0  0.39017  0.23026  0.11220  1.0000
  H   H50       1.0  0.37990  0.26158  0.10405  1.0000
  H   H51       1.0  0.40191  0.26916  0.14520  1.0000
  H   H52       1.0  0.41480  0.24691  0.13183  1.0000
  H   H53       1.0  0.40795  0.27943  0.12457  1.0000
  H   H54       1.0  0.38027  0.30643  0.13891  1.0000
  H   H55       1.0  0.32260  0.25478  0.12292  1.0000
  H   H56       1.0  0.34760  0.34000  0.14020  1.0000
  H   H57       1.0  0.30268  0.33203  0.13335  1.0000
  N   N3        1.0  0.16035  0.47640  0.14281  1.0000
  C   C56       1.0  0.16783  0.45778  0.15592  1.0000
  C   C57       1.0  0.13760  0.46567  0.13542  1.0000
  C   C58       1.0  0.18183  0.47793  0.13071  1.0000
  Fe  Fe13      1.0  0.01461  0.38293  0.09770  1.0000
  H   H58       1.0  0.37937  0.13116  0.16907  1.0000
  C   C59       1.0  0.26245  0.48065  0.22425  1.0000
  H   H59       1.0  0.40820  0.06808  0.17749  1.0000
  H   H60       1.0  0.27056  0.43043  0.21471  1.0000
  H   H61       1.0  0.17085  0.43790  0.15188  1.0000
  S   S25       1.0  0.03403  0.36432  0.03932  1.0000
  H   H62       1.0  0.15271  0.45658  0.16562  1.0000
  H   H63       1.0  0.14195  0.44642  0.13084  1.0000
  H   H64       1.0  0.20046  0.48319  0.13572  1.0000
  C   C60       1.0  0.37259  0.04687  0.14867  1.0000
  H   H65       1.0  0.18543  0.45895  0.12551  1.0000
  H   H66       1.0  0.13127  0.47829  0.12513  1.0000
  H   H67       1.0  0.25145  0.44368  0.23644  1.0000
  H   H68       1.0  0.10123  0.42211  0.04215  1.0000
  C   C61       1.0  0.34760  0.07769  0.16329  1.0000
  N   N4        1.0  0.13346  0.36442  0.21097  1.0000
  C   C62       1.0  0.10970  0.37044  0.20215  1.0000
  C   C63       1.0  0.15074  0.38709  0.20835  1.0000
  C   C64       1.0  0.14687  0.34211  0.20406  1.0000
  C   C65       1.0  0.12654  0.35788  0.22787  1.0000
  C   C66       1.0  0.11027  0.33655  0.23230  1.0000
  C   C67       1.0  0.13559  0.37208  0.24031  1.0000
  H   H69       1.0  0.36171  0.14181  0.18616  1.0000
  H   H70       1.0  0.11798  0.41961  0.06009  1.0000
  C   C68       1.0  0.03591  0.37838  0.01956  1.0000
  H   H71       1.0  0.09857  0.38656  0.20731  1.0000
  H   H72       1.0  0.11426  0.37625  0.18946  1.0000
  H   H73       1.0  0.09668  0.35358  0.20219  1.0000
  H   H74       1.0  0.14165  0.40483  0.21286  1.0000
  H   H75       1.0  0.15538  0.39155  0.19555  1.0000
  H   H76       1.0  0.16956  0.38353  0.21406  1.0000
  H   H77       1.0  0.13436  0.32489  0.20405  1.0000
  H   H78       1.0  0.15323  0.34674  0.19148  1.0000
  H   H79       1.0  0.16428  0.33626  0.21075  1.0000
  H   H80       1.0  0.10277  0.32475  0.22353  1.0000
  H   H81       1.0  0.14863  0.38813  0.23825  1.0000
  H   H82       1.0  0.08804  0.39708  0.02301  1.0000
  H   H83       1.0  0.19430  0.50641  0.15740  1.0000
  H   H84       1.0  0.16388  0.38892  0.05073  1.0000
  H   H85       1.0  0.14335  0.38278  0.06792  1.0000
  N   N5        1.0  0.36610  0.10047  0.18553  1.0000
  H   H86       1.0  0.39240  0.08207  0.20205  1.0000
  H   H87       1.0  0.18627  0.46309  0.16111  1.0000
  H   H88       1.0  0.29049  0.28945  0.12486  1.0000
  H   H89       1.0  0.13560  0.42610  0.04159  1.0000
  C   C69       1.0  0.10578  0.38843  0.01868  1.0000
  H   H90       1.0  0.17749  0.49248  0.12092  1.0000
  C   C70       1.0  0.34331  0.09504  0.19632  1.0000
  C   C71       1.0  0.36830  0.08116  0.17343  1.0000
  H   H91       1.0  0.03206  0.41784  0.02575  1.0000
  H   H92       1.0  0.14965  0.35727  0.05516  1.0000
  C   C72       1.0  0.40212  0.16228  0.25765  1.0000
  C   C73       1.0  0.35354  0.14684  0.24908  1.0000
  C   C74       1.0  0.39312  0.04956  0.15852  1.0000
  C   C75       1.0  0.03434  0.40512  0.01617  1.0000
  H   H93       1.0  0.50194  0.05366  0.07142  1.0000
  C   C76       1.0  0.39117  0.06638  0.17073  1.0000
  H   H94       1.0  0.31183  0.47764  0.23199  1.0000
  C   C77       1.0  0.30496  0.46133  0.22539  1.0000
  H   H95       1.0  0.09190  0.31291  0.25136  1.0000
  H   H96       1.0  0.49875  0.02806  0.03229  1.0000
  H   H97       1.0  0.21416  0.40021  0.25805  1.0000
  C   C78       1.0  0.15545  0.50220  0.14895  1.0000
  N   N6        1.0  0.28412  0.46996  0.21472  1.0000
  H   H98       1.0  0.22817  0.25812  0.25769  1.0000
  H   H99       1.0  0.24610  0.28773  0.25650  1.0000
  C   C79       1.0  0.01579  0.49670  0.08223  1.0000
  H   H100      1.0  0.11476  0.50708  0.14270  1.0000
  H   H101      1.0  0.28014  0.49670  0.19433  1.0000
  C   C80       1.0  0.42172  0.01244  0.02246  1.0000
  H   H102      1.0  0.07532  0.50905  0.09539  1.0000
  H   H103      1.0  0.21655  0.51042  0.20118  1.0000
  H   H104      1.0  0.02074  0.50189  0.03549  1.0000
  H   H105      1.0  0.30437  0.50542  0.20776  1.0000
  H   H106      1.0  0.42104  0.16816  0.26090  1.0000
  C   C81       1.0  0.22639  0.51162  0.18968  1.0000
  H   H107      1.0  0.49317  0.01187  0.10445  1.0000
  H   H108      1.0  0.34759  0.01210  0.06188  1.0000
  H   H109      1.0  0.23976  0.23247  0.36747  1.0000
  H   H110      1.0  0.24936  0.27843  0.36976  1.0000
  S   S26       1.0  0.48710  0.09708  0.39752  1.0000
  Fe  Fe14      1.0  0.36941  0.14020  0.34599  1.0000
  S   S27       1.0  0.33074  0.12134  0.34965  1.0000
  S   S28       1.0  0.38999  0.15536  0.36675  1.0000
  Fe  Fe15      1.0  0.36822  0.13677  0.31036  1.0000
  S   S29       1.0  0.32970  0.11695  0.31129  1.0000
  S   S30       1.0  0.39445  0.14829  0.28916  1.0000
  Fe  Fe16      1.0  0.31787  0.14640  0.32873  1.0000
  S   S31       1.0  0.27618  0.16136  0.32939  1.0000
  Fe  Fe17      1.0  0.34520  0.09328  0.33218  1.0000
  S   S32       1.0  0.33684  0.05203  0.34166  1.0000
  S   S33       1.0  0.35534  0.16781  0.32639  1.0000
  S   S34       1.0  0.38484  0.11063  0.32990  1.0000
  Fe  Fe18      1.0  0.14844  0.47486  0.41428  1.0000
  C   C82       1.0  0.50525  0.01622  0.49384  1.0000
  S   S35       1.0  0.13554  0.44101  0.40084  1.0000
  C   C83       1.0  0.19595  0.36409  0.26573  1.0000
  H   H111      1.0  0.12097  0.45545  0.46987  1.0000
  S   S36       1.0  0.18150  0.47394  0.47036  1.0000
  C   C84       1.0  0.28307  0.21252  0.28943  1.0000
  C   C85       1.0  0.04183  0.31640  0.31070  1.0000
  S   S37       1.0  0.13045  0.47709  0.43871  1.0000
  S   S38       1.0  0.18774  0.48469  0.42239  1.0000
  Fe  Fe19      1.0  0.19581  0.29803  0.32930  1.0000
  S   S39       1.0  0.20247  0.33484  0.31422  1.0000
  S   S40       1.0  0.23469  0.27743  0.33331  1.0000
  Fe  Fe20      1.0  0.13678  0.30893  0.33084  1.0000
  S   S41       1.0  0.14006  0.34583  0.31544  1.0000
  S   S42       1.0  0.09803  0.29477  0.34161  1.0000
  Fe  Fe21      1.0  0.16863  0.32342  0.30086  1.0000
  S   S43       1.0  0.17056  0.31849  0.27450  1.0000
  Fe  Fe22      1.0  0.17372  0.35380  0.33050  1.0000
  S   S44       1.0  0.18375  0.39347  0.33865  1.0000
  S   S45       1.0  0.16292  0.28570  0.31515  1.0000
  S   S46       1.0  0.16936  0.31792  0.34667  1.0000
  C   C86       1.0  0.04515  0.29110  0.34062  1.0000
  C   C87       1.0  0.06790  0.30000  0.33254  1.0000
  C   C88       1.0  0.06608  0.31278  0.31756  1.0000
  H   H112      1.0  0.04637  0.28110  0.35218  1.0000
  H   H113      1.0  0.08342  0.31965  0.31120  1.0000
  C   C89       1.0  0.02070  0.48540  0.42737  1.0000
  H   H114      1.0  0.19342  0.36884  0.27794  1.0000
  C   C90       1.0  0.15056  0.42713  0.38421  1.0000
  C   C91       1.0  0.17222  0.43809  0.37614  1.0000
  C   C92       1.0  0.18234  0.42738  0.36231  1.0000
  C   C93       1.0  0.17122  0.40538  0.35658  1.0000
  C   C94       1.0  0.15005  0.39399  0.36493  1.0000
  C   C95       1.0  0.13977  0.40487  0.37864  1.0000
  H   H115      1.0  0.18109  0.45476  0.38058  1.0000
  H   H116      1.0  0.19902  0.43593  0.35606  1.0000
  H   H117      1.0  0.14144  0.37693  0.36073  1.0000
  H   H118      1.0  0.12342  0.39591  0.38503  1.0000
  N   N7        1.0  0.50744  0.02037  0.39591  1.0000
  H   H119      1.0  0.29429  0.29224  0.37266  1.0000
  H   H120      1.0  0.04964  0.46552  0.41370  1.0000
  C   C96       1.0  0.04584  0.48086  0.42156  1.0000
  C   C97       1.0  0.11211  0.45475  0.48203  1.0000
  H   H121      1.0  0.23011  0.06657  0.34669  1.0000
  H   H122      1.0  0.05594  0.37445  0.35662  1.0000
  C   C98       1.0  0.17760  0.47284  0.50287  1.0000
  C   C99       1.0  0.05218  0.41363  0.38686  1.0000
  C   C100      1.0  0.33699  0.02490  0.31449  1.0000
  H   H123      1.0  0.18254  0.45254  0.50249  1.0000
  C   C101      1.0  0.26499  0.19389  0.32979  1.0000
  C   C102      1.0  0.23825  0.19892  0.33071  1.0000
  C   C103      1.0  0.22855  0.22441  0.33131  1.0000
  C   C104      1.0  0.24557  0.24517  0.33113  1.0000
  C   C105      1.0  0.27230  0.24014  0.32996  1.0000
  C   C106      1.0  0.28197  0.21469  0.32920  1.0000
  H   H124      1.0  0.22490  0.18300  0.33112  1.0000
  H   H125      1.0  0.20795  0.22795  0.33233  1.0000
  H   H126      1.0  0.28563  0.25606  0.32981  1.0000
  H   H127      1.0  0.30252  0.21118  0.32812  1.0000
  H   H128      1.0  0.21246  0.50835  0.44966  1.0000
  H   H129      1.0  0.21310  0.28794  0.26280  1.0000
  H   H130      1.0  0.34113  0.04301  0.30785  1.0000
  H   H131      1.0  0.27465  0.01791  0.28860  1.0000
  H   H132      1.0  0.21876  0.25684  0.30203  1.0000
  H   H133      1.0  0.34663  0.13627  0.27401  1.0000
  C   C107      1.0  0.46052  0.11414  0.38904  1.0000
  C   C108      1.0  0.44763  0.10306  0.37688  1.0000
  C   C109      1.0  0.42618  0.11553  0.36991  1.0000
  C   C110      1.0  0.41727  0.13924  0.37505  1.0000
  C   C111      1.0  0.43017  0.15036  0.38720  1.0000
  C   C112      1.0  0.45174  0.13792  0.39414  1.0000
  H   H134      1.0  0.45431  0.08477  0.37277  1.0000
  H   H135      1.0  0.41652  0.10681  0.36056  1.0000
  H   H136      1.0  0.42345  0.16869  0.39127  1.0000
  H   H137      1.0  0.46143  0.14666  0.40350  1.0000
  H   H138      1.0  0.25791  0.03263  0.34519  1.0000
  H   H139      1.0  0.05736  0.48638  0.47084  1.0000
  H   H140      1.0  0.10466  0.43485  0.48480  1.0000
  C   C113      1.0  0.30611  0.24384  0.27215  1.0000
  C   C114      1.0  0.27618  0.08503  0.33723  1.0000
  N   N8        1.0  0.25556  0.07816  0.32668  1.0000
  C   C115      1.0  0.23035  0.07911  0.33554  1.0000
  H   H141      1.0  0.25496  0.50677  0.47379  1.0000
  C   C116      1.0  0.25490  0.09842  0.31343  1.0000
  C   C117      1.0  0.26051  0.05177  0.32145  1.0000
  C   C118      1.0  0.51157  0.06402  0.50634  1.0000
  C   C119      1.0  0.26070  0.03020  0.33269  1.0000
  H   H142      1.0  0.39525  0.02647  0.33612  1.0000
  H   H143      1.0  0.32355  0.24956  0.26539  1.0000
  H   H144      1.0  0.48836  0.04491  0.41252  1.0000
  H   H145      1.0  0.22562  0.09903  0.33904  1.0000
  H   H146      1.0  0.41177  0.05351  0.38085  1.0000
  H   H147      1.0  0.21445  0.07280  0.32826  1.0000
  H   H148      1.0  0.27694  0.07196  0.34814  1.0000
  H   H149      1.0  0.11246  0.50340  0.46920  1.0000
  C   C120      1.0  0.33354  0.02426  0.33095  1.0000
  H   H150      1.0  0.23965  0.09459  0.30503  1.0000
  H   H151      1.0  0.03007  0.34173  0.35059  1.0000
  H   H152      1.0  0.27389  0.10008  0.30687  1.0000
  H   H153      1.0  0.48076  0.04572  0.38335  1.0000
  C   C121      1.0  0.50707  0.06269  0.49028  1.0000
  H   H154      1.0  0.14690  0.48611  0.36821  1.0000
  C   C122      1.0  0.18758  0.49977  0.34861  1.0000
  H   H155      1.0  0.26664  0.06177  0.29596  1.0000
  N   N9        1.0  0.23849  0.27070  0.28027  1.0000
  C   C123      1.0  0.07295  0.47139  0.47086  1.0000
  H   H156      1.0  0.17968  0.49005  0.33858  1.0000
  H   H157      1.0  0.25070  0.11793  0.31774  1.0000
  H   H158      1.0  0.35582  0.23512  0.35859  1.0000
  C   C124      1.0  0.01591  0.50534  0.43743  1.0000
  C   C125      1.0  0.26133  0.25322  0.28082  1.0000
  C   C126      1.0  0.04651  0.38491  0.36586  1.0000
  C   C127      1.0  0.36020  0.14434  0.26507  1.0000
  C   C128      1.0  0.29027  0.27193  0.37175  1.0000
  H   H159      1.0  0.08524  0.49336  0.42063  1.0000
  C   C129      1.0  0.02085  0.29489  0.33381  1.0000
  H   H160      1.0  0.28269  0.19403  0.29623  1.0000
  C   C130      1.0  0.50360  0.03886  0.48409  1.0000
  H   H161      1.0  0.22776  0.30892  0.28689  1.0000
  C   C131      1.0  0.38462  0.15193  0.26939  1.0000
  H   H162      1.0  0.08303  0.40067  0.37160  1.0000
  C   C132      1.0  0.17516  0.48809  0.48865  1.0000
  C   C133      1.0  0.24464  0.29536  0.28713  1.0000
  H   H163      1.0  0.11719  0.50416  0.48990  1.0000
  H   H164      1.0  0.19845  0.27324  0.28814  1.0000
  C   C134      1.0  0.40145  0.02142  0.34796  1.0000
  H   H165      1.0  0.29543  0.08369  0.33111  1.0000
  C   C135      1.0  0.06246  0.39989  0.37447  1.0000
  H   H166      1.0  0.32216  0.20722  0.28063  1.0000
  H   H167      1.0  0.49970  0.03805  0.47168  1.0000
  C   C136      1.0  0.50773  0.03649  0.40970  1.0000
  H   H168      1.0  0.39909  0.06153  0.35316  1.0000
  C   C137      1.0  0.50041  0.03706  0.38181  1.0000
  H   H169      1.0  0.10877  0.33805  0.27240  1.0000
  C   C138      1.0  0.21538  0.25986  0.28915  1.0000
  H   H170      1.0  0.12837  0.45753  0.48988  1.0000
  N   N10       1.0  0.09127  0.47442  0.48368  1.0000
  H   H171      1.0  0.20522  0.51046  0.34422  1.0000
  C   C139      1.0  0.41060  0.03744  0.37333  1.0000
  H   H172      1.0  0.24492  0.22198  0.29682  1.0000
  H   H173      1.0  0.08271  0.47374  0.45893  1.0000
  Fe  Fe23      1.0  0.16849  0.49059  0.44635  1.0000
  H   H174      1.0  0.28607  0.27864  0.26543  1.0000
  H   H175      1.0  0.20941  0.24131  0.28459  1.0000
  H   H176      1.0  0.27376  0.10512  0.34104  1.0000
  C   C140      1.0  0.40360  0.04198  0.35769  1.0000
  H   H177      1.0  0.04071  0.32611  0.29906  1.0000
  H   H178      1.0  0.25008  0.29199  0.29971  1.0000
  N   N11       1.0  0.32751  0.20839  0.36954  1.0000
  C   C141      1.0  0.34639  0.21657  0.35661  1.0000
  C   C142      1.0  0.34076  0.20730  0.38478  1.0000
  C   C143      1.0  0.31942  0.18172  0.36683  1.0000
  C   C144      1.0  0.30572  0.22714  0.37002  1.0000
  C   C145      1.0  0.27952  0.21984  0.36880  1.0000
  C   C146      1.0  0.31042  0.25372  0.37174  1.0000
  C   C147      1.0  0.25953  0.23821  0.36899  1.0000
  H   H179      1.0  0.13598  0.49576  0.34895  1.0000
  C   C148      1.0  0.26490  0.26420  0.37027  1.0000
  H   H180      1.0  0.36238  0.20214  0.35543  1.0000
  H   H181      1.0  0.33694  0.21892  0.34504  1.0000
  H   H182      1.0  0.19386  0.48381  0.35709  1.0000
  H   H183      1.0  0.34930  0.22615  0.38713  1.0000
  H   H184      1.0  0.35698  0.19291  0.38493  1.0000
  H   H185      1.0  0.32713  0.20169  0.39485  1.0000
  H   H186      1.0  0.30993  0.18094  0.35530  1.0000
  H   H187      1.0  0.33625  0.16821  0.36653  1.0000
  H   H188      1.0  0.30610  0.17371  0.37647  1.0000
  H   H189      1.0  0.27389  0.20024  0.36720  1.0000
  H   H190      1.0  0.32976  0.26068  0.37290  1.0000
  C   C149      1.0  0.26135  0.22884  0.28960  1.0000
  H   H191      1.0  0.06476  0.42498  0.39359  1.0000
  H   H192      1.0  0.01510  0.50921  0.39827  1.0000
  C   C150      1.0  0.07919  0.47127  0.49981  1.0000
  C   C151      1.0  0.02582  0.41249  0.39069  1.0000
  C   C152      1.0  0.50981  0.01735  0.50995  1.0000
  C   C153      1.0  0.30537  0.21996  0.28071  1.0000
  C   C154      1.0  0.14411  0.50318  0.35970  1.0000
  H   H193      1.0  0.18347  0.50652  0.37915  1.0000
  C   C155      1.0  0.01947  0.38348  0.36937  1.0000
  C   C156      1.0  0.06602  0.49662  0.42551  1.0000
  C   C157      1.0  0.26565  0.04665  0.30533  1.0000
  H   H194      1.0  0.02348  0.37069  0.33820  1.0000
  H   H195      1.0  0.26080  0.30570  0.28060  1.0000
  C   C158      1.0  0.01478  0.35588  0.34683  1.0000
  H   H196      1.0  0.03907  0.46575  0.49325  1.0000
  C   C159      1.0  0.23126  0.27630  0.26360  1.0000
  C   C160      1.0  0.05236  0.46665  0.50269  1.0000
  H   H197      1.0  0.06412  0.45186  0.47177  1.0000
  H   H198      1.0  0.24549  0.49850  0.44731  1.0000
  C   C161      1.0  0.01909  0.30753  0.31878  1.0000
  H   H199      1.0  0.49941  0.15083  0.50330  1.0000
  C   C162      1.0  0.28451  0.26030  0.27222  1.0000
  C   C163      1.0  0.10258  0.50056  0.48109  1.0000
  H   H200      1.0  0.13660  0.37559  0.26550  1.0000
  H   H201      1.0  0.50086  0.02600  0.37101  1.0000
  H   H202      1.0  0.01785  0.42309  0.40043  1.0000
  C   C164      1.0  0.27023  0.02144  0.30088  1.0000
  H   H203      1.0  0.50623  0.08033  0.48262  1.0000
  C   C165      1.0  0.41537  0.01224  0.37936  1.0000
  H   H204      1.0  0.01253  0.50941  0.37736  1.0000
  Fe  Fe24      1.0  0.35579  0.09685  0.69225  1.0000
  S   S47       1.0  0.38724  0.12234  0.69972  1.0000
  S   S48       1.0  0.36859  0.05481  0.69676  1.0000
  Fe  Fe25      1.0  0.32250  0.14431  0.68197  1.0000
  S   S49       1.0  0.35266  0.17236  0.68791  1.0000
  S   S50       1.0  0.28084  0.15617  0.67674  1.0000
  Fe  Fe26      1.0  0.38143  0.14535  0.67677  1.0000
  S   S51       1.0  0.42042  0.15808  0.66588  1.0000
  Fe  Fe27      1.0  0.35626  0.14687  0.71017  1.0000
  S   S52       1.0  0.35389  0.16779  0.73278  1.0000
  S   S53       1.0  0.35105  0.11892  0.66871  1.0000
  S   S54       1.0  0.32503  0.11968  0.70485  1.0000
  S   S55       1.0  0.12785  0.47905  0.60150  1.0000
  S   S56       1.0  0.46689  0.13724  0.59717  1.0000
  Fe  Fe28      1.0  0.19159  0.28563  0.68015  1.0000
  S   S57       1.0  0.19660  0.32470  0.69001  1.0000
  S   S58       1.0  0.22920  0.26907  0.66958  1.0000
  Fe  Fe29      1.0  0.13292  0.28592  0.68835  1.0000
  S   S59       1.0  0.13441  0.32420  0.69892  1.0000
  S   S60       1.0  0.09529  0.26357  0.68934  1.0000
  Fe  Fe30      1.0  0.16006  0.33622  0.67763  1.0000
  S   S61       1.0  0.14801  0.37406  0.66448  1.0000
  Fe  Fe31      1.0  0.17062  0.30923  0.71019  1.0000
  S   S62       1.0  0.17599  0.30821  0.73667  1.0000
  S   S63       1.0  0.15653  0.29837  0.66639  1.0000
  S   S64       1.0  0.16765  0.26969  0.70106  1.0000
  Fe  Fe32      1.0  0.16654  0.46995  0.59070  1.0000
  S   S65       1.0  0.19332  0.44314  0.60506  1.0000
  Fe  Fe33      1.0  0.11362  0.47589  0.57724  1.0000
  S   S66       1.0  0.15157  0.46331  0.56664  1.0000
  H   H205      1.0  0.50061  0.06401  0.55336  1.0000
  C   C166      1.0  0.09456  0.47225  0.51329  1.0000
  H   H206      1.0  0.15311  0.37359  0.60464  1.0000
  H   H207      1.0  0.17644  0.47179  0.52848  1.0000
  C   C167      1.0  0.06660  0.29228  0.74362  1.0000
  C   C168      1.0  0.03907  0.31533  0.67570  1.0000
  C   C169      1.0  0.06334  0.30420  0.67910  1.0000
  C   C170      1.0  0.06514  0.27832  0.68481  1.0000
  C   C171      1.0  0.04239  0.26382  0.68719  1.0000
  H   H208      1.0  0.24199  0.17173  0.72814  1.0000
  C   C172      1.0  0.08392  0.46793  0.52863  1.0000
  H   H209      1.0  0.08068  0.31557  0.67720  1.0000
  H   H210      1.0  0.04361  0.24377  0.69157  1.0000
  C   C173      1.0  0.03721  0.30314  0.72267  1.0000
  C   C174      1.0  0.16133  0.39113  0.64734  1.0000
  C   C175      1.0  0.14448  0.40423  0.63689  1.0000
  C   C176      1.0  0.15405  0.41961  0.62372  1.0000
  C   C177      1.0  0.18065  0.42248  0.62096  1.0000
  C   C178      1.0  0.19759  0.40931  0.63136  1.0000
  C   C179      1.0  0.18797  0.39390  0.64458  1.0000
  H   H211      1.0  0.12383  0.40247  0.63902  1.0000
  H   H212      1.0  0.14075  0.42915  0.61570  1.0000
  H   H213      1.0  0.21821  0.41148  0.62938  1.0000
  H   H214      1.0  0.20109  0.38498  0.65296  1.0000
  C   C180      1.0  0.19616  0.32937  0.74583  1.0000
  C   C181      1.0  0.20490  0.35246  0.73811  1.0000
  C   C182      1.0  0.21849  0.37016  0.74648  1.0000
  C   C183      1.0  0.41977  0.05582  0.66566  1.0000
  H   H215      1.0  0.20056  0.35700  0.72585  1.0000
  H   H216      1.0  0.22464  0.38832  0.74058  1.0000
  C   C184      1.0  0.47504  0.18563  0.74995  1.0000
  H   H217      1.0  0.43217  0.14233  0.71809  1.0000
  C   C185      1.0  0.24309  0.23754  0.67208  1.0000
  C   C186      1.0  0.27001  0.23453  0.66990  1.0000
  C   C187      1.0  0.28190  0.20989  0.67144  1.0000
  C   C188      1.0  0.26693  0.18780  0.67483  1.0000
  C   C189      1.0  0.23996  0.19078  0.67676  1.0000
  C   C190      1.0  0.22812  0.21549  0.67562  1.0000
  H   H218      1.0  0.28179  0.25141  0.66705  1.0000
  H   H219      1.0  0.30261  0.20795  0.66974  1.0000
  H   H220      1.0  0.22812  0.17384  0.67923  1.0000
  H   H221      1.0  0.20738  0.21740  0.67716  1.0000
  C   C191      1.0  0.37377  0.16018  0.74888  1.0000
  C   C192      1.0  0.39318  0.14124  0.74831  1.0000
  H   H222      1.0  0.40987  0.20988  0.70715  1.0000
  H   H223      1.0  0.04953  0.41830  0.62319  1.0000
  H   H224      1.0  0.39580  0.13026  0.73796  1.0000
  H   H225      1.0  0.16383  0.48596  0.67358  1.0000
  C   C193      1.0  0.24944  0.25365  0.74426  1.0000
  C   C194      1.0  0.43288  0.15107  0.64688  1.0000
  C   C195      1.0  0.41694  0.14396  0.63498  1.0000
  C   C196      1.0  0.42755  0.14011  0.61974  1.0000
  C   C197      1.0  0.45420  0.14271  0.61638  1.0000
  C   C198      1.0  0.47018  0.14932  0.62837  1.0000
  C   C199      1.0  0.45951  0.15373  0.64348  1.0000
  H   H226      1.0  0.39638  0.14215  0.63740  1.0000
  H   H227      1.0  0.41503  0.13517  0.61050  1.0000
  H   H228      1.0  0.49067  0.15168  0.62588  1.0000
  H   H229      1.0  0.47196  0.15949  0.65255  1.0000
  H   H230      1.0  0.20167  0.46293  0.63709  1.0000
  C   C200      1.0  0.16876  0.50600  0.67084  1.0000
  C   C201      1.0  0.26250  0.23003  0.74286  1.0000
  H   H231      1.0  0.32148  0.04445  0.68030  1.0000
  H   H232      1.0  0.43153  0.02267  0.62006  1.0000
  C   C202      1.0  0.31891  0.02392  0.72296  1.0000
  N   N12       1.0  0.44071  0.18206  0.71124  1.0000
  C   C203      1.0  0.41405  0.18888  0.70649  1.0000
  C   C204      1.0  0.45876  0.19666  0.70007  1.0000
  C   C205      1.0  0.44459  0.15400  0.70938  1.0000
  C   C206      1.0  0.44579  0.18782  0.72772  1.0000
  C   C207      1.0  0.47017  0.18166  0.73418  1.0000
  C   C208      1.0  0.42691  0.19901  0.73789  1.0000
  H   H233      1.0  0.13910  0.50055  0.63699  1.0000
  H   H234      1.0  0.02676  0.45899  0.61545  1.0000
  H   H235      1.0  0.49095  0.03118  0.65140  1.0000
  H   H236      1.0  0.39946  0.17773  0.71400  1.0000
  H   H237      1.0  0.41082  0.18437  0.69407  1.0000
  H   H238      1.0  0.27117  0.22160  0.75339  1.0000
  N   N13       1.0  0.27750  0.19302  0.72617  1.0000
  H   H239      1.0  0.46488  0.14763  0.71104  1.0000
  H   H240      1.0  0.25270  0.18057  0.70819  1.0000
  C   C209      1.0  0.20182  0.32371  0.76175  1.0000
  C   C210      1.0  0.40462  0.07649  0.64140  1.0000
  C   C211      1.0  0.08841  0.35515  0.75463  1.0000
  N   N14       1.0  0.47739  0.06398  0.63659  1.0000
  C   C212      1.0  0.05768  0.46300  0.53103  1.0000
  H   H241      1.0  0.30307  0.19315  0.74570  1.0000
  H   H242      1.0  0.03797  0.33533  0.67121  1.0000
  H   H243      1.0  0.49113  0.01292  0.54220  1.0000
  H   H244      1.0  0.19049  0.46286  0.65715  1.0000
  H   H245      1.0  0.46737  0.05960  0.61240  1.0000
  C   C213      1.0  0.45055  0.06461  0.64322  1.0000
  H   H246      1.0  0.26870  0.15506  0.71883  1.0000
  H   H247      1.0  0.42446  0.12210  0.76072  1.0000
  C   C214      1.0  0.40930  0.13658  0.76122  1.0000
  C   C215      1.0  0.50052  0.06446  0.54023  1.0000
  C   C216      1.0  0.43214  0.20321  0.75357  1.0000
  C   C217      1.0  0.02335  0.30790  0.74992  1.0000
  C   C218      1.0  0.03608  0.51064  0.59507  1.0000
  H   H248      1.0  0.22762  0.28426  0.73236  1.0000
  N   N15       1.0  0.17921  0.49677  0.64255  1.0000
  H   H249      1.0  0.18983  0.49474  0.61777  1.0000
  H   H250      1.0  0.24827  0.26250  0.75550  1.0000
  H   H251      1.0  0.15235  0.35022  0.76040  1.0000
  C   C219      1.0  0.48858  0.03752  0.63878  1.0000
  H   H252      1.0  0.23037  0.26469  0.70653  1.0000
  H   H253      1.0  0.08533  0.28518  0.74735  1.0000
  H   H254      1.0  0.45686  0.21784  0.70136  1.0000
  C   C220      1.0  0.02575  0.46652  0.57921  1.0000
  H   H255      1.0  0.50748  0.08413  0.53620  1.0000
  H   H256      1.0  0.29322  0.20477  0.70282  1.0000
  N   N16       1.0  0.21240  0.31792  0.62989  1.0000
  C   C221      1.0  0.19504  0.29529  0.63033  1.0000
  C   C222      1.0  0.23932  0.30792  0.62831  1.0000
  C   C223      1.0  0.20971  0.33012  0.64519  1.0000
  C   C224      1.0  0.20531  0.33716  0.61704  1.0000
  C   C225      1.0  0.17968  0.34711  0.61637  1.0000
  C   C226      1.0  0.22355  0.34751  0.60540  1.0000
  C   C227      1.0  0.17268  0.36592  0.60470  1.0000
  C   C228      1.0  0.21638  0.36664  0.59392  1.0000
  C   C229      1.0  0.19103  0.37585  0.59359  1.0000
  H   H257      1.0  0.19585  0.28617  0.61881  1.0000
  H   H258      1.0  0.20035  0.28021  0.63969  1.0000
  H   H259      1.0  0.17457  0.30043  0.63303  1.0000
  H   H260      1.0  0.24276  0.29861  0.61696  1.0000
  H   H261      1.0  0.24362  0.29297  0.63798  1.0000
  H   H262      1.0  0.25371  0.32345  0.62920  1.0000
  H   H263      1.0  0.18966  0.33698  0.64772  1.0000
  H   H264      1.0  0.21484  0.31648  0.65527  1.0000
  H   H265      1.0  0.22263  0.34705  0.64532  1.0000
  H   H266      1.0  0.16496  0.34104  0.62518  1.0000
  H   H267      1.0  0.24354  0.34149  0.60506  1.0000
  S   S67       1.0  0.07675  0.45592  0.57306  1.0000
  H   H268      1.0  0.23062  0.37477  0.58536  1.0000
  H   H269      1.0  0.18571  0.39120  0.58496  1.0000
  H   H270      1.0  0.27244  0.17713  0.75026  1.0000
  Fe  Fe34      1.0  0.15749  0.50589  0.56099  1.0000
  C   C230      1.0  0.33168  0.02638  0.68280  1.0000
  H   H271      1.0  0.50831  0.03635  0.63314  1.0000
  C   C231      1.0  0.18828  0.50904  0.62702  1.0000
  C   C232      1.0  0.19777  0.47572  0.64697  1.0000
  C   C233      1.0  0.42962  0.07563  0.63460  1.0000
  C   C234      1.0  0.05129  0.47359  0.58126  1.0000
  C   C235      1.0  0.06138  0.29434  0.72760  1.0000
  H   H272      1.0  0.40765  0.20402  0.73422  1.0000
  C   C236      1.0  0.25228  0.23143  0.71519  1.0000
  C   C237      1.0  0.35524  0.02631  0.69027  1.0000
  H   H273      1.0  0.43977  0.14871  0.69732  1.0000
  Fe  Fe35      1.0  0.50973  0.12942  0.59259  1.0000
  H   H274      1.0  0.14607  0.47392  0.65098  1.0000
  C   C238      1.0  0.23781  0.26603  0.73123  1.0000
  H   H275      1.0  0.45988  0.04744  0.66658  1.0000
  H   H276      1.0  0.21662  0.48366  0.65007  1.0000
  H   H277      1.0  0.30962  0.17830  0.71249  1.0000
  C   C239      1.0  0.04190  0.46257  0.51812  1.0000
  H   H278      1.0  0.07605  0.50070  0.59135  1.0000
  H   H279      1.0  0.48553  0.17327  0.72716  1.0000
  H   H280      1.0  0.12041  0.33723  0.74242  1.0000
  C   C240      1.0  0.17409  0.48369  0.51764  1.0000
  H   H281      1.0  0.04960  0.45957  0.54297  1.0000
  H   H282      1.0  0.38038  0.06760  0.66219  1.0000
  H   H283      1.0  0.47925  0.19110  0.70190  1.0000
  H   H284      1.0  0.25302  0.22374  0.70369  1.0000
  C   C241      1.0  0.28796  0.18094  0.74101  1.0000
  H   H285      1.0  0.02175  0.44944  0.57308  1.0000
  C   C242      1.0  0.47947  0.07177  0.61941  1.0000
  C   C243      1.0  0.23931  0.25498  0.71670  1.0000
  H   H286      1.0  0.38911  0.08571  0.63480  1.0000
  C   C244      1.0  0.11428  0.34833  0.75237  1.0000
  H   H287      1.0  0.07599  0.28867  0.71892  1.0000
  H   H288      1.0  0.45493  0.19311  0.68752  1.0000
  C   C245      1.0  0.01461  0.39641  0.62795  1.0000
  H   H289      1.0  0.29763  0.16202  0.73903  1.0000
  C   C246      1.0  0.25941  0.17434  0.72014  1.0000
  C   C247      1.0  0.26411  0.21808  0.72821  1.0000
  C   C248      1.0  0.45596  0.19618  0.75966  1.0000
  C   C249      1.0  0.44487  0.05502  0.65904  1.0000
  H   H290      1.0  0.43214  0.08444  0.62274  1.0000
  H   H291      1.0  0.31386  0.21037  0.71872  1.0000
  C   C250      1.0  0.29944  0.19687  0.71456  1.0000
  H   H292      1.0  0.07437  0.34949  0.74639  1.0000
  H   H293      1.0  0.09607  0.46834  0.53878  1.0000
  H   H294      1.0  0.47646  0.02314  0.63342  1.0000
  C   C251      1.0  0.05641  0.49539  0.58944  1.0000
  H   H295      1.0  0.47397  0.09238  0.61697  1.0000
  C   C252      1.0  0.49330  0.08194  0.64491  1.0000
  H   H296      1.0  0.28327  0.01685  0.71203  1.0000
  H   H297      1.0  0.49355  0.18015  0.75477  1.0000
  H   H298      1.0  0.15476  0.47165  0.63070  1.0000
  H   H299      1.0  0.49961  0.07016  0.61458  1.0000
  C   C253      1.0  0.01806  0.27504  0.68393  1.0000
  C   C254      1.0  0.02859  0.41880  0.62344  1.0000
  H   H300      1.0  0.03395  0.30374  0.71017  1.0000
  H   H301      1.0  0.02149  0.45869  0.52008  1.0000
  C   C255      1.0  0.39969  0.06649  0.65686  1.0000
  H   H302      1.0  0.31813  0.04464  0.72013  1.0000
  C   C256      1.0  0.15366  0.48530  0.64028  1.0000
  H   H303      1.0  0.41590  0.04878  0.67785  1.0000
  H   H304      1.0  0.02580  0.37929  0.63117  1.0000
  H   H305      1.0  0.48011  0.06284  0.53683  1.0000
  C   C257      1.0  0.04763  0.29900  0.75476  1.0000
  H   H306      1.0  0.48551  0.10206  0.64355  1.0000
  H   H307      1.0  0.35582  0.02524  0.73338  1.0000
  C   C258      1.0  0.51124  0.01936  0.54365  1.0000
  C   C259      1.0  0.01631  0.30089  0.67816  1.0000
  C   C260      1.0  0.16882  0.51013  0.51832  1.0000
  H   H308      1.0  0.49387  0.07661  0.65781  1.0000
  C   C261      1.0  0.01748  0.31041  0.73362  1.0000
  C   C262      1.0  0.01578  0.44179  0.61906  1.0000
  H   H309      1.0  0.41725  0.21113  0.76124  1.0000
  C   C263      1.0  0.34019  0.01290  0.73045  1.0000
  H   H310      1.0  0.11506  0.47602  0.51211  1.0000
  Fe  Fe36      1.0  0.40453  0.17226  0.84545  1.0000
  S   S68       1.0  0.41208  0.21490  0.84576  1.0000
  S   S69       1.0  0.38803  0.15056  0.86766  1.0000
  Fe  Fe37      1.0  0.42065  0.17133  0.81071  1.0000
  S   S70       1.0  0.43004  0.21359  0.80838  1.0000
  S   S71       1.0  0.42684  0.14522  0.79058  1.0000
  Fe  Fe38      1.0  0.44868  0.20601  0.83176  1.0000
  S   S72       1.0  0.48593  0.22367  0.83926  1.0000
  Fe  Fe39      1.0  0.39264  0.21899  0.82244  1.0000
  S   S73       1.0  0.36502  0.24996  0.81207  1.0000
  S   S74       1.0  0.44225  0.16319  0.83309  1.0000
  S   S75       1.0  0.38222  0.17686  0.82315  1.0000
  H   H311      1.0  0.15102  0.40054  0.80694  1.0000
  S   S76       1.0  0.45051  0.06541  0.90780  1.0000
  H   H312      1.0  0.19517  0.30581  0.76775  1.0000
  Fe  Fe40      1.0  0.26140  0.36196  0.82971  1.0000
  S   S77       1.0  0.22879  0.34924  0.81533  1.0000
  S   S78       1.0  0.28940  0.33359  0.84224  1.0000
  Fe  Fe41      1.0  0.24240  0.41908  0.82786  1.0000
  S   S79       1.0  0.20906  0.41001  0.81321  1.0000
  S   S80       1.0  0.24320  0.45776  0.83908  1.0000
  Fe  Fe42      1.0  0.20338  0.37497  0.82983  1.0000
  S   S81       1.0  0.16202  0.36408  0.83697  1.0000
  Fe  Fe43      1.0  0.23730  0.38538  0.80000  1.0000
  S   S82       1.0  0.23724  0.38894  0.77323  1.0000
  S   S83       1.0  0.23505  0.38515  0.84540  1.0000
  S   S84       1.0  0.27164  0.39694  0.81350  1.0000
  Fe  Fe44      1.0  0.07455  0.38143  0.91393  1.0000
  S   S85       1.0  0.04484  0.39393  0.89632  1.0000
  S   S86       1.0  0.11522  0.36785  0.90733  1.0000
  Fe  Fe45      1.0  0.04287  0.40133  0.94249  1.0000
  H   H313      1.0  0.36795  0.08604  0.86264  1.0000
  Fe  Fe46      1.0  0.04274  0.42995  0.90942  1.0000
  H   H314      1.0  0.15335  0.42519  0.86869  1.0000
  S   S87       1.0  0.04568  0.36265  0.93179  1.0000
  S   S88       1.0  0.07402  0.41872  0.92600  1.0000
  C   C264      1.0  0.03792  0.39925  0.98765  1.0000
  C   C265      1.0  0.03979  0.37251  0.99104  1.0000
  H   H315      1.0  0.42877  0.04895  0.00940  1.0000
  H   H316      1.0  0.04204  0.35977  0.98149  1.0000
  C   C266      1.0  0.13532  0.39471  0.79931  1.0000
  C   C267      1.0  0.04141  0.49287  0.90891  1.0000
  H   H317      1.0  0.12142  0.38358  0.80739  1.0000
  H   H318      1.0  0.04379  0.46667  0.92965  1.0000
  C   C268      1.0  0.22070  0.27416  0.86150  1.0000
  H   H319      1.0  0.42601  0.07170  0.81617  1.0000
  H   H320      1.0  0.21930  0.33698  0.78240  1.0000
  C   C269      1.0  0.14920  0.36749  0.85642  1.0000
  C   C270      1.0  0.16521  0.36993  0.86913  1.0000
  C   C271      1.0  0.15450  0.37026  0.88463  1.0000
  C   C272      1.0  0.12765  0.36898  0.88754  1.0000
  C   C273      1.0  0.11156  0.36748  0.87476  1.0000
  C   C274      1.0  0.12233  0.36645  0.85930  1.0000
  H   H321      1.0  0.18589  0.37097  0.86713  1.0000
  H   H322      1.0  0.16711  0.37129  0.89444  1.0000
  H   H323      1.0  0.09088  0.36624  0.87685  1.0000
  H   H324      1.0  0.10977  0.36449  0.84956  1.0000
  C   C275      1.0  0.24709  0.48900  0.82942  1.0000
  C   C276      1.0  0.38397  0.10136  0.84079  1.0000
  H   H325      1.0  0.35076  0.34086  0.79787  1.0000
  H   H326      1.0  0.12408  0.48836  0.90159  1.0000
  H   H327      1.0  0.26071  0.47614  0.80695  1.0000
  C   C277      1.0  0.34323  0.27202  0.82099  1.0000
  C   C278      1.0  0.32601  0.28648  0.81135  1.0000
  C   C279      1.0  0.30919  0.30513  0.81767  1.0000
  C   C280      1.0  0.30948  0.30964  0.83374  1.0000
  C   C281      1.0  0.32647  0.29496  0.84343  1.0000
  C   C282      1.0  0.34324  0.27624  0.83712  1.0000
  H   H328      1.0  0.32586  0.28344  0.79886  1.0000
  H   H329      1.0  0.29630  0.31625  0.81005  1.0000
  H   H330      1.0  0.32685  0.29827  0.85588  1.0000
  H   H331      1.0  0.35630  0.26530  0.84470  1.0000
  C   C283      1.0  0.40410  0.12427  0.87753  1.0000
  C   C284      1.0  0.42774  0.11468  0.87178  1.0000
  C   C285      1.0  0.44129  0.09570  0.88086  1.0000
  C   C286      1.0  0.43101  0.08562  0.89553  1.0000
  C   C287      1.0  0.40676  0.09420  0.90088  1.0000
  C   C288      1.0  0.39341  0.11353  0.89192  1.0000
  H   H332      1.0  0.43593  0.12234  0.86055  1.0000
  H   H333      1.0  0.46006  0.08916  0.87665  1.0000
  H   H334      1.0  0.39882  0.08682  0.91226  1.0000
  H   H335      1.0  0.37508  0.12077  0.89642  1.0000
  C   C289      1.0  0.40597  0.15072  0.77473  1.0000
  C   C290      1.0  0.25614  0.49271  0.81368  1.0000
  H   H336      1.0  0.38362  0.18041  0.78567  1.0000
  N   N17       1.0  0.42495  0.30000  0.81857  1.0000
  C   C291      1.0  0.44858  0.31509  0.82061  1.0000
  C   C292      1.0  0.42290  0.27921  0.83144  1.0000
  C   C293      1.0  0.42833  0.28734  0.80339  1.0000
  C   C294      1.0  0.14112  0.46389  0.87484  1.0000
  C   C295      1.0  0.22027  0.32045  0.85648  1.0000
  C   C296      1.0  0.17355  0.45379  0.85417  1.0000
  C   C297      1.0  0.41999  0.01959  0.99355  1.0000
  C   C298      1.0  0.40996  0.05431  0.83824  1.0000
  C   C299      1.0  0.09887  0.37697  0.77797  1.0000
  H   H337      1.0  0.44857  0.32355  0.83231  1.0000
  H   H338      1.0  0.46633  0.30279  0.81982  1.0000
  H   H339      1.0  0.45048  0.33132  0.81137  1.0000
  H   H340      1.0  0.17070  0.30678  0.90804  1.0000
  H   H341      1.0  0.43909  0.26491  0.83071  1.0000
  H   H342      1.0  0.43602  0.17496  0.90519  1.0000
  H   H343      1.0  0.43101  0.30177  0.79317  1.0000
  H   H344      1.0  0.44558  0.27429  0.80330  1.0000
  H   H345      1.0  0.41147  0.27506  0.80131  1.0000
  C   C300      1.0  0.10990  0.47605  0.89615  1.0000
  H   H346      1.0  0.20644  0.30131  0.88888  1.0000
  H   H347      1.0  0.15072  0.30012  0.85181  1.0000
  C   C301      1.0  0.45045  0.18275  0.87496  1.0000
  C   C302      1.0  0.19628  0.29391  0.84042  1.0000
  H   H348      1.0  0.13151  0.36953  0.98376  1.0000
  H   H349      1.0  0.34063  0.36209  0.82258  1.0000
  N   N18       1.0  0.46786  0.17473  0.88791  1.0000
  H   H350      1.0  0.36448  0.02830  0.00928  1.0000
  C   C303      1.0  0.15029  0.36561  0.00605  1.0000
  Fe  Fe47      1.0  0.43653  0.02777  0.92037  1.0000
  H   H351      1.0  0.50184  0.19235  0.81309  1.0000
  H   H352      1.0  0.37400  0.11975  0.84178  1.0000
  C   C304      1.0  0.47916  0.19822  0.89384  1.0000
  C   C305      1.0  0.39567  0.33010  0.83324  1.0000
  C   C306      1.0  0.18242  0.29928  0.86839  1.0000
  H   H353      1.0  0.14468  0.42037  0.89501  1.0000
  H   H354      1.0  0.14472  0.34390  0.80143  1.0000
  C   C307      1.0  0.15858  0.35599  0.79391  1.0000
  C   C308      1.0  0.38522  0.32178  0.80646  1.0000
  H   H355      1.0  0.43326  0.19375  0.87924  1.0000
  C   C309      1.0  0.41547  0.02764  0.87036  1.0000
  N   N19       1.0  0.20435  0.29690  0.85683  1.0000
  H   H356      1.0  0.05169  0.29700  0.76723  1.0000
  C   C310      1.0  0.15562  0.44577  0.86618  1.0000
  H   H357      1.0  0.37124  0.02567  0.88679  1.0000
  H   H358      1.0  0.46404  0.21093  0.89901  1.0000
  C   C311      1.0  0.50566  0.16733  0.86920  1.0000
  H   H359      1.0  0.48943  0.21027  0.88427  1.0000
  C   C312      1.0  0.36369  0.33819  0.80762  1.0000
  H   H360      1.0  0.40735  0.32753  0.84351  1.0000
  C   C313      1.0  0.03878  0.36219  0.00690  1.0000
  H   H361      1.0  0.50341  0.18661  0.86372  1.0000
  H   H362      1.0  0.03390  0.43613  0.99787  1.0000
  S   S89       1.0  0.04158  0.46831  0.89572  1.0000
  H   H363      1.0  0.42115  0.03267  0.98306  1.0000
  H   H364      1.0  0.09651  0.46846  0.90594  1.0000
  C   C314      1.0  0.45182  0.16201  0.90104  1.0000
  H   H365      1.0  0.42518  0.04407  0.87542  1.0000
  H   H366      1.0  0.16766  0.34348  0.78512  1.0000
  C   C315      1.0  0.03532  0.41543  0.00033  1.0000
  C   C316      1.0  0.13007  0.37282  0.99626  1.0000
  C   C317      1.0  0.16497  0.39487  0.77695  1.0000
  H   H367      1.0  0.08821  0.43212  0.89080  1.0000
  C   C318      1.0  0.39356  0.05737  0.85183  1.0000
  H   H368      1.0  0.19142  0.48608  0.84103  1.0000
  H   H369      1.0  0.38782  0.31234  0.79554  1.0000
  C   C319      1.0  0.48881  0.15794  0.88183  1.0000
  C   C320      1.0  0.12551  0.37065  0.77585  1.0000
  C   C321      1.0  0.04300  0.48662  0.92514  1.0000
  H   H370      1.0  0.12390  0.43186  0.91005  1.0000
  H   H371      1.0  0.15317  0.44895  0.90436  1.0000
  H   H372      1.0  0.23002  0.27617  0.87293  1.0000
  C   C322      1.0  0.38633  0.16938  0.77533  1.0000
  H   H373      1.0  0.22894  0.32330  0.86801  1.0000
  H   H374      1.0  0.09769  0.48838  0.88809  1.0000
  H   H375      1.0  0.42330  0.28668  0.84338  1.0000
  H   H376      1.0  0.11018  0.42194  0.87575  1.0000
  H   H377      1.0  0.20914  0.25614  0.86264  1.0000
  C   C323      1.0  0.42425  0.02879  0.00855  1.0000
  H   H378      1.0  0.18489  0.43965  0.84793  1.0000
  H   H379      1.0  0.16749  0.35665  0.00107  1.0000
  C   C324      1.0  0.38059  0.08160  0.85274  1.0000
  C   C325      1.0  0.40036  0.09779  0.82772  1.0000
  C   C326      1.0  0.41333  0.07431  0.82643  1.0000
  H   H380      1.0  0.18421  0.27645  0.83975  1.0000
  C   C327      1.0  0.49331  0.13223  0.88817  1.0000
  S   S90       1.0  0.03858  0.41373  0.96798  1.0000
  H   H381      1.0  0.44316  0.16569  0.86933  1.0000
  N   N20       1.0  0.39010  0.03575  0.86404  1.0000
  H   H382      1.0  0.38087  0.05864  0.88385  1.0000
  H   H383      1.0  0.40302  0.11328  0.81854  1.0000
  C   C328      1.0  0.14132  0.30557  0.89100  1.0000
  H   H384      1.0  0.36896  0.35523  0.84523  1.0000
  H   H385      1.0  0.17426  0.36158  0.80160  1.0000
  C   C329      1.0  0.40194  0.31723  0.81930  1.0000
  C   C330      1.0  0.37388  0.34617  0.83433  1.0000
  H   H386      1.0  0.12568  0.30885  0.89953  1.0000
  H   H387      1.0  0.44217  0.14454  0.89723  1.0000
  H   H388      1.0  0.11628  0.30527  0.87146  1.0000
  C   C331      1.0  0.35793  0.35020  0.82155  1.0000
  H   H389      1.0  0.20839  0.33789  0.85332  1.0000
  H   H390      1.0  0.17486  0.38407  0.76757  1.0000
  C   C332      1.0  0.16674  0.30451  0.89575  1.0000
  H   H391      1.0  0.18534  0.31123  0.83573  1.0000
  C   C333      1.0  0.18703  0.30140  0.88466  1.0000
  H   H392      1.0  0.49332  0.19300  0.90311  1.0000
  H   H393      1.0  0.12590  0.41287  0.79460  1.0000
  H   H394      1.0  0.15594  0.41232  0.77100  1.0000
  C   C334      1.0  0.10235  0.43927  0.88137  1.0000
  H   H395      1.0  0.23669  0.31981  0.84765  1.0000
  H   H396      1.0  0.40447  0.26857  0.83085  1.0000
  H   H397      1.0  0.23686  0.27142  0.85267  1.0000
  H   H398      1.0  0.09130  0.45097  0.87237  1.0000
  C   C335      1.0  0.13607  0.30356  0.87515  1.0000
  N   N21       1.0  0.14554  0.37900  0.78638  1.0000
  C   C336      1.0  0.21539  0.34137  0.77009  1.0000
  C   C337      1.0  0.15621  0.30057  0.86393  1.0000
  H   H399      1.0  0.21324  0.29187  0.83208  1.0000
  H   H400      1.0  0.46019  0.19529  0.86547  1.0000
  H   H401      1.0  0.18060  0.40144  0.78434  1.0000
  N   N22       1.0  0.12283  0.45480  0.88782  1.0000
  C   C338      1.0  0.13678  0.43837  0.89979  1.0000
  H   H402      1.0  0.09160  0.38791  0.78761  1.0000
  C   C339      1.0  0.17735  0.48001  0.85029  1.0000
  C   C340      1.0  0.37036  0.17414  0.76243  1.0000
  H   H403      1.0  0.35312  0.04729  0.87407  1.0000
  C   C341      1.0  0.37304  0.04227  0.87773  1.0000
  H   H404      1.0  0.48140  0.12314  0.89766  1.0000
  C   C342      1.0  0.10788  0.38423  0.00257  1.0000
  H   H405      1.0  0.04004  0.34148  0.00938  1.0000
  C   C343      1.0  0.14532  0.49055  0.87050  1.0000
  H   H406      1.0  0.09212  0.38980  0.99494  1.0000
  H   H407      1.0  0.46350  0.15627  0.91147  1.0000
  H   H408      1.0  0.42024  0.03638  0.83662  1.0000
  H   H409      1.0  0.45947  0.19851  0.77201  1.0000
  H   H410      1.0  0.06049  0.37444  0.76920  1.0000
  C   C344      1.0  0.08069  0.36928  0.76745  1.0000
  C   C345      1.0  0.16326  0.49834  0.85840  1.0000
  H   H411      1.0  0.23459  0.50811  0.85025  1.0000
  H   H412      1.0  0.42884  0.01993  0.86126  1.0000
  Fe  Fe48      1.0  0.01572  0.37881  0.91488  1.0000
  H   H413      1.0  0.48179  0.01802  0.98870  1.0000
  C   C346      1.0  0.13254  0.35591  0.76278  1.0000
  H   H414      1.0  0.35990  0.01904  0.85144  1.0000
  H   H415      1.0  0.04503  0.50134  0.94820  1.0000
  C   C347      1.0  0.37854  0.01345  0.85689  1.0000
  H   H416      1.0  0.35541  0.18885  0.76293  1.0000
  C   C348      1.0  0.22334  0.36488  0.76257  1.0000
  S   S91       1.0  0.39705  0.01211  0.92740  1.0000
  H   H417      1.0  0.13513  0.50578  0.87628  1.0000
  C   C349      1.0  0.04362  0.50628  0.93566  1.0000
  C   C350      1.0  0.24143  0.51077  0.83804  1.0000
  H   H418      1.0  0.41331  0.01199  0.87994  1.0000
  Fe  Fe49      1.0  0.40470  0.97254  0.09447  1.0000
  S   S92       1.0  0.37479  0.94355  0.10421  1.0000
  C   C351      1.0  0.34456  0.98034  0.03686  1.0000
  S   S93       1.0  0.43230  0.96643  0.07386  1.0000
  Fe  Fe50      1.0  0.39300  0.77541  0.18520  1.0000
  S   S94       1.0  0.37429  0.81397  0.17896  1.0000
  S   S95       1.0  0.37463  0.73529  0.18563  1.0000
  Fe  Fe51      1.0  0.44542  0.80047  0.19194  1.0000
  S   S96       1.0  0.43006  0.84052  0.18633  1.0000
  S   S97       1.0  0.48576  0.79463  0.20157  1.0000
  Fe  Fe52      1.0  0.39427  0.82714  0.20019  1.0000
  S   S98       1.0  0.37283  0.85352  0.21661  1.0000
  Fe  Fe53      1.0  0.41168  0.82402  0.16574  1.0000
  S   S99       1.0  0.41783  0.84156  0.14062  1.0000
  S   S100      1.0  0.41060  0.78808  0.20731  1.0000
  S   S101      1.0  0.42942  0.78443  0.17048  1.0000
  H   H419      1.0  0.27823  0.67480  0.22473  1.0000
  H   H420      1.0  0.27044  0.75519  0.24329  1.0000
  Fe  Fe54      1.0  0.05667  0.65753  0.09287  1.0000
  S   S102      1.0  0.03146  0.62908  0.10706  1.0000
  S   S103      1.0  0.08384  0.68336  0.10484  1.0000
  Fe  Fe55      1.0  0.04595  0.60107  0.08972  1.0000
  S   S104      1.0  0.06332  0.56282  0.09801  1.0000
  S   S105      1.0  0.07317  0.62871  0.07678  1.0000
  S   S106      1.0  0.50041  0.96204  0.09188  1.0000
  Fe  Fe56      1.0  0.24220  0.65757  0.17330  1.0000
  S   S107      1.0  0.20134  0.67209  0.17656  1.0000
  S   S108      1.0  0.26908  0.69001  0.16346  1.0000
  Fe  Fe57      1.0  0.22771  0.60332  0.18730  1.0000
  S   S109      1.0  0.18673  0.61534  0.19263  1.0000
  S   S110      1.0  0.23654  0.56166  0.19573  1.0000
  Fe  Fe58      1.0  0.18860  0.63444  0.16805  1.0000
  S   S111      1.0  0.15443  0.62216  0.15436  1.0000
  Fe  Fe59      1.0  0.20311  0.65174  0.20066  1.0000
  S   S112      1.0  0.18968  0.67725  0.22003  1.0000
  S   S113      1.0  0.22929  0.62116  0.16236  1.0000
  S   S114      1.0  0.24422  0.63832  0.19773  1.0000
  C   C352      1.0  0.23630  0.53540  0.18344  1.0000
  H   H421      1.0  0.06149  0.65330  0.25109  1.0000
  C   C353      1.0  0.24840  0.53680  0.16838  1.0000
  Fe  Fe60      1.0  0.46173  0.98139  0.08949  1.0000
  H   H422      1.0  0.25629  0.55497  0.16349  1.0000
  C   C354      1.0  0.14707  0.55111  0.16165  1.0000
  C   C355      1.0  0.18149  0.68328  0.25142  1.0000
  C   C356      1.0  0.18719  0.66561  0.23996  1.0000
  C   C357      1.0  0.19051  0.63943  0.24461  1.0000
  S   S115      1.0  0.02598  0.67080  0.07584  1.0000
  H   H423      1.0  0.17909  0.70358  0.24788  1.0000
  H   H424      1.0  0.19490  0.62568  0.23580  1.0000
  C   C358      1.0  0.18783  0.63101  0.26072  1.0000
  C   C359      1.0  0.10277  0.66767  0.11958  1.0000
  C   C360      1.0  0.09506  0.64399  0.12698  1.0000
  C   C361      1.0  0.11038  0.63134  0.13844  1.0000
  C   C362      1.0  0.13397  0.64174  0.14231  1.0000
  C   C363      1.0  0.14153  0.66575  0.13523  1.0000
  C   C364      1.0  0.12579  0.67880  0.12397  1.0000
  H   H425      1.0  0.07730  0.63533  0.12389  1.0000
  H   H426      1.0  0.10409  0.61310  0.14414  1.0000
  H   H427      1.0  0.15974  0.67392  0.13810  1.0000
  H   H428      1.0  0.13184  0.69720  0.11836  1.0000
  C   C365      1.0  0.25176  0.51427  0.16005  1.0000
  C   C366      1.0  0.04470  0.53726  0.09245  1.0000
  H   H429      1.0  0.10843  0.54882  0.15370  1.0000
  H   H430      1.0  0.24447  0.67542  0.24567  1.0000
  H   H431      1.0  0.31560  0.99985  0.06007  1.0000
  C   C367      1.0  0.12715  0.53927  0.15435  1.0000
  C   C368      1.0  0.34338  0.72428  0.18136  1.0000
  C   C369      1.0  0.33721  0.69818  0.18521  1.0000
  C   C370      1.0  0.31371  0.68779  0.18079  1.0000
  C   C371      1.0  0.29625  0.70330  0.17214  1.0000
  C   C372      1.0  0.30203  0.72959  0.16871  1.0000
  C   C373      1.0  0.32526  0.74014  0.17348  1.0000
  H   H432      1.0  0.35106  0.68571  0.19129  1.0000
  H   H433      1.0  0.30976  0.66747  0.18333  1.0000
  H   H434      1.0  0.28878  0.74172  0.16192  1.0000
  H   H435      1.0  0.32945  0.76029  0.17056  1.0000
  C   C374      1.0  0.37742  0.84890  0.23719  1.0000
  C   C375      1.0  0.39569  0.83118  0.24322  1.0000
  S   S116      1.0  0.01421  0.60898  0.07268  1.0000
  C   C376      1.0  0.36262  0.86346  0.24770  1.0000
  H   H436      1.0  0.40737  0.82002  0.23528  1.0000
  C   C377      1.0  0.02694  0.68307  0.13634  1.0000
  H   H437      1.0  0.34847  0.87723  0.24314  1.0000
  C   C378      1.0  0.40584  0.87159  0.13257  1.0000
  C   C379      1.0  0.37945  0.87779  0.13332  1.0000
  C   C380      1.0  0.37005  0.89990  0.12464  1.0000
  C   C381      1.0  0.38700  0.91624  0.11541  1.0000
  C   C382      1.0  0.41343  0.91042  0.11508  1.0000
  C   C383      1.0  0.42270  0.88803  0.12341  1.0000
  H   H438      1.0  0.36616  0.86497  0.14001  1.0000
  H   H439      1.0  0.34957  0.90422  0.12494  1.0000
  H   H440      1.0  0.42671  0.92273  0.10798  1.0000
  H   H441      1.0  0.44305  0.88318  0.12251  1.0000
  H   H442      1.0  0.10281  0.63916  0.25983  1.0000
  C   C384      1.0  0.03937  0.64709  0.01637  1.0000
  H   H443      1.0  0.03021  0.69602  0.10561  1.0000
  C   C385      1.0  0.26468  0.68827  0.21837  1.0000
  N   N23       1.0  0.14204  0.58407  0.10496  1.0000
  C   C386      1.0  0.14732  0.61223  0.10404  1.0000
  C   C387      1.0  0.13126  0.57801  0.08965  1.0000
  C   C388      1.0  0.12181  0.57824  0.11747  1.0000
  C   C389      1.0  0.16590  0.56935  0.10890  1.0000
  C   C390      1.0  0.17869  0.57349  0.12303  1.0000
  C   C391      1.0  0.17712  0.55069  0.09907  1.0000
  C   C392      1.0  0.20128  0.56000  0.12703  1.0000
  C   C393      1.0  0.03815  0.57234  0.02132  1.0000
  H   H444      1.0  0.33978  0.93202  0.05395  1.0000
  H   H445      1.0  0.16291  0.61737  0.09504  1.0000
  H   H446      1.0  0.12985  0.62396  0.10085  1.0000
  H   H447      1.0  0.15339  0.61900  0.11547  1.0000
  H   H448      1.0  0.14509  0.58265  0.07953  1.0000
  H   H449      1.0  0.11335  0.58948  0.08717  1.0000
  H   H450      1.0  0.12542  0.55740  0.08972  1.0000
  H   H451      1.0  0.12794  0.58310  0.12930  1.0000
  H   H452      1.0  0.10369  0.58945  0.11510  1.0000
  H   H453      1.0  0.11668  0.55741  0.11823  1.0000
  H   H454      1.0  0.17135  0.58733  0.13112  1.0000
  H   H455      1.0  0.31069  0.95142  0.05647  1.0000
  H   H456      1.0  0.21069  0.56375  0.13787  1.0000
  H   H457      1.0  0.04860  0.72582  0.12210  1.0000
  N   N24       1.0  0.26536  0.71457  0.22427  1.0000
  N   N25       1.0  0.01330  0.70524  0.12821  1.0000
  H   H458      1.0  0.04509  0.67789  0.12977  1.0000
  C   C394      1.0  0.41584  0.98642  0.02109  1.0000
  H   H459      1.0  0.33227  0.94513  0.07239  1.0000
  N   N26       1.0  0.38289  0.75653  0.13482  1.0000
  C   C395      1.0  0.37452  0.77804  0.14452  1.0000
  C   C396      1.0  0.40679  0.74498  0.14157  1.0000
  C   C397      1.0  0.38980  0.76731  0.11856  1.0000
  C   C398      1.0  0.36153  0.73784  0.13456  1.0000
  C   C399      1.0  0.33835  0.74501  0.12691  1.0000
  C   C400      1.0  0.36251  0.71269  0.14235  1.0000
  C   C401      1.0  0.31782  0.72781  0.12664  1.0000
  C   C402      1.0  0.34189  0.69563  0.14194  1.0000
  C   C403      1.0  0.31967  0.70312  0.13406  1.0000
  H   H460      1.0  0.36983  0.77079  0.15693  1.0000
  H   H461      1.0  0.38986  0.79283  0.14482  1.0000
  H   H462      1.0  0.35709  0.78827  0.13997  1.0000
  H   H463      1.0  0.41355  0.72797  0.13516  1.0000
  H   H464      1.0  0.40387  0.73890  0.15438  1.0000
  H   H465      1.0  0.42292  0.75905  0.14086  1.0000
  H   H466      1.0  0.37408  0.77938  0.11328  1.0000
  H   H467      1.0  0.40678  0.78037  0.11840  1.0000
  H   H468      1.0  0.39458  0.75160  0.11058  1.0000
  H   H469      1.0  0.33566  0.76417  0.12138  1.0000
  H   H470      1.0  0.37860  0.70595  0.14927  1.0000
  H   H471      1.0  0.30009  0.73379  0.12101  1.0000
  H   H472      1.0  0.34268  0.67682  0.14833  1.0000
  H   H473      1.0  0.30342  0.69009  0.13426  1.0000
  N   N27       1.0  0.39291  0.91436  0.18440  1.0000
  C   C404      1.0  0.37186  0.92194  0.19556  1.0000
  C   C405      1.0  0.38386  0.89185  0.17620  1.0000
  C   C406      1.0  0.41556  0.90554  0.19360  1.0000
  C   C407      1.0  0.39998  0.93688  0.17348  1.0000
  C   C408      1.0  0.39620  0.93753  0.15694  1.0000
  C   C409      1.0  0.41055  0.95935  0.17935  1.0000
  C   C410      1.0  0.40292  0.95913  0.14697  1.0000
  C   C411      1.0  0.41757  0.98074  0.16921  1.0000
  C   C412      1.0  0.33560  0.99443  0.06342  1.0000
  H   H474      1.0  0.35466  0.92923  0.18909  1.0000
  H   H475      1.0  0.36553  0.90528  0.20373  1.0000
  H   H476      1.0  0.37787  0.93725  0.20317  1.0000
  H   H477      1.0  0.36586  0.89643  0.16979  1.0000
  H   H478      1.0  0.37917  0.87511  0.18469  1.0000
  H   H479      1.0  0.39893  0.88497  0.16767  1.0000
  H   H480      1.0  0.42210  0.92019  0.20149  1.0000
  H   H481      1.0  0.41105  0.88806  0.20156  1.0000
  H   H482      1.0  0.43218  0.90057  0.18561  1.0000
  H   H483      1.0  0.38821  0.92156  0.15133  1.0000
  H   H484      1.0  0.41355  0.96049  0.19182  1.0000
  H   H485      1.0  0.50114  0.80277  0.16799  1.0000
  H   H486      1.0  0.23071  0.53740  0.23175  1.0000
  C   C413      1.0  0.19982  0.53732  0.10318  1.0000
  H   H487      1.0  0.14390  0.56971  0.16661  1.0000
  N   N28       1.0  0.34598  0.97317  0.05402  1.0000
  Fe  Fe61      1.0  0.42473  0.00833  0.06676  1.0000
  H   H488      1.0  0.32626  0.94504  0.02981  1.0000
  C   C414      1.0  0.33435  0.96361  0.02606  1.0000
  H   H489      1.0  0.03775  0.53121  0.05429  1.0000
  C   C415      1.0  0.29149  0.72506  0.22008  1.0000
  H   H490      1.0  0.37536  0.96264  0.07061  1.0000
  H   H491      1.0  0.22603  0.72326  0.21852  1.0000
  H   H492      1.0  0.01462  0.66563  0.13751  1.0000
  H   H493      1.0  0.50642  0.00704  0.06523  1.0000
  C   C416      1.0  0.33143  0.94943  0.05933  1.0000
  H   H494      1.0  0.41422  0.97343  0.03156  1.0000
  H   H495      1.0  0.22945  0.53164  0.12029  1.0000
  H   H496      1.0  0.38527  0.98602  0.05507  1.0000
  C   C417      1.0  0.35518  0.00400  0.03031  1.0000
  C   C418      1.0  0.24897  0.69332  0.25072  1.0000
  H   H497      1.0  0.04328  0.59216  0.01806  1.0000
  S   S117      1.0  0.43501  0.98415  0.11047  1.0000
  C   C419      1.0  0.26334  0.73771  0.24953  1.0000
  S   S118      1.0  0.05414  0.63938  0.03470  1.0000
  C   C420      1.0  0.41385  0.98058  0.15303  1.0000
  H   H498      1.0  0.18655  0.54829  0.16838  1.0000
  H   H499      1.0  0.41950  0.99703  0.14512  1.0000
  H   H500      1.0  0.24923  0.73064  0.20263  1.0000
  H   H501      1.0  0.27012  0.68841  0.20550  1.0000
  H   H502      1.0  0.29292  0.74602  0.22178  1.0000
  H   H503      1.0  0.10220  0.66843  0.24682  1.0000
  C   C421      1.0  0.24592  0.73070  0.21571  1.0000
  C   C422      1.0  0.21183  0.54194  0.11714  1.0000
  H   H504      1.0  0.39977  0.95906  0.13441  1.0000
  H   H505      1.0  0.04876  0.57634  0.04534  1.0000
  C   C423      1.0  0.01917  0.54159  0.08814  1.0000
  H   H506      1.0  0.03277  0.68717  0.14837  1.0000
  C   C424      1.0  0.04145  0.56339  0.03703  1.0000
  H   H507      1.0  0.29704  0.72307  0.20737  1.0000
  C   C425      1.0  0.13112  0.51518  0.14806  1.0000
  H   H508      1.0  0.01988  0.74574  0.12264  1.0000
  C   C426      1.0  0.37332  0.96850  0.05783  1.0000
  H   H509      1.0  0.24619  0.75114  0.21888  1.0000
  C   C427      1.0  0.25957  0.71490  0.24153  1.0000
  H   H510      1.0  0.38203  0.95282  0.05094  1.0000
  C   C428      1.0  0.17111  0.53900  0.16263  1.0000
  H   H511      1.0  0.30647  0.71471  0.22724  1.0000
  H   H512      1.0  0.16885  0.54622  0.08810  1.0000
  Fe  Fe62      1.0  0.04046  0.63908  0.06068  1.0000
  H   H513      1.0  0.24492  0.68009  0.21954  1.0000
  H   H514      1.0  0.12943  0.66076  0.25835  1.0000
  C   C429      1.0  0.02956  0.72854  0.12845  1.0000
  C   C430      1.0  0.03520  0.53807  0.04208  1.0000
  H   H515      1.0  0.26636  0.52165  0.21594  1.0000
  H   H516      1.0  0.50386  0.89175  0.12084  1.0000
  H   H517      1.0  0.03384  0.73322  0.14067  1.0000
  C   C431      1.0  0.10795  0.66000  0.25860  1.0000
  H   H518      1.0  0.09526  0.71077  0.25806  1.0000
  H   H519      1.0  0.01468  0.65254  0.25383  1.0000
  C   C432      1.0  0.39900  0.82790  0.25963  1.0000
  C   C433      1.0  0.02226  0.53036  0.01562  1.0000
  H   H520      1.0  0.20825  0.52340  0.09544  1.0000
  H   H521      1.0  0.26194  0.51534  0.14864  1.0000
  H   H522      1.0  0.33522  0.98888  0.07637  1.0000
  H   H523      1.0  0.42606  0.99750  0.17390  1.0000
  C   C434      1.0  0.02565  0.52158  0.03141  1.0000
  C   C435      1.0  0.17533  0.51499  0.15633  1.0000
  C   C436      1.0  0.01363  0.65533  0.01529  1.0000
  C   C437      1.0  0.05273  0.66154  0.26138  1.0000
  C   C438      1.0  0.35544  0.01054  0.01405  1.0000
  C   C439      1.0  0.23556  0.51692  0.23281  1.0000
  C   C440      1.0  0.05560  0.51247  0.09201  1.0000
  H   H524      1.0  0.09584  0.65414  0.35354  1.0000
  S   S119      1.0  0.47956  0.84301  0.40737  1.0000
  C   C441      1.0  0.06111  0.51677  0.43541  1.0000
  Fe  Fe63      1.0  0.37327  0.88104  0.34034  1.0000
  S   S120      1.0  0.33234  0.89632  0.34214  1.0000
  S   S121      1.0  0.40707  0.89406  0.35433  1.0000
  Fe  Fe64      1.0  0.36461  0.85935  0.30818  1.0000
  S   S122      1.0  0.32329  0.87293  0.30730  1.0000
  S   S123      1.0  0.38898  0.83750  0.29067  1.0000
  Fe  Fe65      1.0  0.33767  0.90983  0.31654  1.0000
  S   S124      1.0  0.32862  0.94965  0.30494  1.0000
  Fe  Fe66      1.0  0.32068  0.85813  0.33290  1.0000
  S   S125      1.0  0.28540  0.83684  0.34418  1.0000
  S   S126      1.0  0.37905  0.89716  0.31524  1.0000
  S   S127      1.0  0.36132  0.84202  0.33326  1.0000
  H   H525      1.0  0.16896  0.61317  0.45097  1.0000
  S   S128      1.0  0.20215  0.55384  0.40216  1.0000
  Fe  Fe67      1.0  0.16064  0.67357  0.34549  1.0000
  S   S129      1.0  0.15721  0.71724  0.34219  1.0000
  S   S130      1.0  0.14674  0.65142  0.36819  1.0000
  Fe  Fe68      1.0  0.17180  0.66755  0.31040  1.0000
  S   S131      1.0  0.16873  0.71004  0.30469  1.0000
  S   S132      1.0  0.17802  0.63773  0.29226  1.0000
  Fe  Fe69      1.0  0.19265  0.71453  0.32588  1.0000
  S   S133      1.0  0.22657  0.74118  0.31833  1.0000
  Fe  Fe70      1.0  0.13399  0.70926  0.32122  1.0000
  S   S134      1.0  0.09903  0.73003  0.31104  1.0000
  S   S135      1.0  0.19767  0.67127  0.33078  1.0000
  S   S136      1.0  0.13530  0.66627  0.32538  1.0000
  H   H526      1.0  0.06345  0.69239  0.29485  1.0000
  H   H527      1.0  0.17478  0.68876  0.27608  1.0000
  C   C442      1.0  0.06801  0.72720  0.32049  1.0000
  C   C443      1.0  0.06479  0.71941  0.33654  1.0000
  C   C444      1.0  0.03987  0.71859  0.34380  1.0000
  H   H528      1.0  0.42619  0.94120  0.33577  1.0000
  C   C445      1.0  0.04609  0.73350  0.31170  1.0000
  H   H529      1.0  0.08151  0.71475  0.34349  1.0000
  H   H530      1.0  0.03762  0.71342  0.35634  1.0000
  H   H531      1.0  0.04837  0.73989  0.29933  1.0000
  C   C446      1.0  0.18700  0.58123  0.39287  1.0000
  C   C447      1.0  0.16121  0.58724  0.39659  1.0000
  C   C448      1.0  0.14929  0.60889  0.38897  1.0000
  C   C449      1.0  0.16283  0.62446  0.37734  1.0000
  C   C450      1.0  0.18860  0.61836  0.37350  1.0000
  C   C451      1.0  0.20071  0.59692  0.38136  1.0000
  H   H532      1.0  0.15051  0.57543  0.40553  1.0000
  H   H533      1.0  0.12948  0.61368  0.39215  1.0000
  H   H534      1.0  0.19927  0.63032  0.36463  1.0000
  H   H535      1.0  0.22068  0.59240  0.37841  1.0000
  H   H536      1.0  0.12893  0.66314  0.28571  1.0000
  S   S137      1.0  0.08614  0.53671  0.44011  1.0000
  H   H537      1.0  0.39439  0.96323  0.32035  1.0000
  C   C452      1.0  0.15472  0.58353  0.32360  1.0000
  C   C453      1.0  0.27039  0.80910  0.33738  1.0000
  C   C454      1.0  0.27846  0.79836  0.32329  1.0000
  C   C455      1.0  0.26503  0.77735  0.31785  1.0000
  C   C456      1.0  0.24352  0.76664  0.32645  1.0000
  C   C457      1.0  0.23581  0.77696  0.34074  1.0000
  C   C458      1.0  0.24910  0.79814  0.34611  1.0000
  H   H538      1.0  0.29479  0.80651  0.31644  1.0000
  H   H539      1.0  0.27129  0.76949  0.30683  1.0000
  H   H540      1.0  0.21964  0.76875  0.34767  1.0000
  H   H541      1.0  0.24278  0.80620  0.35706  1.0000
  C   C459      1.0  0.25779  0.73852  0.26579  1.0000
  C   C460      1.0  0.32659  0.97762  0.33157  1.0000
  C   C461      1.0  0.33044  0.97813  0.31516  1.0000
  C   C462      1.0  0.18342  0.59798  0.45238  1.0000
  H   H542      1.0  0.41642  0.97223  0.37504  1.0000
  H   H543      1.0  0.32233  0.95953  0.33820  1.0000
  H   H544      1.0  0.16665  0.52621  0.47849  1.0000
  H   H545      1.0  0.16514  0.53566  0.37820  1.0000
  C   C463      1.0  0.04277  0.65302  0.37844  1.0000
  H   H546      1.0  0.07752  0.56507  0.40612  1.0000
  C   C464      1.0  0.45888  0.85723  0.39288  1.0000
  C   C465      1.0  0.43800  0.84320  0.38779  1.0000
  C   C466      1.0  0.42172  0.85405  0.37603  1.0000
  C   C467      1.0  0.42640  0.87896  0.36919  1.0000
  C   C468      1.0  0.44735  0.89280  0.37424  1.0000
  C   C469      1.0  0.46340  0.88208  0.38601  1.0000
  H   H547      1.0  0.43434  0.82392  0.39300  1.0000
  H   H548      1.0  0.40559  0.84319  0.37232  1.0000
  H   H549      1.0  0.45134  0.91194  0.36900  1.0000
  H   H550      1.0  0.47943  0.89303  0.38966  1.0000
  C   C470      1.0  0.42862  0.82849  0.33004  1.0000
  H   H551      1.0  0.24682  0.53693  0.48192  1.0000
  H   H552      1.0  0.44209  0.82184  0.30070  1.0000
  C   C471      1.0  0.16345  0.54025  0.34518  1.0000
  C   C472      1.0  0.10361  0.70179  0.26904  1.0000
  C   C473      1.0  0.01268  0.67141  0.27558  1.0000
  C   C474      1.0  0.02222  0.55763  0.38580  1.0000
  H   H553      1.0  0.16199  0.54579  0.50448  1.0000
  C   C475      1.0  0.16475  0.56604  0.34986  1.0000
  S   S138      1.0  0.50429  0.95398  0.43976  1.0000
  C   C476      1.0  0.44279  0.86695  0.31521  1.0000
  C   C477      1.0  0.06754  0.67265  0.27295  1.0000
  C   C478      1.0  0.07563  0.65362  0.35736  1.0000
  C   C479      1.0  0.06881  0.65299  0.37341  1.0000
  H   H554      1.0  0.45805  0.77380  0.45901  1.0000
  H   H555      1.0  0.22781  0.56641  0.43050  1.0000
  C   C480      1.0  0.47351  0.84385  0.33183  1.0000
  H   H556      1.0  0.47375  0.83460  0.30009  1.0000
  C   C481      1.0  0.45884  0.82520  0.30820  1.0000
  H   H557      1.0  0.12499  0.70391  0.26795  1.0000
  H   H558      1.0  0.41258  0.82606  0.32189  1.0000
  H   H559      1.0  0.05850  0.59816  0.36025  1.0000
  H   H560      1.0  0.45809  0.87712  0.30779  1.0000
  H   H561      1.0  0.42593  0.86559  0.30754  1.0000
  H   H562      1.0  0.43692  0.87946  0.32495  1.0000
  H   H563      1.0  0.43350  0.80880  0.33515  1.0000
  C   C482      1.0  0.36590  0.86014  0.26414  1.0000
  H   H564      1.0  0.46745  0.82963  0.44200  1.0000
  N   N29       1.0  0.40336  0.97306  0.34396  1.0000
  C   C483      1.0  0.42771  0.95774  0.34344  1.0000
  H   H565      1.0  0.37740  0.94079  0.34332  1.0000
  H   H566      1.0  0.26114  0.75601  0.27173  1.0000
  N   N30       1.0  0.09610  0.67430  0.27172  1.0000
  C   C484      1.0  0.03609  0.52106  0.44145  1.0000
  H   H567      1.0  0.47256  0.78058  0.43967  1.0000
  H   H568      1.0  0.10088  0.64347  0.28973  1.0000
  C   C485      1.0  0.47241  0.79690  0.48629  1.0000
  H   H569      1.0  0.06190  0.65538  0.33375  1.0000
  H   H570      1.0  0.17496  0.59056  0.47726  1.0000
  C   C486      1.0  0.47255  0.83663  0.34833  1.0000
  H   H571      1.0  0.48412  0.98909  0.38899  1.0000
  H   H572      1.0  0.37840  0.99129  0.32674  1.0000
  H   H573      1.0  0.36459  0.96772  0.35348  1.0000
  C   C487      1.0  0.49317  0.79901  0.47486  1.0000
  C   C488      1.0  0.41325  0.99151  0.36974  1.0000
  C   C489      1.0  0.46940  0.82431  0.45488  1.0000
  H   H574      1.0  0.24355  0.71761  0.28709  1.0000
  H   H575      1.0  0.16918  0.57045  0.36169  1.0000
  H   H576      1.0  0.03228  0.53660  0.44915  1.0000
  H   H577      1.0  0.41222  0.99258  0.32112  1.0000
  C   C490      1.0  0.05328  0.58613  0.37082  1.0000
  H   H578      1.0  0.49094  0.98793  0.40987  1.0000
  N   N31       1.0  0.16705  0.79908  0.31450  1.0000
  C   C491      1.0  0.16534  0.78349  0.32980  1.0000
  C   C492      1.0  0.14398  0.81623  0.31334  1.0000
  C   C493      1.0  0.16600  0.78082  0.30176  1.0000
  C   C494      1.0  0.19076  0.81491  0.31361  1.0000
  C   C495      1.0  0.21046  0.81287  0.30158  1.0000
  C   C496      1.0  0.19467  0.83316  0.32505  1.0000
  C   C497      1.0  0.23251  0.82825  0.30112  1.0000
  C   C498      1.0  0.21695  0.84817  0.32457  1.0000
  C   C499      1.0  0.23578  0.84576  0.31261  1.0000
  H   H579      1.0  0.16471  0.79552  0.34016  1.0000
  H   H580      1.0  0.14763  0.77145  0.33085  1.0000
  H   H581      1.0  0.18231  0.77024  0.33104  1.0000
  H   H582      1.0  0.14182  0.82876  0.32345  1.0000
  H   H583      1.0  0.12582  0.80491  0.31331  1.0000
  H   H584      1.0  0.14507  0.82908  0.30228  1.0000
  H   H585      1.0  0.18253  0.76686  0.30225  1.0000
  H   H586      1.0  0.14810  0.76898  0.30289  1.0000
  H   H587      1.0  0.16616  0.79118  0.28984  1.0000
  H   H588      1.0  0.20974  0.79904  0.29265  1.0000
  H   H589      1.0  0.18078  0.83560  0.33467  1.0000
  H   H590      1.0  0.44957  0.81973  0.45955  1.0000
  H   H591      1.0  0.22014  0.86118  0.33379  1.0000
  H   H592      1.0  0.25347  0.85676  0.31263  1.0000
  C   C500      1.0  0.15250  0.55854  0.31874  1.0000
  H   H593      1.0  0.23531  0.67771  0.27374  1.0000
  N   N32       1.0  0.45128  0.84105  0.32162  1.0000
  H   H594      1.0  0.15199  0.60009  0.31529  1.0000
  C   C501      1.0  0.39692  0.98046  0.32733  1.0000
  H   H595      1.0  0.14784  0.55577  0.30662  1.0000
  H   H596      1.0  0.08393  0.65293  0.38194  1.0000
  H   H597      1.0  0.16207  0.60679  0.34296  1.0000
  H   H598      1.0  0.08900  0.59285  0.38197  1.0000
  S   S139      1.0  0.16012  0.53261  0.44082  1.0000
  H   H599      1.0  0.24771  0.82585  0.29218  1.0000
  H   H600      1.0  0.50302  0.99770  0.48884  1.0000
  H   H601      1.0  0.26581  0.98896  0.33688  1.0000
  H   H602      1.0  0.50691  0.81240  0.43497  1.0000
  H   H603      1.0  0.42061  0.84032  0.33963  1.0000
  C   C502      1.0  0.06405  0.56759  0.39660  1.0000
  H   H604      1.0  0.26681  0.55249  0.43951  1.0000
  C   C503      1.0  0.02113  0.73158  0.31880  1.0000
  C   C504      1.0  0.03037  0.65416  0.35114  1.0000
  H   H605      1.0  0.19739  0.53505  0.36942  1.0000
  H   H606      1.0  0.49912  0.86073  0.31295  1.0000
  H   H607      1.0  0.10250  0.67539  0.29680  1.0000
  H   H608      1.0  0.19021  0.61072  0.26429  1.0000
  C   C505      1.0  0.22052  0.55739  0.45583  1.0000
  C   C506      1.0  0.05358  0.68317  0.28579  1.0000
  C   C507      1.0  0.16886  0.51431  0.48933  1.0000
  H   H609      1.0  0.35434  0.87137  0.27213  1.0000
  C   C508      1.0  0.51151  0.80838  0.44766  1.0000
  C   C509      1.0  0.02944  0.57361  0.37208  1.0000
  H   H610      1.0  0.33797  0.00246  0.29389  1.0000
  C   C510      1.0  0.24790  0.71689  0.27449  1.0000
  C   C511      1.0  0.02270  0.65372  0.36746  1.0000
  H   H611      1.0  0.45552  0.82859  0.35442  1.0000
  C   C512      1.0  0.47660  0.77864  0.45253  1.0000
  N   N33       1.0  0.16853  0.51732  0.35607  1.0000
  H   H612      1.0  0.27408  0.98128  0.30872  1.0000
  C   C513      1.0  0.24081  0.52312  0.47329  1.0000
  H   H613      1.0  0.03849  0.65308  0.39101  1.0000
  H   H614      1.0  0.43260  0.94891  0.35524  1.0000
  C   C514      1.0  0.38242  0.95631  0.35112  1.0000
  C   C515      1.0  0.15654  0.53716  0.32937  1.0000
  C   C516      1.0  0.16055  0.58727  0.33917  1.0000
  H   H615      1.0  0.01662  0.65543  0.34185  1.0000
  C   C517      1.0  0.01792  0.72446  0.33494  1.0000
  C   C518      1.0  0.18213  0.64875  0.27219  1.0000
  C   C519      1.0  0.21687  0.57121  0.44104  1.0000
  C   C520      1.0  0.05648  0.65412  0.34626  1.0000
  Fe  Fe71      1.0  0.17552  0.52601  0.41626  1.0000
  C   C521      1.0  0.47681  0.79487  0.50251  1.0000
  H   H616      1.0  0.38777  0.94628  0.36255  1.0000
  H   H617      1.0  0.46645  0.80594  0.31252  1.0000
  C   C522      1.0  0.49384  0.83990  0.35763  1.0000
  C   C523      1.0  0.26987  0.00072  0.31220  1.0000
  H   H618      1.0  0.05912  0.54075  0.50731  1.0000
  C   C524      1.0  0.16609  0.52532  0.50408  1.0000
  H   H619      1.0  0.45259  0.79720  0.48279  1.0000
  C   C525      1.0  0.18681  0.58519  0.46715  1.0000
  H   H620      1.0  0.27110  0.56136  0.45935  1.0000
  H   H621      1.0  0.44420  0.96989  0.33881  1.0000
  C   C526      1.0  0.19849  0.59105  0.43936  1.0000
  C   C527      1.0  0.26556  0.54523  0.45216  1.0000
  C   C528      1.0  0.40632  0.99546  0.35370  1.0000
  H   H622      1.0  0.20653  0.55607  0.48070  1.0000
  S   S140      1.0  0.13735  0.51581  0.40681  1.0000
  C   C529      1.0  0.24340  0.69441  0.26696  1.0000
  H   H623      1.0  0.50459  0.00188  0.45463  1.0000
  H   H624      1.0  0.19564  0.60074  0.42778  1.0000
  H   H625      1.0  0.01633  0.69076  0.29696  1.0000
  N   N34       1.0  0.23940  0.53572  0.45706  1.0000
  H   H626      1.0  0.23237  0.52271  0.43379  1.0000
  C   C530      1.0  0.38408  0.84228  0.27015  1.0000
  C   C531      1.0  0.07053  0.58316  0.38304  1.0000
  H   H627      1.0  0.03632  0.54290  0.40866  1.0000
  N   N35       1.0  0.48797  0.80256  0.45777  1.0000
  C   C532      1.0  0.33527  0.00190  0.30662  1.0000
  H   H628      1.0  0.09681  0.71349  0.27896  1.0000
  C   C533      1.0  0.02660  0.68245  0.28708  1.0000
  C   C534      1.0  0.04031  0.55499  0.39798  1.0000
  C   C535      1.0  0.48672  0.00099  0.39924  1.0000
  C   C536      1.0  0.10744  0.66358  0.28662  1.0000
  H   H629      1.0  0.46774  0.01039  0.40182  1.0000
  C   C537      1.0  0.20512  0.56524  0.46895  1.0000
  H   H630      1.0  0.42006  0.00871  0.39167  1.0000
  H   H631      1.0  0.01707  0.57669  0.36216  1.0000
  Fe  Fe72      1.0  0.12314  0.51872  0.43189  1.0000
  H   H632      1.0  0.48993  0.76182  0.45455  1.0000
  C   C538      1.0  0.17908  0.67491  0.26746  1.0000
  H   H633      1.0  0.47568  0.84186  0.46050  1.0000
  C   C539      1.0  0.32803  0.00062  0.33940  1.0000
  Fe  Fe73      1.0  0.51106  0.86716  0.41704  1.0000
  S   S141      1.0  0.50536  0.88060  0.44164  1.0000
  C   C540      1.0  0.50192  0.79429  0.50781  1.0000
  H   H634      1.0  0.28046  0.52966  0.45356  1.0000
  C   C541      1.0  0.17910  0.52400  0.37130  1.0000
  C   C542      1.0  0.23221  0.51555  0.44646  1.0000
  H   H635      1.0  0.48764  0.86192  0.50708  1.0000
  H   H636      1.0  0.41313  0.81408  0.26417  1.0000
  H   H637      1.0  0.32510  0.00006  0.35213  1.0000
  H   H638      1.0  0.12920  0.51585  0.36511  1.0000
  C   C543      1.0  0.26519  0.00509  0.32807  1.0000
  H   H639      1.0  0.49264  0.83438  0.37022  1.0000
  C   C544      1.0  0.49701  0.85458  0.32536  1.0000
  H   H640      1.0  0.15436  0.51816  0.32510  1.0000
  H   H641      1.0  0.22192  0.51461  0.47745  1.0000
  H   H642      1.0  0.08744  0.51589  0.48183  1.0000
  H   H643      1.0  0.50738  0.86081  0.47990  1.0000
  C   C545      1.0  0.50838  0.86016  0.50544  1.0000
  H   H644      1.0  0.46070  0.79419  0.51107  1.0000
  H   H645      1.0  0.01234  0.53986  0.50992  1.0000
  C   C546      1.0  0.02571  0.66096  0.26278  1.0000
  Fe  Fe74      1.0  0.35883  0.86380  0.69963  1.0000
  S   S142      1.0  0.31861  0.88036  0.70117  1.0000
  S   S143      1.0  0.38617  0.85227  0.71911  1.0000
  Fe  Fe75      1.0  0.36149  0.86673  0.66386  1.0000
  S   S144      1.0  0.32134  0.88322  0.66245  1.0000
  S   S145      1.0  0.38429  0.85683  0.64158  1.0000
  Fe  Fe76      1.0  0.33259  0.90860  0.68147  1.0000
  S   S146      1.0  0.31798  0.95015  0.67877  1.0000
  Fe  Fe77      1.0  0.30988  0.85376  0.68209  1.0000
  S   S147      1.0  0.26940  0.83697  0.68132  1.0000
  S   S148      1.0  0.37364  0.89426  0.68141  1.0000
  S   S149      1.0  0.34927  0.83503  0.68199  1.0000
  C   C547      1.0  0.04162  0.73747  0.70894  1.0000
  H   H646      1.0  0.34581  0.92752  0.64143  1.0000
  H   H647      1.0  0.35904  0.97851  0.73908  1.0000
  Fe  Fe78      1.0  0.15636  0.65970  0.70149  1.0000
  S   S150      1.0  0.15131  0.70281  0.69945  1.0000
  S   S151      1.0  0.15169  0.63601  0.72478  1.0000
  Fe  Fe79      1.0  0.16833  0.65623  0.66595  1.0000
  S   S152      1.0  0.16470  0.69927  0.66145  1.0000
  S   S153      1.0  0.18291  0.63352  0.64534  1.0000
  Fe  Fe80      1.0  0.18717  0.70280  0.68344  1.0000
  S   S154      1.0  0.22638  0.72147  0.68632  1.0000
  Fe  Fe81      1.0  0.12926  0.69519  0.67776  1.0000
  S   S155      1.0  0.09160  0.71436  0.67014  1.0000
  S   S156      1.0  0.19306  0.65972  0.68678  1.0000
  S   S157      1.0  0.13184  0.65195  0.68096  1.0000
  C   C548      1.0  0.23065  0.62250  0.73805  1.0000
  H   H648      1.0  0.06492  0.69178  0.75952  1.0000
  H   H649      1.0  0.44553  0.94654  0.60451  1.0000
  H   H650      1.0  0.07018  0.69516  0.64094  1.0000
  C   C549      1.0  0.17700  0.51496  0.65529  1.0000
  C   C550      1.0  0.16675  0.52269  0.68314  1.0000
  S   S158      1.0  0.12172  0.54686  0.61292  1.0000
  H   H651      1.0  0.43719  0.80244  0.69825  1.0000
  H   H652      1.0  0.27580  0.58334  0.75048  1.0000
  C   C551      1.0  0.07023  0.67416  0.75324  1.0000
  C   C552      1.0  0.39575  0.84705  0.75071  1.0000
  S   S159      1.0  0.48991  0.90583  0.61339  1.0000
  C   C553      1.0  0.49863  0.86096  0.65174  1.0000
  H   H653      1.0  0.18612  0.57838  0.66313  1.0000
  H   H654      1.0  0.02459  0.63967  0.63924  1.0000
  H   H655      1.0  0.31399  0.94445  0.75745  1.0000
  C   C554      1.0  0.16568  0.60930  0.63659  1.0000
  C   C555      1.0  0.14222  0.59989  0.64316  1.0000
  C   C556      1.0  0.12911  0.58062  0.63581  1.0000
  C   C557      1.0  0.13942  0.57043  0.62193  1.0000
  C   C558      1.0  0.16305  0.57957  0.61548  1.0000
  C   C559      1.0  0.17610  0.59894  0.62279  1.0000
  H   H656      1.0  0.13429  0.60733  0.65395  1.0000
  H   H657      1.0  0.11089  0.57349  0.64091  1.0000
  H   H658      1.0  0.17110  0.57197  0.60475  1.0000
  H   H659      1.0  0.19432  0.60604  0.61768  1.0000
  C   C560      1.0  0.03396  0.67187  0.69281  1.0000
  C   C561      1.0  0.05857  0.68068  0.68751  1.0000
  C   C562      1.0  0.06092  0.70226  0.67677  1.0000
  C   C563      1.0  0.03841  0.71451  0.67111  1.0000
  H   H660      1.0  0.30262  0.90581  0.73233  1.0000
  H   H661      1.0  0.07570  0.67108  0.69193  1.0000
  H   H662      1.0  0.04004  0.73121  0.66278  1.0000
  C   C564      1.0  0.16526  0.64808  0.74156  1.0000
  C   C565      1.0  0.17707  0.67225  0.74072  1.0000
  H   H663      1.0  0.35683  0.99434  0.64588  1.0000
  H   H664      1.0  0.45768  0.99250  0.60429  1.0000
  H   H665      1.0  0.10310  0.72195  0.71748  1.0000
  H   H666      1.0  0.17870  0.68359  0.72956  1.0000
  C   C566      1.0  0.06648  0.59650  0.61268  1.0000
  C   C567      1.0  0.03682  0.62843  0.63163  1.0000
  C   C568      1.0  0.02857  0.71830  0.71822  1.0000
  C   C569      1.0  0.25785  0.80469  0.68330  1.0000
  C   C570      1.0  0.23123  0.80045  0.68207  1.0000
  C   C571      1.0  0.22116  0.77520  0.68305  1.0000
  C   C572      1.0  0.23765  0.75385  0.68539  1.0000
  C   C573      1.0  0.26426  0.75809  0.68667  1.0000
  C   C574      1.0  0.27434  0.78333  0.68557  1.0000
  H   H667      1.0  0.21830  0.81685  0.68028  1.0000
  H   H668      1.0  0.20067  0.77231  0.68206  1.0000
  H   H669      1.0  0.27721  0.74173  0.68847  1.0000
  H   H670      1.0  0.29484  0.78626  0.68645  1.0000
  C   C575      1.0  0.33333  0.97916  0.68285  1.0000
  H   H671      1.0  0.10961  0.70891  0.74677  1.0000
  C   C576      1.0  0.35741  0.97921  0.68974  1.0000
  C   C577      1.0  0.47524  0.82848  0.63931  1.0000
  H   H672      1.0  0.36757  0.96122  0.69241  1.0000
  C   C578      1.0  0.41362  0.87080  0.63392  1.0000
  C   C579      1.0  0.42429  0.86294  0.61950  1.0000
  C   C580      1.0  0.44756  0.87352  0.61298  1.0000
  C   C581      1.0  0.46039  0.89210  0.62086  1.0000
  C   C582      1.0  0.44967  0.90004  0.63527  1.0000
  C   C583      1.0  0.42643  0.88944  0.64180  1.0000
  H   H673      1.0  0.41451  0.84856  0.61331  1.0000
  H   H674      1.0  0.45560  0.86725  0.60189  1.0000
  H   H675      1.0  0.45953  0.91439  0.64144  1.0000
  H   H676      1.0  0.41851  0.89569  0.65288  1.0000
  H   H677      1.0  0.47188  0.81798  0.62896  1.0000
  C   C584      1.0  0.35216  0.86010  0.74445  1.0000
  C   C585      1.0  0.37719  0.85325  0.73939  1.0000
  H   H678      1.0  0.11035  0.67727  0.63746  1.0000
  H   H679      1.0  0.33756  0.86436  0.73586  1.0000
  H   H680      1.0  0.41512  0.84167  0.74692  1.0000
  N   N36       1.0  0.07566  0.65433  0.63767  1.0000
  C   C586      1.0  0.10232  0.66063  0.63161  1.0000
  C   C587      1.0  0.06014  0.67864  0.63613  1.0000
  H   H681      1.0  0.03233  0.65553  0.70141  1.0000
  H   H682      1.0  0.36468  0.94040  0.72548  1.0000
  H   H683      1.0  0.01869  0.59069  0.67108  1.0000
  C   C588      1.0  0.36822  0.00268  0.69349  1.0000
  S   S160      1.0  0.50843  0.91063  0.56673  1.0000
  C   C589      1.0  0.38338  0.95355  0.65565  1.0000
  C   C590      1.0  0.42605  0.00258  0.62005  1.0000
  C   C591      1.0  0.30072  0.92693  0.72915  1.0000
  H   H684      1.0  0.29697  0.92879  0.71625  1.0000
  H   H685      1.0  0.37731  0.91662  0.63662  1.0000
  S   S161      1.0  0.50897  0.85702  0.53806  1.0000
  H   H686      1.0  0.38647  0.00253  0.69928  1.0000
  H   H687      1.0  0.07810  0.58370  0.60557  1.0000
  N   N37       1.0  0.32424  0.94117  0.73281  1.0000
  C   C592      1.0  0.06507  0.52930  0.53170  1.0000
  H   H688      1.0  0.33492  0.96883  0.64577  1.0000
  H   H689      1.0  0.09881  0.61852  0.61765  1.0000
  H   H690      1.0  0.15428  0.61485  0.75687  1.0000
  H   H691      1.0  0.11611  0.64441  0.63409  1.0000
  H   H692      1.0  0.46972  0.80239  0.68994  1.0000
  C   C593      1.0  0.17299  0.54869  0.68035  1.0000
  H   H693      1.0  0.34913  0.90980  0.72595  1.0000
  H   H694      1.0  0.20780  0.51751  0.62761  1.0000
  H   H695      1.0  0.08219  0.66146  0.76126  1.0000
  C   C594      1.0  0.04004  0.59243  0.61485  1.0000
  H   H696      1.0  0.47112  0.84788  0.69796  1.0000
  H   H697      1.0  0.09727  0.64189  0.73565  1.0000
  C   C595      1.0  0.18319  0.54162  0.65285  1.0000
  H   H698      1.0  0.03115  0.68489  0.73380  1.0000
  H   H699      1.0  0.09810  0.66178  0.71755  1.0000
  C   C596      1.0  0.01374  0.70570  0.67644  1.0000
  H   H700      1.0  0.34817  0.94208  0.75323  1.0000
  C   C597      1.0  0.48295  0.85707  0.66549  1.0000
  H   H701      1.0  0.08599  0.52957  0.53038  1.0000
  H   H702      1.0  0.41540  0.85765  0.67126  1.0000
  C   C598      1.0  0.25949  0.58519  0.75926  1.0000
  C   C599      1.0  0.02523  0.60841  0.62429  1.0000
  H   H703      1.0  0.44426  0.81037  0.65271  1.0000
  C   C600      1.0  0.44071  0.98569  0.61113  1.0000
  C   C601      1.0  0.07821  0.61674  0.61976  1.0000
  C   C602      1.0  0.26457  0.65182  0.74376  1.0000
  H   H704      1.0  0.43792  0.84676  0.70430  1.0000
  H   H705      1.0  0.03109  0.57672  0.60928  1.0000
  C   C603      1.0  0.43372  0.95984  0.61116  1.0000
  N   N38       1.0  0.08406  0.68113  0.73788  1.0000
  N   N39       1.0  0.37431  0.95793  0.63936  1.0000
  H   H706      1.0  0.12367  0.69085  0.73097  1.0000
  C   C604      1.0  0.35257  0.97699  0.63944  1.0000
  C   C605      1.0  0.16351  0.63352  0.75612  1.0000
  C   C606      1.0  0.39633  0.96754  0.62905  1.0000
  C   C607      1.0  0.41186  0.95081  0.61991  1.0000
  H   H707      1.0  0.08650  0.66057  0.66129  1.0000
  C   C608      1.0  0.40445  0.99363  0.62910  1.0000
  H   H708      1.0  0.05624  0.68413  0.62352  1.0000
  H   H709      1.0  0.28338  0.93395  0.73581  1.0000
  H   H710      1.0  0.41170  0.82414  0.66842  1.0000
  C   C609      1.0  0.06845  0.73846  0.70895  1.0000
  H   H711      1.0  0.44815  0.87152  0.68991  1.0000
  H   H712      1.0  0.04023  0.52776  0.60112  1.0000
  C   C610      1.0  0.30080  0.98137  0.72138  1.0000
  H   H713      1.0  0.35902  0.93468  0.62178  1.0000
  H   H714      1.0  0.03098  0.75098  0.70127  1.0000
  C   C611      1.0  0.22535  0.63795  0.72440  1.0000
  C   C612      1.0  0.34185  0.98611  0.73357  1.0000
  H   H715      1.0  0.40779  0.93050  0.61949  1.0000
  H   H716      1.0  0.10284  0.66577  0.61865  1.0000
  H   H717      1.0  0.19607  0.70056  0.75361  1.0000
  H   H718      1.0  0.08805  0.62744  0.65634  1.0000
  H   H719      1.0  0.34266  0.93401  0.71043  1.0000
  H   H720      1.0  0.32896  0.91414  0.75310  1.0000
  C   C613      1.0  0.06363  0.63355  0.62937  1.0000
  C   C614      1.0  0.08235  0.72050  0.71840  1.0000
  S   S162      1.0  0.16733  0.52537  0.53651  1.0000
  C   C615      1.0  0.25891  0.66726  0.73013  1.0000
  H   H721      1.0  0.36776  0.94558  0.66383  1.0000
  C   C616      1.0  0.08683  0.65769  0.72888  1.0000
  C   C617      1.0  0.32075  0.00286  0.67917  1.0000
  H   H722      1.0  0.26949  0.68493  0.72710  1.0000
  H   H723      1.0  0.44335  0.79251  0.67869  1.0000
  C   C618      1.0  0.45942  0.82442  0.65296  1.0000
  H   H724      1.0  0.05737  0.64276  0.66030  1.0000
  C   C619      1.0  0.07691  0.64586  0.65464  1.0000
  H   H725      1.0  0.17455  0.52430  0.62259  1.0000
  H   H726      1.0  0.06775  0.65017  0.72585  1.0000
  H   H727      1.0  0.39990  0.93964  0.65615  1.0000
  C   C620      1.0  0.32202  0.96950  0.72933  1.0000
  C   C621      1.0  0.18694  0.68184  0.75436  1.0000
  C   C622      1.0  0.23935  0.66036  0.72048  1.0000
  H   H728      1.0  0.28529  0.97042  0.71707  1.0000
  C   C623      1.0  0.04990  0.53554  0.51875  1.0000
  C   C624      1.0  0.02645  0.52158  0.54817  1.0000
  H   H729      1.0  0.11994  0.67587  0.75012  1.0000
  H   H730      1.0  0.40530  0.83566  0.68753  1.0000
  N   N40       1.0  0.25055  0.73622  0.63827  1.0000
  C   C625      1.0  0.26223  0.71576  0.64894  1.0000
  C   C626      1.0  0.22247  0.73743  0.64249  1.0000
  C   C627      1.0  0.25331  0.72846  0.62176  1.0000
  C   C628      1.0  0.26397  0.76102  0.63957  1.0000
  C   C629      1.0  0.25083  0.78412  0.64349  1.0000
  C   C630      1.0  0.29115  0.76257  0.63684  1.0000
  C   C631      1.0  0.26424  0.80708  0.64477  1.0000
  C   C632      1.0  0.30437  0.78561  0.63831  1.0000
  C   C633      1.0  0.29093  0.80778  0.64237  1.0000
  H   H731      1.0  0.26330  0.72227  0.66114  1.0000
  H   H732      1.0  0.25078  0.69763  0.64983  1.0000
  H   H733      1.0  0.28212  0.71035  0.64501  1.0000
  H   H734      1.0  0.21899  0.74297  0.65485  1.0000
  H   H735      1.0  0.21306  0.71836  0.64180  1.0000
  H   H736      1.0  0.21208  0.75140  0.63440  1.0000
  H   H737      1.0  0.27383  0.72532  0.61800  1.0000
  H   H738      1.0  0.24307  0.71004  0.62027  1.0000
  H   H739      1.0  0.24519  0.74359  0.61336  1.0000
  H   H740      1.0  0.23029  0.78493  0.64605  1.0000
  H   H741      1.0  0.30242  0.74589  0.63371  1.0000
  H   H742      1.0  0.25397  0.82431  0.64827  1.0000
  H   H743      1.0  0.32517  0.78631  0.63645  1.0000
  H   H744      1.0  0.30120  0.82550  0.64388  1.0000
  N   N41       1.0  0.44584  0.83373  0.68085  1.0000
  C   C634      1.0  0.45116  0.85077  0.69375  1.0000
  C   C635      1.0  0.41845  0.83792  0.67684  1.0000
  C   C636      1.0  0.44920  0.80659  0.68719  1.0000
  C   C637      1.0  0.46277  0.83859  0.66650  1.0000
  C   C638      1.0  0.29933  0.00820  0.71838  1.0000
  C   C639      1.0  0.06962  0.70101  0.72830  1.0000
  H   H745      1.0  0.05242  0.66295  0.75185  1.0000
  C   C640      1.0  0.49482  0.84667  0.63872  1.0000
  H   H746      1.0  0.51121  0.99911  0.51681  1.0000
  C   C641      1.0  0.34616  0.93093  0.72329  1.0000
  C   C642      1.0  0.11031  0.68975  0.74157  1.0000
  H   H747      1.0  0.24219  0.57639  0.75456  1.0000
  H   H748      1.0  0.21848  0.60593  0.74087  1.0000
  H   H749      1.0  0.01840  0.51549  0.55969  1.0000
  C   C643      1.0  0.04228  0.70008  0.72759  1.0000
  H   H750      1.0  0.04140  0.67737  0.64293  1.0000
  C   C644      1.0  0.25056  0.62883  0.74813  1.0000
  H   H751      1.0  0.07860  0.75270  0.70115  1.0000
  H   H752      1.0  0.34724  0.98335  0.62719  1.0000
  H   H753      1.0  0.27973  0.65854  0.75078  1.0000
  H   H754      1.0  0.48689  0.86902  0.67503  1.0000
  H   H755      1.0  0.20970  0.63288  0.71710  1.0000
  C   C645      1.0  0.32903  0.93531  0.74985  1.0000
  C   C646      1.0  0.36378  0.93321  0.63450  1.0000
  H   H756      1.0  0.38987  0.97181  0.66039  1.0000
  H   H757      1.0  0.23478  0.67266  0.71007  1.0000
  C   C647      1.0  0.18127  0.55809  0.66527  1.0000
  S   S163      1.0  0.11834  0.51798  0.57043  1.0000
  H   H758      1.0  0.39446  0.00733  0.63627  1.0000
  H   H759      1.0  0.18946  0.55033  0.64145  1.0000
  H   H760      1.0  0.17141  0.56163  0.68989  1.0000
  C   C648      1.0  0.05334  0.52209  0.54634  1.0000
  H   H761      1.0  0.30214  0.00302  0.67378  1.0000
  Fe  Fe82      1.0  0.13637  0.52045  0.59399  1.0000
  H   H762      1.0  0.16036  0.51539  0.69491  1.0000
  C   C649      1.0  0.02292  0.53506  0.52046  1.0000
  H   H763      1.0  0.50531  0.79364  0.52038  1.0000
  H   H764      1.0  0.06516  0.51654  0.55633  1.0000
  H   H765      1.0  0.50654  0.85036  0.62793  1.0000
  C   C650      1.0  0.34597  0.86116  0.76071  1.0000
  S   S164      1.0  0.17632  0.51186  0.58425  1.0000
  Fe  Fe83      1.0  0.38252  0.83830  0.81090  1.0000
  S   S165      1.0  0.40800  0.80474  0.80539  1.0000
  S   S166      1.0  0.35601  0.85630  0.79232  1.0000
  Fe  Fe84      1.0  0.39638  0.83456  0.84581  1.0000
  S   S167      1.0  0.42228  0.79965  0.84262  1.0000
  S   S168      1.0  0.39305  0.84831  0.87085  1.0000
  Fe  Fe85      1.0  0.43708  0.82202  0.82061  1.0000
  S   S169      1.0  0.47887  0.82840  0.81177  1.0000
  Fe  Fe86      1.0  0.39065  0.78537  0.82783  1.0000
  S   S170      1.0  0.37848  0.74370  0.82504  1.0000
  S   S171      1.0  0.41270  0.85758  0.82441  1.0000
  S   S172      1.0  0.36374  0.81831  0.83275  1.0000
  N   N42       1.0  0.02424  0.56661  0.99366  1.0000
  Fe  Fe87      1.0  0.46239  0.97556  0.92793  1.0000
  S   S173      1.0  0.42542  0.95571  0.93507  1.0000
  H   H766      1.0  0.04691  0.58313  0.97366  1.0000
  Fe  Fe88      1.0  0.40928  0.97754  0.91384  1.0000
  S   S174      1.0  0.38934  0.96393  0.89245  1.0000
  C   C651      1.0  0.02825  0.55623  0.01012  1.0000
  C   C652      1.0  0.01756  0.65683  0.98629  1.0000
  S   S175      1.0  0.44727  0.99461  0.90587  1.0000
  Fe  Fe89      1.0  0.24233  0.60655  0.81731  1.0000
  S   S176      1.0  0.19997  0.61362  0.81411  1.0000
  S   S177      1.0  0.26049  0.57119  0.80662  1.0000
  Fe  Fe90      1.0  0.24925  0.65789  0.83305  1.0000
  S   S178      1.0  0.20691  0.66782  0.83130  1.0000
  S   S179      1.0  0.27112  0.68883  0.84503  1.0000
  Fe  Fe91      1.0  0.19966  0.62626  0.83903  1.0000
  S   S180      1.0  0.16953  0.60881  0.85662  1.0000
  Fe  Fe92      1.0  0.21113  0.65437  0.80665  1.0000
  S   S181      1.0  0.19798  0.68008  0.78574  1.0000
  S   S182      1.0  0.24162  0.61677  0.84266  1.0000
  S   S183      1.0  0.25376  0.64686  0.80797  1.0000
  Fe  Fe93      1.0  0.02269  0.64710  0.94550  1.0000
  S   S184      1.0  0.06101  0.62666  0.94436  1.0000
  C   C653      1.0  0.48502  0.89587  0.86088  1.0000
  H   H767      1.0  0.44710  0.89601  0.90493  1.0000
  H   H768      1.0  0.03727  0.62364  0.87388  1.0000
  H   H769      1.0  0.44535  0.93060  0.88336  1.0000
  Fe  Fe94      1.0  0.06629  0.64531  0.91969  1.0000
  S   S185      1.0  0.10149  0.66540  0.90814  1.0000
  S   S186      1.0  0.02993  0.66902  0.92189  1.0000
  C   C654      1.0  0.19497  0.68719  0.90872  1.0000
  S   S187      1.0  0.49981  0.95374  0.92624  1.0000
  H   H770      1.0  0.46846  0.94668  0.89444  1.0000
  H   H771      1.0  0.05436  0.61305  0.85683  1.0000
  H   H772      1.0  0.16250  0.62029  0.91570  1.0000
  H   H773      1.0  0.47202  0.91195  0.91414  1.0000
  N   N43       1.0  0.32727  0.77481  0.78736  1.0000
  H   H774      1.0  0.19335  0.69156  0.87078  1.0000
  H   H775      1.0  0.25417  0.66351  0.90008  1.0000
  H   H776      1.0  0.22807  0.63438  0.77655  1.0000
  C   C655      1.0  0.49652  0.96673  0.96720  1.0000
  H   H777      1.0  0.48937  0.79833  0.84160  1.0000
  C   C656      1.0  0.25439  0.53972  0.81545  1.0000
  H   H778      1.0  0.07501  0.66884  0.87923  1.0000
  H   H779      1.0  0.24040  0.55250  0.83787  1.0000
  N   N44       1.0  0.25511  0.61260  0.76283  1.0000
  C   C657      1.0  0.15000  0.62532  0.87029  1.0000
  C   C658      1.0  0.15049  0.65220  0.87083  1.0000
  C   C659      1.0  0.13544  0.66438  0.88243  1.0000
  C   C660      1.0  0.11939  0.64980  0.89330  1.0000
  C   C661      1.0  0.11824  0.62304  0.89236  1.0000
  C   C662      1.0  0.13359  0.61086  0.88096  1.0000
  H   H780      1.0  0.16242  0.66349  0.86232  1.0000
  H   H781      1.0  0.13627  0.68512  0.88303  1.0000
  H   H782      1.0  0.10612  0.61159  0.90073  1.0000
  H   H783      1.0  0.13303  0.59006  0.88056  1.0000
  H   H784      1.0  0.19485  0.62675  0.89459  1.0000
  C   C663      1.0  0.16447  0.65883  0.92330  1.0000
  C   C664      1.0  0.41089  0.97740  0.00614  1.0000
  H   H785      1.0  0.05492  0.64603  0.97679  1.0000
  C   C665      1.0  0.41259  0.99396  0.99228  1.0000
  C   C666      1.0  0.04324  0.64854  0.98742  1.0000
  H   H786      1.0  0.46138  0.98028  0.97825  1.0000
  C   C667      1.0  0.24695  0.67954  0.89196  1.0000
  C   C668      1.0  0.34854  0.72878  0.83084  1.0000
  C   C669      1.0  0.34271  0.70486  0.82493  1.0000
  C   C670      1.0  0.31890  0.69266  0.82882  1.0000
  C   C671      1.0  0.30084  0.70397  0.83900  1.0000
  C   C672      1.0  0.30674  0.72778  0.84501  1.0000
  C   C673      1.0  0.33031  0.74028  0.84083  1.0000
  H   H787      1.0  0.35671  0.69572  0.81725  1.0000
  H   H788      1.0  0.31478  0.67424  0.82422  1.0000
  H   H789      1.0  0.29300  0.73668  0.85295  1.0000
  H   H790      1.0  0.33451  0.75860  0.84552  1.0000
  H   H791      1.0  0.40511  0.95756  0.00534  1.0000
  H   H792      1.0  0.49532  0.91358  0.85781  1.0000
  H   H793      1.0  0.24107  0.65539  0.86584  1.0000
  H   H794      1.0  0.40402  0.84325  0.77556  1.0000
  H   H795      1.0  0.22607  0.69843  0.86436  1.0000
  C   C674      1.0  0.04043  0.53848  0.91378  1.0000
  C   C675      1.0  0.34872  0.75561  0.78723  1.0000
  S   S188      1.0  0.45528  0.00996  0.94218  1.0000
  C   C676      1.0  0.25545  0.73331  0.78694  1.0000
  C   C677      1.0  0.39352  0.88077  0.87631  1.0000
  C   C678      1.0  0.39042  0.90184  0.86533  1.0000
  C   C679      1.0  0.38928  0.92722  0.87041  1.0000
  C   C680      1.0  0.39187  0.93182  0.88644  1.0000
  C   C681      1.0  0.39581  0.91081  0.89733  1.0000
  C   C682      1.0  0.39634  0.88543  0.89230  1.0000
  H   H796      1.0  0.38810  0.89851  0.85300  1.0000
  H   H797      1.0  0.38612  0.94329  0.86190  1.0000
  H   H798      1.0  0.39750  0.91405  0.90972  1.0000
  H   H799      1.0  0.39848  0.86925  0.90090  1.0000
  H   H800      1.0  0.23439  0.63351  0.88246  1.0000
  H   H801      1.0  0.16647  0.51875  0.85534  1.0000
  C   C683      1.0  0.12349  0.67051  0.82861  1.0000
  H   H802      1.0  0.34720  0.74111  0.79745  1.0000
  H   H803      1.0  0.14915  0.65580  0.93228  1.0000
  H   H804      1.0  0.16989  0.69846  0.92804  1.0000
  C   C684      1.0  0.38950  0.84791  0.76696  1.0000
  H   H805      1.0  0.34624  0.80072  0.80200  1.0000
  C   C685      1.0  0.24472  0.53598  0.83104  1.0000
  H   H806      1.0  0.21226  0.71346  0.88094  1.0000
  H   H807      1.0  0.50798  0.82887  0.87112  1.0000
  H   H808      1.0  0.05735  0.59188  0.99231  1.0000
  C   C686      1.0  0.26228  0.75077  0.77429  1.0000
  H   H809      1.0  0.47461  0.94273  0.87388  1.0000
  H   H810      1.0  0.51095  0.92428  0.90049  1.0000
  H   H811      1.0  0.48040  0.75677  0.81313  1.0000
  C   C687      1.0  0.08384  0.68443  0.84166  1.0000
  H   H812      1.0  0.10844  0.70928  0.82636  1.0000
  C   C688      1.0  0.29459  0.74344  0.79978  1.0000
  H   H813      1.0  0.47737  0.87941  0.90892  1.0000
  C   C689      1.0  0.26005  0.51797  0.80680  1.0000
  C   C690      1.0  0.48193  0.98342  0.97624  1.0000
  H   H814      1.0  0.32867  0.77596  0.81286  1.0000
  H   H815      1.0  0.46457  0.84392  0.84254  1.0000
  H   H816      1.0  0.34902  0.74481  0.77632  1.0000
  N   N45       1.0  0.47904  0.90782  0.88910  1.0000
  H   H817      1.0  0.26764  0.52064  0.79475  1.0000
  C   C691      1.0  0.34562  0.99360  0.00378  1.0000
  H   H818      1.0  0.03871  0.52364  0.89066  1.0000
  C   C692      1.0  0.47496  0.88996  0.87652  1.0000
  C   C693      1.0  0.46101  0.86655  0.87925  1.0000
  C   C694      1.0  0.22654  0.65065  0.87555  1.0000
  C   C695      1.0  0.50748  0.80508  0.83615  1.0000
  C   C696      1.0  0.36463  0.85516  0.77202  1.0000
  C   C697      1.0  0.19072  0.64293  0.90171  1.0000
  H   H819      1.0  0.07404  0.63771  0.00301  1.0000
  C   C698      1.0  0.33195  0.79385  0.77370  1.0000
  H   H820      1.0  0.14039  0.67477  0.82096  1.0000
  C   C699      1.0  0.11992  0.64565  0.83553  1.0000
  H   H821      1.0  0.44657  0.83256  0.86936  1.0000
  H   H822      1.0  0.31168  0.80259  0.80308  1.0000
  H   H823      1.0  0.27509  0.64050  0.77557  1.0000
  C   C700      1.0  0.21296  0.69502  0.87500  1.0000
  C   C701      1.0  0.17201  0.63883  0.91391  1.0000
  C   C702      1.0  0.03277  0.65957  0.85058  1.0000
  C   C703      1.0  0.04239  0.53221  0.93000  1.0000
  H   H824      1.0  0.03926  0.55844  0.90936  1.0000
  H   H825      1.0  0.30643  0.73991  0.80989  1.0000
  S   S189      1.0  0.04347  0.55634  0.94345  1.0000
  C   C704      1.0  0.23205  0.61409  0.77359  1.0000
  C   C705      1.0  0.17357  0.64304  0.76976  1.0000
  H   H826      1.0  0.48891  0.88415  0.83685  1.0000
  S   S190      1.0  0.04760  0.61344  0.90792  1.0000
  C   C706      1.0  0.28533  0.76462  0.77428  1.0000
  H   H827      1.0  0.51067  0.82621  0.90022  1.0000
  C   C707      1.0  0.04913  0.57576  0.98620  1.0000
  C   C708      1.0  0.17604  0.68292  0.92078  1.0000
  C   C709      1.0  0.05407  0.64390  0.00233  1.0000
  H   H828      1.0  0.26412  0.57287  0.77013  1.0000
  H   H829      1.0  0.17201  0.63176  0.78095  1.0000
  C   C710      1.0  0.05508  0.62695  0.86624  1.0000
  S   S191      1.0  0.40235  0.98260  0.97412  1.0000
  C   C711      1.0  0.50710  0.91202  0.89057  1.0000
  Fe  Fe95      1.0  0.41686  0.99157  0.94836  1.0000
  C   C712      1.0  0.32837  0.78903  0.80194  1.0000
  H   H830      1.0  0.01501  0.65506  0.85806  1.0000
  C   C713      1.0  0.05666  0.67106  0.87291  1.0000
  H   H831      1.0  0.32657  0.86634  0.76459  1.0000
  C   C714      1.0  0.04007  0.51879  0.90321  1.0000
  C   C715      1.0  0.09849  0.64002  0.84565  1.0000
  C   C716      1.0  0.20260  0.66745  0.89863  1.0000
  C   C717      1.0  0.46638  0.93303  0.88497  1.0000
  Fe  Fe96      1.0  0.03903  0.59672  0.93267  1.0000
  H   H832      1.0  0.01487  0.51654  0.00800  1.0000
  H   H833      1.0  0.20860  0.64500  0.86989  1.0000
  H   H834      1.0  0.21446  0.60675  0.76839  1.0000
  C   C718      1.0  0.45773  0.85009  0.86710  1.0000
  C   C719      1.0  0.46779  0.85649  0.85193  1.0000
  H   H835      1.0  0.23453  0.60237  0.78488  1.0000
  C   C720      1.0  0.50754  0.82022  0.82184  1.0000
  N   N46       1.0  0.05654  0.65411  0.85949  1.0000
  H   H836      1.0  0.09750  0.62049  0.85093  1.0000
  N   N47       1.0  0.22187  0.67286  0.88550  1.0000
  H   H837      1.0  0.24561  0.69724  0.89865  1.0000
  H   H838      1.0  0.36785  0.76494  0.78802  1.0000
  H   H839      1.0  0.26200  0.68331  0.88232  1.0000
  C   C721      1.0  0.46844  0.89821  0.90491  1.0000
  H   H840      1.0  0.20330  0.70623  0.90719  1.0000
  H   H841      1.0  0.05441  0.69184  0.86913  1.0000
  H   H842      1.0  0.48714  0.95085  0.96207  1.0000
  H   H843      1.0  0.45180  0.86068  0.89053  1.0000
  H   H844      1.0  0.07047  0.70011  0.84375  1.0000
  H   H845      1.0  0.24957  0.75355  0.76444  1.0000
  C   C722      1.0  0.10549  0.68989  0.83168  1.0000
  H   H846      1.0  0.34698  0.99824  0.99110  1.0000
  H   H847      1.0  0.37456  0.99714  0.86587  1.0000
  C   C723      1.0  0.07963  0.65930  0.84896  1.0000
  H   H848      1.0  0.07175  0.62189  0.87381  1.0000
  H   H849      1.0  0.28937  0.77784  0.76414  1.0000
  H   H850      1.0  0.13419  0.63068  0.83331  1.0000
  C   C724      1.0  0.50233  0.77186  0.79260  1.0000
  H   H851      1.0  0.32779  0.95699  0.00165  1.0000
  H   H852      1.0  0.39142  0.00550  0.84759  1.0000
  C   C725      1.0  0.18539  0.66723  0.76890  1.0000
  H   H853      1.0  0.31704  0.80952  0.77341  1.0000
  C   C726      1.0  0.48147  0.87928  0.84880  1.0000
  H   H854      1.0  0.03231  0.64778  0.84010  1.0000
  H   H855      1.0  0.26623  0.71618  0.80958  1.0000
  H   H856      1.0  0.06374  0.55985  0.98617  1.0000
  C   C727      1.0  0.30230  0.76125  0.78708  1.0000
  H   H857      1.0  0.23760  0.72257  0.78690  1.0000
  C   C728      1.0  0.27157  0.72971  0.79968  1.0000
  C   C729      1.0  0.27777  0.62069  0.77145  1.0000
  H   H858      1.0  0.48525  0.77778  0.78624  1.0000
  H   H859      1.0  0.03096  0.68023  0.84637  1.0000
  H   H860      1.0  0.04067  0.66643  0.88176  1.0000
  C   C730      1.0  0.49952  0.75999  0.80777  1.0000
  H   H861      1.0  0.49737  0.00878  0.91902  1.0000
  H   H862      1.0  0.28088  0.60784  0.78231  1.0000
  H   H863      1.0  0.02729  0.53087  0.98197  1.0000
  C   C731      1.0  0.49355  0.00467  0.98212  1.0000
  H   H864      1.0  0.35092  0.80353  0.77438  1.0000
  H   H865      1.0  0.29586  0.61993  0.76399  1.0000
  C   C732      1.0  0.33500  0.97025  0.00977  1.0000
  C   C733      1.0  0.01370  0.54743  0.98340  1.0000
  H   H866      1.0  0.33263  0.78453  0.76225  1.0000
  H   H867      1.0  0.01278  0.60462  0.00060  1.0000
  C   C734      1.0  0.88207  0.31884  0.25362  1.0000
  Fe  Fe97      1.0  0.65795  0.04179  0.06246  1.0000
  S   S192      1.0  0.64057  0.07342  0.07648  1.0000
  C   C735      1.0  0.90013  0.45146  0.15996  1.0000
  H   H868      1.0  0.59802  0.23897  0.24698  1.0000
  C   C736      1.0  0.66033  0.03565  0.01817  1.0000
  Fe  Fe98      1.0  0.67025  0.06394  0.09457  1.0000
  S   S193      1.0  0.68768  0.09980  0.10377  1.0000
  H   H869      1.0  0.76030  0.28667  0.20708  1.0000
  Fe  Fe99      1.0  0.68903  0.23320  0.17903  1.0000
  S   S194      1.0  0.69590  0.19754  0.19500  1.0000
  S   S195      1.0  0.72548  0.25442  0.16964  1.0000
  Fe  Fe100     1.0  0.63012  0.22397  0.18030  1.0000
  S   S196      1.0  0.63325  0.18836  0.19669  1.0000
  S   S197      1.0  0.59164  0.24016  0.17176  1.0000
  Fe  Fe101     1.0  0.66181  0.21100  0.20936  1.0000
  S   S198      1.0  0.66332  0.21771  0.23542  1.0000
  Fe  Fe102     1.0  0.66698  0.17827  0.18056  1.0000
  S   S199      1.0  0.67207  0.13680  0.17357  1.0000
  S   S200      1.0  0.65630  0.24773  0.19413  1.0000
  S   S201      1.0  0.66247  0.21275  0.16345  1.0000
  C   C737      1.0  0.92805  0.37534  0.23139  1.0000
  C   C738      1.0  0.57942  0.12869  0.14051  1.0000
  H   H870      1.0  0.61081  0.19928  0.23815  1.0000
  Fe  Fe103     1.0  0.86223  0.35944  0.20319  1.0000
  S   S202      1.0  0.82855  0.38442  0.20949  1.0000
  S   S203      1.0  0.87734  0.33031  0.22179  1.0000
  Fe  Fe104     1.0  0.86379  0.38043  0.16867  1.0000
  S   S204      1.0  0.82938  0.40659  0.17266  1.0000
  S   S205      1.0  0.87961  0.38446  0.14330  1.0000
  Fe  Fe105     1.0  0.84897  0.41601  0.19459  1.0000
  S   S206      1.0  0.85416  0.45539  0.20424  1.0000
  Fe  Fe106     1.0  0.81201  0.37247  0.18699  1.0000
  S   S207      1.0  0.76919  0.36257  0.18868  1.0000
  S   S208      1.0  0.88436  0.39175  0.18999  1.0000
  S   S209      1.0  0.84474  0.34555  0.18135  1.0000
  C   C739      1.0  0.87525  0.33775  0.24185  1.0000
  C   C740      1.0  0.73954  0.25626  0.21960  1.0000
  H   H871      1.0  0.59741  0.26047  0.21185  1.0000
  C   C741      1.0  0.86704  0.36212  0.24626  1.0000
  H   H872      1.0  0.88809  0.29981  0.25034  1.0000
  H   H873      1.0  0.56604  0.08934  0.12154  1.0000
  H   H874      1.0  0.86170  0.37686  0.23733  1.0000
  C   C742      1.0  0.83741  0.48890  0.17966  1.0000
  C   C743      1.0  0.84830  0.48611  0.19453  1.0000
  H   H875      1.0  0.83316  0.47194  0.17352  1.0000
  H   H876      1.0  0.53547  0.17130  0.19610  1.0000
  C   C744      1.0  0.96345  0.36972  0.12628  1.0000
  C   C745      1.0  0.94517  0.37987  0.11579  1.0000
  C   C746      1.0  0.91956  0.38416  0.12122  1.0000
  C   C747      1.0  0.91204  0.37860  0.13717  1.0000
  C   C748      1.0  0.93036  0.36866  0.14770  1.0000
  C   C749      1.0  0.95592  0.36408  0.14223  1.0000
  H   H877      1.0  0.95065  0.38391  0.10345  1.0000
  H   H878      1.0  0.90539  0.39155  0.11299  1.0000
  H   H879      1.0  0.92474  0.36415  0.15998  1.0000
  H   H880      1.0  0.96991  0.35603  0.15039  1.0000
  H   H881      1.0  0.93033  0.43427  0.10615  1.0000
  H   H882      1.0  0.72723  0.25351  0.20977  1.0000
  C   C750      1.0  0.73720  0.28438  0.17542  1.0000
  C   C751      1.0  0.72182  0.30133  0.18400  1.0000
  C   C752      1.0  0.73180  0.32525  0.18788  1.0000
  C   C753      1.0  0.75732  0.33233  0.18344  1.0000
  C   C754      1.0  0.77278  0.31520  0.17508  1.0000
  C   C755      1.0  0.76270  0.29149  0.17101  1.0000
  H   H883      1.0  0.70214  0.29620  0.18745  1.0000
  H   H884      1.0  0.71963  0.33831  0.19436  1.0000
  H   H885      1.0  0.79238  0.32039  0.17148  1.0000
  H   H886      1.0  0.77476  0.27862  0.16432  1.0000
  C   C756      1.0  0.66974  0.19223  0.24961  1.0000
  C   C757      1.0  0.66414  0.16660  0.24697  1.0000
  H   H887      1.0  0.95373  0.42433  0.14409  1.0000
  C   C758      1.0  0.59352  0.05055  0.03981  1.0000
  H   H888      1.0  0.88704  0.44861  0.17022  1.0000
  H   H889      1.0  0.65681  0.16196  0.23573  1.0000
  H   H890      1.0  0.77062  0.42146  0.17716  1.0000
  N   N48       1.0  0.59421  0.10540  0.13614  1.0000
  C   C759      1.0  0.56163  0.22525  0.17703  1.0000
  C   C760      1.0  0.56034  0.20110  0.18539  1.0000
  C   C761      1.0  0.53622  0.19003  0.18968  1.0000
  C   C762      1.0  0.55074  0.24675  0.22037  1.0000
  C   C763      1.0  0.53851  0.23801  0.17286  1.0000
  H   H891      1.0  0.57787  0.19083  0.18852  1.0000
  H   H892      1.0  0.53931  0.25667  0.16634  1.0000
  C   C764      1.0  0.68077  0.10972  0.12306  1.0000
  C   C765      1.0  0.67918  0.09183  0.13614  1.0000
  C   C766      1.0  0.67667  0.10046  0.15153  1.0000
  C   C767      1.0  0.67474  0.12697  0.15397  1.0000
  C   C768      1.0  0.67513  0.14482  0.14086  1.0000
  C   C769      1.0  0.67878  0.13626  0.12550  1.0000
  H   H893      1.0  0.68104  0.07138  0.13444  1.0000
  H   H894      1.0  0.67634  0.08650  0.16161  1.0000
  H   H895      1.0  0.67308  0.16518  0.14259  1.0000
  H   H896      1.0  0.68017  0.15022  0.11544  1.0000
  C   C770      1.0  0.93814  0.43828  0.14488  1.0000
  H   H897      1.0  0.61497  0.23381  0.22054  1.0000
  C   C771      1.0  0.61169  0.11206  0.12223  1.0000
  C   C772      1.0  0.53867  0.15225  0.14523  1.0000
  H   H898      1.0  0.82616  0.31637  0.24078  1.0000
  H   H899      1.0  0.61339  0.15137  0.14502  1.0000
  C   C773      1.0  0.75865  0.27515  0.21814  1.0000
  N   N49       1.0  0.95104  0.46186  0.11847  1.0000
  S   S210      1.0  0.99571  0.36346  0.11990  1.0000
  C   C774      1.0  0.93685  0.45470  0.10459  1.0000
  H   H900      1.0  0.59388  0.22901  0.20479  1.0000
  H   H901      1.0  0.98792  0.45000  0.10846  1.0000
  H   H902      1.0  0.52890  0.15572  0.22846  1.0000
  C   C775      1.0  0.93401  0.45822  0.13287  1.0000
  C   C776      1.0  0.77097  0.26354  0.24497  1.0000
  H   H903      1.0  0.56458  0.07704  0.14208  1.0000
  C   C777      1.0  0.91182  0.47425  0.13490  1.0000
  S   S211      1.0  0.99627  0.39803  0.07529  1.0000
  H   H904      1.0  0.96832  0.49592  0.12653  1.0000
  H   H905      1.0  0.53364  0.24447  0.22867  1.0000
  C   C778      1.0  0.54635  0.04572  0.04138  1.0000
  H   H906      1.0  0.97314  0.32297  0.01351  1.0000
  H   H907      1.0  0.61187  0.04980  0.04557  1.0000
  H   H908      1.0  0.80057  0.30489  0.25379  1.0000
  S   S212      1.0  0.66668  0.05074  0.03590  1.0000
  H   H909      1.0  0.57239  0.03913  0.06102  1.0000
  S   S213      1.0  0.64611  0.03463  0.10892  1.0000
  H   H910      1.0  0.54175  0.19077  0.15291  1.0000
  C   C779      1.0  0.59260  0.19051  0.23593  1.0000
  H   H911      1.0  0.98641  0.44976  0.12961  1.0000
  C   C780      1.0  0.54628  0.05325  0.02492  1.0000
  H   H912      1.0  0.62379  0.11026  0.15300  1.0000
  H   H913      1.0  0.51772  0.15289  0.14553  1.0000
  H   H914      1.0  0.77566  0.43597  0.21813  1.0000
  C   C781      1.0  0.59282  0.05792  0.02375  1.0000
  H   H915      1.0  0.73363  0.42226  0.19768  1.0000
  H   H916      1.0  0.51889  0.07799  0.05909  1.0000
  C   C782      1.0  0.55216  0.17366  0.14943  1.0000
  H   H917      1.0  0.91940  0.46697  0.10262  1.0000
  S   S214      1.0  0.68995  0.03451  0.07958  1.0000
  C   C783      1.0  0.92144  0.43513  0.15820  1.0000
  C   C784      1.0  0.60990  0.09569  0.14960  1.0000
  H   H918      1.0  0.79463  0.34195  0.22600  1.0000
  H   H919      1.0  0.78228  0.26536  0.25526  1.0000
  C   C785      1.0  0.51971  0.05751  0.06390  1.0000
  H   H920      1.0  0.75795  0.45153  0.16950  1.0000
  H   H921      1.0  0.58953  0.06666  0.12876  1.0000
  H   H922      1.0  0.76792  0.32861  0.23796  1.0000
  H   H923      1.0  0.80153  0.43671  0.20319  1.0000
  C   C786      1.0  0.59254  0.15092  0.14486  1.0000
  C   C787      1.0  0.97339  0.36405  0.01512  1.0000
  H   H924      1.0  0.97574  0.36273  0.02782  1.0000
  H   H925      1.0  0.90545  0.40885  0.22414  1.0000
  Fe  Fe107     1.0  0.61769  0.04249  0.08991  1.0000
  H   H926      1.0  0.58942  0.18972  0.15266  1.0000
  C   C788      1.0  0.54669  0.16547  0.23067  1.0000
  N   N50       1.0  0.74083  0.18934  0.14335  1.0000
  C   C789      1.0  0.76583  0.20289  0.14355  1.0000
  C   C790      1.0  0.72144  0.20744  0.13618  1.0000
  C   C791      1.0  0.73218  0.18295  0.16004  1.0000
  C   C792      1.0  0.74386  0.16635  0.13394  1.0000
  C   C793      1.0  0.75053  0.16934  0.11752  1.0000
  C   C794      1.0  0.74012  0.14065  0.14056  1.0000
  C   C795      1.0  0.75239  0.14806  0.10822  1.0000
  C   C796      1.0  0.74230  0.11951  0.13116  1.0000
  C   C797      1.0  0.74810  0.12323  0.11501  1.0000
  H   H927      1.0  0.77282  0.21006  0.13152  1.0000
  H   H928      1.0  0.76422  0.22013  0.15077  1.0000
  H   H929      1.0  0.78104  0.18986  0.14866  1.0000
  H   H930      1.0  0.72794  0.21604  0.12438  1.0000
  H   H931      1.0  0.71728  0.22407  0.14358  1.0000
  H   H932      1.0  0.70287  0.19753  0.13475  1.0000
  H   H933      1.0  0.74635  0.17029  0.16647  1.0000
  H   H934      1.0  0.73006  0.20059  0.16676  1.0000
  H   H935      1.0  0.71305  0.17332  0.16082  1.0000
  H   H936      1.0  0.75393  0.18823  0.11170  1.0000
  H   H937      1.0  0.73462  0.13629  0.15286  1.0000
  H   H938      1.0  0.75668  0.15082  0.09561  1.0000
  H   H939      1.0  0.73839  0.10017  0.13630  1.0000
  H   H940      1.0  0.74862  0.10683  0.10769  1.0000
  C   C798      1.0  0.75172  0.24470  0.24632  1.0000
  H   H941      1.0  0.72401  0.45378  0.19006  1.0000
  C   C799      1.0  0.77136  0.44277  0.17829  1.0000
  C   C800      1.0  0.54829  0.19229  0.22779  1.0000
  N   N51       1.0  0.57411  0.23397  0.22707  1.0000
  H   H942      1.0  0.55349  0.26790  0.21780  1.0000
  C   C801      1.0  0.59079  0.16372  0.23877  1.0000
  H   H943      1.0  0.97312  0.49213  0.10573  1.0000
  H   H944      1.0  0.82036  0.27788  0.21481  1.0000
  C   C802      1.0  0.59601  0.23954  0.21563  1.0000
  C   C803      1.0  0.97508  0.44594  0.11915  1.0000
  C   C804      1.0  0.51310  0.20295  0.18579  1.0000
  H   H945      1.0  0.79119  0.44928  0.17460  1.0000
  H   H946      1.0  0.54603  0.23884  0.20893  1.0000
  C   C805      1.0  0.94107  0.36229  0.24373  1.0000
  H   H947      1.0  0.92639  0.36653  0.22021  1.0000
  H   H948      1.0  0.58081  0.26731  0.24021  1.0000
  C   C806      1.0  0.95900  0.48931  0.11592  1.0000
  C   C807      1.0  0.91609  0.39909  0.23360  1.0000
  H   H949      1.0  0.90675  0.48902  0.12594  1.0000
  H   H950      1.0  0.73131  0.44855  0.21055  1.0000
  C   C808      1.0  0.57149  0.20564  0.23019  1.0000
  H   H951      1.0  0.77754  0.41207  0.20396  1.0000
  C   C809      1.0  0.78453  0.48750  0.20755  1.0000
  C   C810      1.0  0.78080  0.32562  0.22742  1.0000
  C   C811      1.0  0.73602  0.24111  0.23368  1.0000
  C   C812      1.0  0.75627  0.49622  0.18567  1.0000
  H   H952      1.0  0.82704  0.31184  0.21362  1.0000
  H   H953      1.0  0.87823  0.48309  0.14958  1.0000
  N   N52       1.0  0.76465  0.44970  0.19467  1.0000
  C   C813      1.0  0.73719  0.44334  0.19839  1.0000
  C   C814      1.0  0.57904  0.17301  0.14925  1.0000
  C   C815      1.0  0.76862  0.47772  0.19604  1.0000
  C   C816      1.0  0.81151  0.30081  0.24266  1.0000
  C   C817      1.0  0.55687  0.02565  0.09887  1.0000
  C   C818      1.0  0.55196  0.13006  0.14077  1.0000
  H   H954      1.0  0.56384  0.24133  0.25116  1.0000
  C   C819      1.0  0.56791  0.15120  0.23609  1.0000
  H   H955      1.0  0.94936  0.34359  0.24152  1.0000
  C   C820      1.0  0.57939  0.24590  0.24201  1.0000
  H   H956      1.0  0.62159  0.07832  0.14671  1.0000
  C   C821      1.0  0.78056  0.43300  0.20549  1.0000
  N   N53       1.0  0.79438  0.30031  0.22902  1.0000
  H   H957      1.0  0.60061  0.11965  0.11189  1.0000
  H   H958      1.0  0.56663  0.13040  0.23816  1.0000
  C   C822      1.0  0.57773  0.08378  0.13202  1.0000
  H   H959      1.0  0.62304  0.09494  0.11849  1.0000
  C   C823      1.0  0.77501  0.27941  0.23075  1.0000
  C   C824      1.0  0.81120  0.29742  0.21464  1.0000
  H   H960      1.0  0.72095  0.22666  0.23484  1.0000
  H   H961      1.0  0.62600  0.12690  0.12463  1.0000
  H   H962      1.0  0.54023  0.11425  0.13764  1.0000
  H   H963      1.0  0.59745  0.09049  0.16029  1.0000
  S   S215      1.0  0.57696  0.05255  0.09690  1.0000
  H   H964      1.0  0.76856  0.32730  0.21691  1.0000
  H   H965      1.0  0.80060  0.30055  0.20353  1.0000
  H   H966      1.0  0.97105  0.42490  0.11944  1.0000
  H   H967      1.0  0.53115  0.20196  0.22338  1.0000
  H   H968      1.0  0.79517  0.47510  0.21580  1.0000
  H   H969      1.0  0.94918  0.45656  0.09350  1.0000
  C   C825      1.0  0.53066  0.02925  0.10263  1.0000
  H   H970      1.0  0.94264  0.50258  0.11306  1.0000
  H   H971      1.0  0.86239  0.50640  0.21380  1.0000
  S   S216      1.0  0.99752  0.47167  0.07575  1.0000
  C   C826      1.0  0.85395  0.50837  0.20229  1.0000
  H   H972      1.0  0.74371  0.49030  0.17674  1.0000
  C   C827      1.0  0.89528  0.47095  0.14831  1.0000
  C   C828      1.0  0.57073  0.04451  0.04853  1.0000
  N   N54       1.0  0.52247  0.03957  0.05099  1.0000
  H   H973      1.0  0.52344  0.04805  0.10565  1.0000
  H   H974      1.0  0.53601  0.05581  0.07205  1.0000
  H   H975      1.0  0.92461  0.41935  0.16698  1.0000
  H   H976      1.0  0.60735  0.15263  0.24297  1.0000
  H   H977      1.0  0.97474  0.40544  0.01317  1.0000
  C   C829      1.0  0.91685  0.40973  0.24822  1.0000
  C   C830      1.0  0.51432  0.22694  0.17722  1.0000
  H   H978      1.0  0.82246  0.28232  0.24451  1.0000
  H   H979      1.0  0.52872  0.05489  0.01848  1.0000
  H   H980      1.0  0.99372  0.37130  0.26135  1.0000
  C   C831      1.0  0.92978  0.39682  0.26067  1.0000
  C   C832      1.0  0.56928  0.05928  0.01632  1.0000
  C   C833      1.0  0.64794  0.01182  0.01822  1.0000
  H   H981      1.0  0.61062  0.06282  0.01713  1.0000
  H   H982      1.0  0.74878  0.23290  0.25729  1.0000
  C   C834      1.0  0.66732  0.14704  0.25909  1.0000
  H   H983      1.0  0.66241  0.12733  0.25712  1.0000
  C   C835      1.0  0.52415  0.01267  0.05805  1.0000
  H   H984      1.0  0.68986  0.05347  0.25860  1.0000
  C   C836      1.0  0.94264  0.37276  0.25872  1.0000
  H   H985      1.0  0.90676  0.42781  0.25004  1.0000
  H   H986      1.0  0.98464  0.33952  0.25636  1.0000
  H   H987      1.0  0.71072  0.01185  0.02962  1.0000
  H   H988      1.0  0.86352  0.43162  0.47244  1.0000
  S   S217      1.0  0.52543  0.14686  0.42531  1.0000
  Fe  Fe108     1.0  0.56681  0.13657  0.41905  1.0000
  C   C837      1.0  0.85252  0.43964  0.44222  1.0000
  S   S218      1.0  0.59482  0.16481  0.40636  1.0000
  H   H989      1.0  0.55283  0.20048  0.48488  1.0000
  C   C838      1.0  0.57943  0.01424  0.50148  1.0000
  S   S219      1.0  0.57444  0.11694  0.44287  1.0000
  S   S220      1.0  0.55643  0.10038  0.40801  1.0000
  Fe  Fe109     1.0  0.74998  0.15871  0.32497  1.0000
  S   S221      1.0  0.70616  0.16118  0.32730  1.0000
  S   S222      1.0  0.77447  0.19482  0.31878  1.0000
  Fe  Fe110     1.0  0.74984  0.09961  0.32423  1.0000
  S   S223      1.0  0.70692  0.09804  0.32620  1.0000
  S   S224      1.0  0.77489  0.06409  0.32046  1.0000
  Fe  Fe111     1.0  0.70668  0.13226  0.30869  1.0000
  S   S225      1.0  0.67905  0.12816  0.28897  1.0000
  Fe  Fe112     1.0  0.70958  0.12667  0.34478  1.0000
  S   S226      1.0  0.68491  0.11225  0.36624  1.0000
  S   S227      1.0  0.74963  0.13179  0.30516  1.0000
  S   S228      1.0  0.75324  0.12621  0.34397  1.0000
  Fe  Fe113     1.0  0.95570  0.48264  0.42666  1.0000
  S   S229      1.0  0.92574  0.45503  0.43667  1.0000
  S   S230      1.0  0.99542  0.46737  0.42076  1.0000
  H   H990      1.0  0.58540  0.03326  0.50441  1.0000
  Fe  Fe114     1.0  0.91233  0.48722  0.45183  1.0000
  Fe  Fe115     1.0  0.90077  0.47312  0.41793  1.0000
  S   S231      1.0  0.87588  0.45001  0.40264  1.0000
  H   H991      1.0  0.59669  0.02666  0.38672  1.0000
  Fe  Fe116     1.0  0.89755  0.28310  0.33322  1.0000
  S   S232      1.0  0.87711  0.32104  0.33675  1.0000
  S   S233      1.0  0.87921  0.24389  0.34069  1.0000
  Fe  Fe117     1.0  0.94852  0.30989  0.32114  1.0000
  S   S234      1.0  0.93070  0.34909  0.32355  1.0000
  S   S235      1.0  0.98910  0.31283  0.30957  1.0000
  Fe  Fe118     1.0  0.91414  0.33357  0.34702  1.0000
  S   S236      1.0  0.92449  0.35325  0.36923  1.0000
  Fe  Fe119     1.0  0.89575  0.33312  0.31289  1.0000
  S   S237      1.0  0.87654  0.35838  0.29365  1.0000
  S   S238      1.0  0.93368  0.29473  0.34514  1.0000
  S   S239      1.0  0.91438  0.29472  0.30886  1.0000
  H   H992      1.0  0.62065  0.19664  0.44714  1.0000
  H   H993      1.0  0.84491  0.45416  0.45037  1.0000
  C   C839      1.0  0.70558  0.05577  0.28147  1.0000
  C   C840      1.0  0.55543  0.02464  0.39077  1.0000
  C   C841      1.0  0.68319  0.17838  0.27617  1.0000
  C   C842      1.0  0.70133  0.01578  0.26855  1.0000
  C   C843      1.0  0.87454  0.34934  0.27396  1.0000
  H   H994      1.0  0.88673  0.30979  0.27861  1.0000
  C   C844      1.0  0.91121  0.38141  0.37728  1.0000
  C   C845      1.0  0.92481  0.39291  0.38897  1.0000
  C   C846      1.0  0.91459  0.41448  0.39638  1.0000
  C   C847      1.0  0.89033  0.42448  0.39242  1.0000
  C   C848      1.0  0.87679  0.41316  0.38063  1.0000
  C   C849      1.0  0.88728  0.39183  0.37297  1.0000
  H   H995      1.0  0.94310  0.38475  0.39260  1.0000
  H   H996      1.0  0.92509  0.42284  0.40553  1.0000
  H   H997      1.0  0.85800  0.42076  0.37750  1.0000
  H   H998      1.0  0.87655  0.38309  0.36405  1.0000
  H   H999      1.0  0.99549  0.34398  0.27560  1.0000
  C   C850      1.0  0.57567  0.17928  0.50159  1.0000
  H   H1000     1.0  0.51439  0.08296  0.51048  1.0000
  C   C851      1.0  0.58740  0.18488  0.47321  1.0000
  C   C852      1.0  0.80290  0.20872  0.32578  1.0000
  C   C853      1.0  0.81612  0.19779  0.33873  1.0000
  C   C854      1.0  0.83910  0.20910  0.34331  1.0000
  C   C855      1.0  0.84902  0.23167  0.33521  1.0000
  C   C856      1.0  0.83552  0.24288  0.32247  1.0000
  C   C857      1.0  0.81271  0.23140  0.31777  1.0000
  H   H1001     1.0  0.80869  0.18071  0.34527  1.0000
  H   H1002     1.0  0.84937  0.20025  0.35317  1.0000
  H   H1003     1.0  0.84286  0.26018  0.31609  1.0000
  H   H1004     1.0  0.80262  0.24017  0.30781  1.0000
  C   C858      1.0  0.76160  0.03366  0.32681  1.0000
  C   C859      1.0  0.73850  0.03209  0.33585  1.0000
  H   H1005     1.0  0.86134  0.38712  0.26547  1.0000
  H   H1006     1.0  0.72899  0.04954  0.33943  1.0000
  C   C860      1.0  0.59606  0.14102  0.33771  1.0000
  H   H1007     1.0  0.56499  0.23175  0.46541  1.0000
  H   H1008     1.0  0.69051  0.18308  0.28741  1.0000
  C   C861      1.0  0.62043  0.15068  0.39539  1.0000
  C   C862      1.0  0.62417  0.12391  0.39639  1.0000
  C   C863      1.0  0.64410  0.11272  0.38740  1.0000
  C   C864      1.0  0.66062  0.12806  0.37732  1.0000
  C   C865      1.0  0.65714  0.15494  0.37635  1.0000
  C   C866      1.0  0.63705  0.16621  0.38539  1.0000
  H   H1009     1.0  0.61183  0.11174  0.40420  1.0000
  H   H1010     1.0  0.64665  0.09200  0.38822  1.0000
  H   H1011     1.0  0.67000  0.16699  0.36879  1.0000
  H   H1012     1.0  0.63438  0.18698  0.38462  1.0000
  C   C867      1.0  0.90394  0.48799  0.49569  1.0000
  C   C868      1.0  0.55329  0.11708  0.49294  1.0000
  H   H1013     1.0  0.62344  0.16434  0.46709  1.0000
  H   H1014     1.0  0.56356  0.11016  0.48268  1.0000
  C   C869      1.0  0.90353  0.47277  0.51011  1.0000
  H   H1015     1.0  0.53017  0.13559  0.33563  1.0000
  S   S240      1.0  0.88465  0.50353  0.43363  1.0000
  C   C870      1.0  0.59774  0.16430  0.50425  1.0000
  H   H1016     1.0  0.90638  0.19817  0.32638  1.0000
  H   H1017     1.0  0.87702  0.21026  0.30492  1.0000
  H   H1018     1.0  0.68356  0.21786  0.26636  1.0000
  H   H1019     1.0  0.85589  0.36930  0.40444  1.0000
  H   H1020     1.0  0.60211  0.16839  0.44346  1.0000
  H   H1021     1.0  0.98452  0.50408  0.39035  1.0000
  N   N55       1.0  0.95699  0.35871  0.27150  1.0000
  H   H1022     1.0  0.61504  0.13845  0.36025  1.0000
  H   H1023     1.0  0.53322  0.13108  0.36474  1.0000
  H   H1024     1.0  0.82244  0.41630  0.46566  1.0000
  H   H1025     1.0  0.92889  0.40587  0.27178  1.0000
  C   C871      1.0  0.59695  0.13796  0.35443  1.0000
  H   H1026     1.0  0.00683  0.33420  0.37655  1.0000
  H   H1027     1.0  0.98944  0.39700  0.38575  1.0000
  Fe  Fe120     1.0  0.51540  0.10888  0.41574  1.0000
  C   C872      1.0  0.57047  0.18939  0.48633  1.0000
  H   H1028     1.0  0.00082  0.34490  0.34023  1.0000
  C   C873      1.0  0.56324  0.01815  0.43762  1.0000
  C   C874      1.0  0.63822  0.12347  0.33065  1.0000
  C   C875      1.0  0.86856  0.39600  0.43935  1.0000
  C   C876      1.0  0.94420  0.33382  0.27617  1.0000
  C   C877      1.0  0.89307  0.38389  0.44161  1.0000
  C   C878      1.0  0.63264  0.16943  0.33256  1.0000
  H   H1029     1.0  0.81731  0.40275  0.44726  1.0000
  C   C879      1.0  0.54894  0.13620  0.34083  1.0000
  C   C880      1.0  0.58074  0.22492  0.45740  1.0000
  H   H1030     1.0  0.87089  0.44721  0.43673  1.0000
  H   H1031     1.0  0.93890  0.37664  0.29142  1.0000
  H   H1032     1.0  0.94074  0.32216  0.26596  1.0000
  Fe  Fe121     1.0  0.53230  0.12383  0.44853  1.0000
  H   H1033     1.0  0.64464  0.05356  0.40691  1.0000
  Fe  Fe122     1.0  0.56083  0.08143  0.43223  1.0000
  C   C881      1.0  0.98386  0.35322  0.26590  1.0000
  C   C882      1.0  0.65090  0.03551  0.40213  1.0000
  H   H1034     1.0  0.92229  0.35808  0.43265  1.0000
  H   H1035     1.0  0.95577  0.32154  0.28459  1.0000
  C   C883      1.0  0.69811  0.04265  0.26861  1.0000
  H   H1036     1.0  0.57727  0.23425  0.44544  1.0000
  S   S241      1.0  0.93190  0.49842  0.40666  1.0000
  H   H1037     1.0  0.64473  0.12134  0.34302  1.0000
  N   N56       1.0  0.00195  0.36779  0.36057  1.0000
  H   H1038     1.0  0.61907  0.18623  0.33179  1.0000
  H   H1039     1.0  0.65606  0.12574  0.32295  1.0000
  N   N57       1.0  0.83310  0.13118  0.31202  1.0000
  C   C884      1.0  0.84474  0.10551  0.30914  1.0000
  C   C885      1.0  0.81454  0.12807  0.32570  1.0000
  C   C886      1.0  0.81825  0.13961  0.29790  1.0000
  C   C887      1.0  0.85339  0.14961  0.31554  1.0000
  C   C888      1.0  0.87053  0.14344  0.32795  1.0000
  C   C889      1.0  0.85630  0.17425  0.30725  1.0000
  C   C890      1.0  0.88962  0.16065  0.33164  1.0000
  C   C891      1.0  0.87562  0.19118  0.31097  1.0000
  C   C892      1.0  0.89219  0.18443  0.32314  1.0000
  H   H1040     1.0  0.82994  0.09159  0.30581  1.0000
  H   H1041     1.0  0.85988  0.10716  0.29947  1.0000
  H   H1042     1.0  0.85361  0.09619  0.31982  1.0000
  H   H1043     1.0  0.80469  0.14674  0.32794  1.0000
  H   H1044     1.0  0.82390  0.12111  0.33678  1.0000
  H   H1045     1.0  0.79935  0.11381  0.32365  1.0000
  H   H1046     1.0  0.80396  0.12483  0.29516  1.0000
  H   H1047     1.0  0.80688  0.15765  0.29981  1.0000
  H   H1048     1.0  0.83116  0.14294  0.28720  1.0000
  H   H1049     1.0  0.86892  0.12551  0.33515  1.0000
  H   H1050     1.0  0.84342  0.18134  0.29820  1.0000
  H   H1051     1.0  0.90211  0.15587  0.34140  1.0000
  C   C893      1.0  0.53026  0.13111  0.49107  1.0000
  H   H1052     1.0  0.57584  0.13279  0.37680  1.0000
  C   C894      1.0  0.61595  0.14882  0.31069  1.0000
  C   C895      1.0  0.85543  0.39012  0.42566  1.0000
  H   H1053     1.0  0.53655  0.03757  0.45294  1.0000
  C   C896      1.0  0.87273  0.41780  0.46435  1.0000
  C   C897      1.0  0.51727  0.13999  0.50460  1.0000
  C   C898      1.0  0.95847  0.37323  0.28597  1.0000
  H   H1054     1.0  0.63152  0.14712  0.49375  1.0000
  H   H1055     1.0  0.89177  0.42634  0.46061  1.0000
  H   H1056     1.0  0.59617  0.19844  0.43287  1.0000
  S   S242      1.0  0.58382  0.04448  0.43436  1.0000
  C   C899      1.0  0.55057  0.13363  0.35724  1.0000
  H   H1057     1.0  0.55186  0.19409  0.44019  1.0000
  N   N58       1.0  0.85672  0.41394  0.45053  1.0000
  C   C900      1.0  0.57456  0.13450  0.36401  1.0000
  C   C901      1.0  0.99119  0.34656  0.37134  1.0000
  H   H1058     1.0  0.83364  0.38395  0.46247  1.0000
  H   H1059     1.0  0.90481  0.38754  0.45145  1.0000
  H   H1060     1.0  0.59925  0.23244  0.46143  1.0000
  C   C902      1.0  0.57127  0.13986  0.33113  1.0000
  H   H1061     1.0  0.60315  0.16568  0.30770  1.0000
  H   H1062     1.0  0.51371  0.05371  0.37957  1.0000
  S   S243      1.0  0.90342  0.47237  0.47757  1.0000
  C   C903      1.0  0.71627  0.04209  0.29435  1.0000
  C   C904      1.0  0.55623  0.18724  0.45255  1.0000
  H   H1063     1.0  0.83881  0.43910  0.43249  1.0000
  H   H1064     1.0  0.83720  0.39927  0.42280  1.0000
  H   H1065     1.0  0.67467  0.05390  0.38338  1.0000
  H   H1066     1.0  0.57342  0.02613  0.47708  1.0000
  H   H1067     1.0  0.53994  0.19374  0.46027  1.0000
  H   H1068     1.0  0.60775  0.13108  0.30622  1.0000
  H   H1069     1.0  0.90354  0.45193  0.50993  1.0000
  C   C905      1.0  0.86592  0.37294  0.41506  1.0000
  C   C906      1.0  0.88982  0.36124  0.41768  1.0000
  C   C907      1.0  0.71941  0.01526  0.29447  1.0000
  C   C908      1.0  0.90341  0.36679  0.43088  1.0000
  H   H1070     1.0  0.96761  0.39147  0.36401  1.0000
  H   H1071     1.0  0.62920  0.10493  0.32807  1.0000
  C   C909      1.0  0.60965  0.16926  0.47630  1.0000
  H   H1072     1.0  0.55389  0.04540  0.39117  1.0000
  H   H1073     1.0  0.56856  0.14186  0.31855  1.0000
  H   H1074     1.0  0.96733  0.37306  0.34726  1.0000
  H   H1075     1.0  0.89814  0.34845  0.40918  1.0000
  H   H1076     1.0  0.55571  0.16580  0.45331  1.0000
  N   N59       1.0  0.58167  0.19634  0.45722  1.0000
  C   C910      1.0  0.83143  0.40378  0.45673  1.0000
  H   H1077     1.0  0.87601  0.39940  0.47154  1.0000
  N   N60       1.0  0.62013  0.14559  0.32796  1.0000
  H   H1078     1.0  0.63952  0.16742  0.34485  1.0000
  H   H1079     1.0  0.72231  0.05241  0.30428  1.0000
  C   C911      1.0  0.61462  0.15920  0.49163  1.0000
  H   H1080     1.0  0.64995  0.17444  0.32481  1.0000
  H   H1081     1.0  0.00355  0.28779  0.34012  1.0000
  S   S244      1.0  0.51688  0.13785  0.47218  1.0000
  H   H1082     1.0  0.63445  0.15239  0.30376  1.0000
  C   C912      1.0  0.60108  0.18962  0.44475  1.0000
  C   C913      1.0  0.67926  0.19805  0.26423  1.0000
  C   C914      1.0  0.67690  0.15286  0.27370  1.0000
  C   C915      1.0  0.54046  0.02025  0.44684  1.0000
  C   C916      1.0  0.98034  0.38414  0.35442  1.0000
  H   H1083     1.0  0.99673  0.50870  0.44215  1.0000
  S   S245      1.0  0.51903  0.08657  0.43937  1.0000
  H   H1084     1.0  0.92528  0.33715  0.28228  1.0000
  C   C917      1.0  0.88141  0.32450  0.26964  1.0000
  H   H1085     1.0  0.52096  0.05316  0.40780  1.0000
  H   H1086     1.0  0.96955  0.36222  0.29527  1.0000
  C   C918      1.0  0.66774  0.03562  0.38892  1.0000
  H   H1087     1.0  0.97839  0.33383  0.36505  1.0000
  H   H1088     1.0  0.96817  0.39212  0.28340  1.0000
  C   C919      1.0  0.56323  0.11219  0.50812  1.0000
  H   H1089     1.0  0.98762  0.40108  0.34690  1.0000
  H   H1090     1.0  0.70316  0.07662  0.28146  1.0000
  H   H1091     1.0  0.51389  0.02491  0.42031  1.0000
  H   H1092     1.0  0.97911  0.35389  0.38123  1.0000
  H   H1093     1.0  0.58121  0.10155  0.50937  1.0000
  H   H1094     1.0  0.56219  0.18252  0.51139  1.0000
  C   C920      1.0  0.00968  0.39757  0.38216  1.0000
  H   H1095     1.0  0.62907  0.01234  0.41960  1.0000
  H   H1096     1.0  0.68902  0.01349  0.37262  1.0000
  C   C921      1.0  0.58006  0.01410  0.38809  1.0000
  C   C922      1.0  0.64214  0.01214  0.40929  1.0000
  C   C923      1.0  0.67595  0.01232  0.38288  1.0000
  H   H1097     1.0  0.79188  0.01171  0.31557  1.0000
  C   C924      1.0  0.86685  0.36792  0.26223  1.0000
  Fe  Fe123     1.0  0.70733  0.11142  0.67046  1.0000
  S   S246      1.0  0.75083  0.11067  0.66817  1.0000
  S   S247      1.0  0.68544  0.10125  0.64897  1.0000
  Fe  Fe124     1.0  0.70803  0.11918  0.70617  1.0000
  S   S248      1.0  0.75120  0.11833  0.70642  1.0000
  S   S249      1.0  0.68130  0.12679  0.72720  1.0000
  Fe  Fe125     1.0  0.74980  0.14415  0.68398  1.0000
  S   S250      1.0  0.76532  0.18545  0.68025  1.0000
  Fe  Fe126     1.0  0.74826  0.08501  0.69064  1.0000
  S   S251      1.0  0.76985  0.04719  0.69579  1.0000
  S   S252      1.0  0.70626  0.14650  0.68454  1.0000
  S   S253      1.0  0.70506  0.08409  0.69216  1.0000
  Fe  Fe127     1.0  0.56694  0.13696  0.59833  1.0000
  C   C925      1.0  0.54860  0.02146  0.59277  1.0000
  S   S254      1.0  0.59422  0.15944  0.61254  1.0000
  Fe  Fe128     1.0  0.55061  0.11872  0.56630  1.0000
  S   S255      1.0  0.56402  0.11417  0.54044  1.0000
  H   H1098     1.0  0.61797  0.10869  0.61008  1.0000
  Fe  Fe129     1.0  0.54588  0.08342  0.59672  1.0000
  C   C926      1.0  0.51244  0.04148  0.51678  1.0000
  S   S256      1.0  0.54049  0.15413  0.57959  1.0000
  S   S257      1.0  0.57939  0.10359  0.58421  1.0000
  Fe  Fe130     1.0  0.89376  0.27400  0.68273  1.0000
  S   S258      1.0  0.87229  0.30389  0.69638  1.0000
  S   S259      1.0  0.87862  0.23375  0.67848  1.0000
  Fe  Fe131     1.0  0.94521  0.30436  0.68151  1.0000
  S   S260      1.0  0.92677  0.33561  0.69525  1.0000
  S   S261      1.0  0.98636  0.31632  0.67401  1.0000
  Fe  Fe132     1.0  0.90791  0.30417  0.71066  1.0000
  S   S262      1.0  0.91113  0.30123  0.73729  1.0000
  Fe  Fe133     1.0  0.89332  0.33297  0.67948  1.0000
  S   S263      1.0  0.87801  0.37259  0.67102  1.0000
  S   S264      1.0  0.92853  0.27276  0.69806  1.0000
  S   S265      1.0  0.91250  0.30322  0.66473  1.0000
  Fe  Fe134     1.0  0.90562  0.46924  0.59639  1.0000
  S   S266      1.0  0.90267  0.42582  0.60222  1.0000
  S   S267      1.0  0.93424  0.48234  0.57680  1.0000
  H   H1099     1.0  0.97503  0.33283  0.64071  1.0000
  H   H1100     1.0  0.76778  0.16185  0.73618  1.0000
  C   C927      1.0  0.88470  0.38709  0.65181  1.0000
  C   C928      1.0  0.88850  0.37227  0.63871  1.0000
  C   C929      1.0  0.89307  0.38450  0.62354  1.0000
  C   C930      1.0  0.89469  0.41157  0.62136  1.0000
  C   C931      1.0  0.89094  0.42639  0.63446  1.0000
  C   C932      1.0  0.88565  0.41419  0.64958  1.0000
  H   H1101     1.0  0.88733  0.35143  0.64023  1.0000
  H   H1102     1.0  0.89549  0.37290  0.61344  1.0000
  H   H1103     1.0  0.89188  0.44724  0.63293  1.0000
  H   H1104     1.0  0.88241  0.42580  0.65962  1.0000
  C   C933      1.0  0.00537  0.48163  0.58504  1.0000
  C   C934      1.0  0.88043  0.34422  0.74187  1.0000
  C   C935      1.0  0.89605  0.32467  0.74869  1.0000
  H   H1105     1.0  0.97583  0.34828  0.71167  1.0000
  H   H1106     1.0  0.85583  0.37713  0.74612  1.0000
  H   H1107     1.0  0.87764  0.34536  0.72925  1.0000
  C   C936      1.0  0.99487  0.34047  0.71553  1.0000
  H   H1108     1.0  0.65410  0.08694  0.62421  1.0000
  H   H1109     1.0  0.73959  0.16407  0.72439  1.0000
  H   H1110     1.0  0.60134  0.15606  0.51608  1.0000
  C   C937      1.0  0.56315  0.02825  0.57892  1.0000
  C   C938      1.0  0.71139  0.04227  0.72671  1.0000
  H   H1111     1.0  0.57231  0.04693  0.57738  1.0000
  C   C939      1.0  0.79706  0.19830  0.68006  1.0000
  C   C940      1.0  0.81914  0.18256  0.68063  1.0000
  C   C941      1.0  0.84386  0.19378  0.68027  1.0000
  C   C942      1.0  0.84686  0.22080  0.67964  1.0000
  C   C943      1.0  0.82472  0.23653  0.67944  1.0000
  C   C944      1.0  0.80001  0.22534  0.67947  1.0000
  H   H1112     1.0  0.81727  0.16176  0.68110  1.0000
  H   H1113     1.0  0.86085  0.18142  0.68038  1.0000
  H   H1114     1.0  0.82669  0.25733  0.67886  1.0000
  H   H1115     1.0  0.78310  0.23776  0.67903  1.0000
  C   C945      1.0  0.69239  0.13490  0.74566  1.0000
  C   C946      1.0  0.98891  0.44254  0.61908  1.0000
  H   H1116     1.0  0.60009  0.01559  0.61316  1.0000
  H   H1117     1.0  0.51698  0.14203  0.53008  1.0000
  H   H1118     1.0  0.81185  0.30107  0.75776  1.0000
  C   C947      1.0  0.71761  0.12923  0.75020  1.0000
  C   C948      1.0  0.66894  0.02955  0.73662  1.0000
  H   H1119     1.0  0.84358  0.24481  0.74335  1.0000
  H   H1120     1.0  0.55038  0.06700  0.52780  1.0000
  H   H1121     1.0  0.73088  0.11965  0.74229  1.0000
  H   H1122     1.0  0.00075  0.26360  0.68574  1.0000
  H   H1123     1.0  0.96953  0.36209  0.60851  1.0000
  H   H1124     1.0  0.95949  0.30270  0.71732  1.0000
  H   H1125     1.0  0.74194  0.04049  0.66703  1.0000
  C   C949      1.0  0.98737  0.34991  0.63723  1.0000
  C   C950      1.0  0.65851  0.11701  0.64020  1.0000
  C   C951      1.0  0.64933  0.14109  0.64460  1.0000
  C   C952      1.0  0.62930  0.15379  0.63623  1.0000
  C   C953      1.0  0.61782  0.14220  0.62373  1.0000
  C   C954      1.0  0.62643  0.11771  0.61976  1.0000
  C   C955      1.0  0.64688  0.10538  0.62781  1.0000
  H   H1126     1.0  0.65797  0.15010  0.65420  1.0000
  H   H1127     1.0  0.62279  0.17275  0.63935  1.0000
  C   C956      1.0  0.55032  0.12116  0.52166  1.0000
  H   H1128     1.0  0.94184  0.36066  0.64979  1.0000
  H   H1129     1.0  0.77013  0.17349  0.71574  1.0000
  N   N61       1.0  0.72038  0.18596  0.63683  1.0000
  C   C957      1.0  0.70724  0.19505  0.65134  1.0000
  C   C958      1.0  0.73392  0.16134  0.64141  1.0000
  C   C959      1.0  0.74030  0.20501  0.63112  1.0000
  C   C960      1.0  0.70126  0.18342  0.62449  1.0000
  C   C961      1.0  0.69697  0.15977  0.61743  1.0000
  C   C962      1.0  0.68586  0.20501  0.61936  1.0000
  C   C963      1.0  0.67803  0.15792  0.60626  1.0000
  C   C964      1.0  0.66675  0.20282  0.60833  1.0000
  C   C965      1.0  0.66274  0.17927  0.60187  1.0000
  H   H1130     1.0  0.69127  0.18186  0.65554  1.0000
  H   H1131     1.0  0.72079  0.19585  0.66118  1.0000
  H   H1132     1.0  0.69890  0.21479  0.64950  1.0000
  H   H1133     1.0  0.72002  0.14629  0.64619  1.0000
  H   H1134     1.0  0.74798  0.16382  0.65080  1.0000
  H   H1135     1.0  0.74517  0.15373  0.63125  1.0000
  H   H1136     1.0  0.73204  0.22466  0.62863  1.0000
  H   H1137     1.0  0.75533  0.20687  0.64007  1.0000
  H   H1138     1.0  0.75028  0.19910  0.62005  1.0000
  H   H1139     1.0  0.70727  0.14210  0.62072  1.0000
  H   H1140     1.0  0.68811  0.22364  0.62409  1.0000
  H   H1141     1.0  0.67441  0.13947  0.60148  1.0000
  H   H1142     1.0  0.65455  0.21927  0.60499  1.0000
  H   H1143     1.0  0.64727  0.17734  0.59377  1.0000
  C   C966      1.0  0.97424  0.32852  0.74067  1.0000
  H   H1144     1.0  0.79541  0.20908  0.71171  1.0000
  H   H1145     1.0  0.98998  0.29037  0.71072  1.0000
  H   H1146     1.0  0.00064  0.34407  0.62745  1.0000
  C   C967      1.0  0.52716  0.13498  0.51982  1.0000
  H   H1147     1.0  0.71564  0.18944  0.74213  1.0000
  H   H1148     1.0  0.98192  0.49060  0.55053  1.0000
  H   H1149     1.0  0.99887  0.35317  0.64773  1.0000
  H   H1150     1.0  0.97896  0.48982  0.52951  1.0000
  H   H1151     1.0  0.66571  0.03843  0.63759  1.0000
  C   C968      1.0  0.79764  0.21571  0.72338  1.0000
  H   H1152     1.0  0.72188  0.20746  0.71556  1.0000
  H   H1153     1.0  0.00939  0.31231  0.75915  1.0000
  C   C969      1.0  0.95356  0.37802  0.64594  1.0000
  C   C970      1.0  0.90283  0.48423  0.52479  1.0000
  S   S268      1.0  0.51813  0.09536  0.57802  1.0000
  H   H1154     1.0  0.72842  0.21822  0.74914  1.0000
  C   C971      1.0  0.86815  0.36221  0.75143  1.0000
  C   C972      1.0  0.95658  0.36659  0.61875  1.0000
  C   C973      1.0  0.73389  0.19878  0.74522  1.0000
  H   H1155     1.0  0.51367  0.08232  0.64017  1.0000
  H   H1156     1.0  0.83593  0.22953  0.71693  1.0000
  H   H1157     1.0  0.54815  0.05476  0.54795  1.0000
  C   C974      1.0  0.75790  0.17387  0.72680  1.0000
  C   C975      1.0  0.78271  0.22136  0.75035  1.0000
  C   C976      1.0  0.67522  0.14686  0.75618  1.0000
  H   H1158     1.0  0.95389  0.42179  0.62308  1.0000
  S   S269      1.0  0.53526  0.11545  0.61212  1.0000
  H   H1159     1.0  0.62443  0.04895  0.62477  1.0000
  C   C977      1.0  0.97473  0.42028  0.62349  1.0000
  N   N62       1.0  0.99188  0.31908  0.72801  1.0000
  H   H1160     1.0  0.94376  0.38274  0.61455  1.0000
  H   H1161     1.0  0.76892  0.21940  0.76021  1.0000
  H   H1162     1.0  0.96872  0.31270  0.74967  1.0000
  H   H1163     1.0  0.98577  0.47598  0.58352  1.0000
  C   C978      1.0  0.01057  0.50394  0.59273  1.0000
  C   C979      1.0  0.74880  0.02175  0.67158  1.0000
  C   C980      1.0  0.90200  0.51115  0.52525  1.0000
  H   H1164     1.0  0.96415  0.38339  0.65639  1.0000
  S   S270      1.0  0.54516  0.04289  0.60769  1.0000
  S   S271      1.0  0.87429  0.49691  0.58780  1.0000
  H   H1165     1.0  0.94390  0.34962  0.62175  1.0000
  H   H1166     1.0  0.90233  0.47221  0.53573  1.0000
  H   H1167     1.0  0.95558  0.33587  0.73588  1.0000
  H   H1168     1.0  0.93950  0.39379  0.64301  1.0000
  H   H1169     1.0  0.65075  0.03439  0.74249  1.0000
  H   H1170     1.0  0.97897  0.46037  0.61543  1.0000
  H   H1171     1.0  0.98285  0.34467  0.74659  1.0000
  H   H1172     1.0  0.73355  0.01467  0.71463  1.0000
  S   S272      1.0  0.92035  0.49583  0.61363  1.0000
  H   H1173     1.0  0.68476  0.06752  0.73837  1.0000
  C   C981      1.0  0.98714  0.39648  0.62808  1.0000
  C   C982      1.0  0.71547  0.01785  0.72099  1.0000
  C   C983      1.0  0.80625  0.23287  0.75319  1.0000
  C   C984      1.0  0.82531  0.23595  0.74116  1.0000
  H   H1174     1.0  0.72622  0.05688  0.72473  1.0000
  N   N63       1.0  0.75294  0.20050  0.73164  1.0000
  C   C985      1.0  0.74077  0.21573  0.71841  1.0000
  C   C986      1.0  0.68809  0.04823  0.73439  1.0000
  N   N64       1.0  0.97164  0.37308  0.63245  1.0000
  C   C987      1.0  0.77765  0.21254  0.73523  1.0000
  H   H1175     1.0  0.74141  0.18675  0.75544  1.0000
  C   C988      1.0  0.97912  0.29718  0.72123  1.0000
  C   C989      1.0  0.76322  0.01977  0.68524  1.0000
  C   C990      1.0  0.97338  0.50081  0.53996  1.0000
  C   C991      1.0  0.65500  0.02331  0.63252  1.0000
  H   H1176     1.0  0.65564  0.15121  0.75276  1.0000
  H   H1177     1.0  0.95197  0.49954  0.54169  1.0000
  C   C992      1.0  0.63179  0.02922  0.62528  1.0000
  H   H1178     1.0  0.73747  0.23616  0.72127  1.0000
  H   H1179     1.0  0.75282  0.21596  0.70725  1.0000
  H   H1180     1.0  0.97688  0.28040  0.73006  1.0000
  C   C993      1.0  0.82101  0.22734  0.72629  1.0000
  C   C994      1.0  0.54437  0.04997  0.53563  1.0000
  H   H1181     1.0  0.55737  0.03373  0.53259  1.0000
  H   H1182     1.0  0.86896  0.50212  0.73722  1.0000
  H   H1183     1.0  0.00476  0.33417  0.70455  1.0000
  H   H1184     1.0  0.57891  0.01519  0.55690  1.0000
  H   H1185     1.0  0.00604  0.35666  0.71974  1.0000
  Fe  Fe135     1.0  0.94609  0.51118  0.59359  1.0000
  N   N65       1.0  0.51695  0.04357  0.53380  1.0000
  H   H1186     1.0  0.51356  0.02188  0.55648  1.0000
  Fe  Fe136     1.0  0.69201  0.17734  0.81056  1.0000
  S   S273      1.0  0.67089  0.21334  0.80241  1.0000
  S   S274      1.0  0.71892  0.15544  0.79426  1.0000
  Fe  Fe137     1.0  0.67289  0.18106  0.84493  1.0000
  S   S275      1.0  0.65101  0.21822  0.83915  1.0000
  S   S276      1.0  0.66568  0.16318  0.86991  1.0000
  Fe  Fe138     1.0  0.63751  0.19839  0.81825  1.0000
  S   S277      1.0  0.59664  0.19297  0.80982  1.0000
  Fe  Fe139     1.0  0.68648  0.22996  0.82405  1.0000
  S   S278      1.0  0.70362  0.27054  0.82006  1.0000
  S   S279      1.0  0.65782  0.16080  0.82467  1.0000
  S   S280      1.0  0.70926  0.19435  0.83152  1.0000
  S   S281      1.0  0.64922  0.04311  0.93056  1.0000
  Fe  Fe140     1.0  0.62404  0.01953  0.91632  1.0000
  S   S282      1.0  0.70873  0.05587  0.89918  1.0000
  Fe  Fe141     1.0  0.83395  0.34703  0.83496  1.0000
  S   S283      1.0  0.87051  0.34264  0.82010  1.0000
  S   S284      1.0  0.81058  0.31144  0.84363  1.0000
  Fe  Fe142     1.0  0.84064  0.40568  0.83581  1.0000
  S   S285      1.0  0.87667  0.40573  0.82047  1.0000
  S   S286      1.0  0.82669  0.44104  0.84823  1.0000
  Fe  Fe143     1.0  0.85613  0.37792  0.80623  1.0000
  S   S287      1.0  0.85422  0.38241  0.77961  1.0000
  Fe  Fe144     1.0  0.88821  0.37062  0.83574  1.0000
  S   S288      1.0  0.93030  0.37045  0.84239  1.0000
  S   S289      1.0  0.81855  0.38096  0.82023  1.0000
  S   S290      1.0  0.85316  0.37191  0.85193  1.0000
  H   H1187     1.0  0.53123  0.04081  0.91177  1.0000
  H   H1188     1.0  0.76451  0.40117  0.83569  1.0000
  S   S291      1.0  0.97689  0.36081  0.91111  1.0000
  H   H1189     1.0  0.78828  0.36125  0.84725  1.0000
  H   H1190     1.0  0.72138  0.38699  0.83455  1.0000
  S   S292      1.0  0.58612  0.03573  0.90835  1.0000
  H   H1191     1.0  0.74085  0.41697  0.84823  1.0000
  H   H1192     1.0  0.69050  0.35516  0.82773  1.0000
  H   H1193     1.0  0.89050  0.34043  0.78714  1.0000
  C   C995      1.0  0.94254  0.36733  0.86166  1.0000
  C   C996      1.0  0.92688  0.36073  0.87510  1.0000
  C   C997      1.0  0.93759  0.35876  0.89020  1.0000
  C   C998      1.0  0.96390  0.36374  0.89200  1.0000
  C   C999      1.0  0.97941  0.37062  0.87857  1.0000
  C   C1000     1.0  0.96883  0.37218  0.86348  1.0000
  H   H1194     1.0  0.90664  0.35679  0.87385  1.0000
  H   H1195     1.0  0.92545  0.35329  0.90051  1.0000
  H   H1196     1.0  0.99969  0.37430  0.87973  1.0000
  H   H1197     1.0  0.98111  0.37726  0.85316  1.0000
  C   C1001     1.0  0.82476  0.30234  0.76784  1.0000
  H   H1198     1.0  0.76751  0.29495  0.76666  1.0000
  C   C1002     1.0  0.82907  0.47243  0.83861  1.0000
  C   C1003     1.0  0.83302  0.47595  0.82222  1.0000
  H   H1199     1.0  0.66980  0.16285  0.77898  1.0000
  C   C1004     1.0  0.82661  0.49428  0.84756  1.0000
  H   H1200     1.0  0.83486  0.45932  0.81518  1.0000
  H   H1201     1.0  0.68806  0.31233  0.84223  1.0000
  C   C1005     1.0  0.94732  0.43720  0.87734  1.0000
  H   H1202     1.0  0.77438  0.41895  0.85167  1.0000
  H   H1203     1.0  0.79888  0.38372  0.86090  1.0000
  H   H1204     1.0  0.78550  0.35353  0.86803  1.0000
  C   C1006     1.0  0.73406  0.28096  0.82617  1.0000
  C   C1007     1.0  0.74392  0.30483  0.81986  1.0000
  C   C1008     1.0  0.76732  0.31443  0.82499  1.0000
  C   C1009     1.0  0.78123  0.30016  0.83646  1.0000
  C   C1010     1.0  0.77149  0.27623  0.84267  1.0000
  C   C1011     1.0  0.74807  0.26665  0.83757  1.0000
  H   H1205     1.0  0.73314  0.31611  0.81112  1.0000
  H   H1206     1.0  0.77435  0.33301  0.82027  1.0000
  H   H1207     1.0  0.78206  0.26505  0.85157  1.0000
  H   H1208     1.0  0.74071  0.24836  0.84260  1.0000
  C   C1012     1.0  0.67956  0.13459  0.87854  1.0000
  C   C1013     1.0  0.70187  0.12328  0.87214  1.0000
  C   C1014     1.0  0.71112  0.09949  0.87885  1.0000
  C   C1015     1.0  0.69772  0.08654  0.89170  1.0000
  C   C1016     1.0  0.67571  0.09815  0.89827  1.0000
  C   C1017     1.0  0.66704  0.12234  0.89193  1.0000
  H   H1209     1.0  0.71229  0.13323  0.86231  1.0000
  H   H1210     1.0  0.72875  0.09110  0.87415  1.0000
  H   H1211     1.0  0.66563  0.08874  0.90842  1.0000
  H   H1212     1.0  0.65031  0.13144  0.89729  1.0000
  C   C1018     1.0  0.77059  0.28243  0.77713  1.0000
  C   C1019     1.0  0.53924  0.22215  0.83833  1.0000
  C   C1020     1.0  0.56392  0.21550  0.83209  1.0000
  C   C1021     1.0  0.56623  0.20096  0.81877  1.0000
  C   C1022     1.0  0.54362  0.19251  0.81211  1.0000
  C   C1023     1.0  0.66949  0.02583  0.83858  1.0000
  C   C1024     1.0  0.96858  0.46789  0.89259  1.0000
  H   H1213     1.0  0.58112  0.22215  0.83734  1.0000
  H   H1214     1.0  0.54518  0.18126  0.80182  1.0000
  H   H1215     1.0  0.74848  0.33241  0.87174  1.0000
  H   H1216     1.0  0.71725  0.30124  0.86401  1.0000
  N   N66       1.0  0.96799  0.36864  0.96426  1.0000
  C   C1025     1.0  0.96570  0.39536  0.95690  1.0000
  C   C1026     1.0  0.99171  0.35685  0.95744  1.0000
  C   C1027     1.0  0.94533  0.35405  0.95959  1.0000
  C   C1028     1.0  0.96938  0.36751  0.98172  1.0000
  H   H1217     1.0  0.55865  0.03647  0.96020  1.0000
  C   C1029     1.0  0.97103  0.39000  0.99037  1.0000
  C   C1030     1.0  0.53630  0.02050  0.91328  1.0000
  C   C1031     1.0  0.79469  0.26796  0.80005  1.0000
  C   C1032     1.0  0.97282  0.38813  0.00683  1.0000
  H   H1218     1.0  0.55770  0.09708  0.82648  1.0000
  H   H1219     1.0  0.96398  0.39543  0.94382  1.0000
  C   C1033     1.0  0.68319  0.15345  0.77105  1.0000
  N   N67       1.0  0.81026  0.30729  0.78278  1.0000
  H   H1220     1.0  0.99144  0.35742  0.94429  1.0000
  S   S293      1.0  0.01147  0.41620  0.92657  1.0000
  H   H1221     1.0  0.54532  0.11531  0.86527  1.0000
  H   H1222     1.0  0.94334  0.35552  0.94649  1.0000
  H   H1223     1.0  0.82353  0.49178  0.86026  1.0000
  H   H1224     1.0  0.88332  0.46729  0.84332  1.0000
  H   H1225     1.0  0.97173  0.40925  0.98470  1.0000
  H   H1226     1.0  0.90854  0.48900  0.84669  1.0000
  H   H1227     1.0  0.83866  0.31809  0.76435  1.0000
  H   H1228     1.0  0.73571  0.26137  0.77388  1.0000
  C   C1034     1.0  0.79190  0.28596  0.78679  1.0000
  N   N68       1.0  0.70086  0.08895  0.82197  1.0000
  C   C1035     1.0  0.68051  0.09626  0.81053  1.0000
  C   C1036     1.0  0.70455  0.11156  0.83152  1.0000
  C   C1037     1.0  0.72520  0.08410  0.81288  1.0000
  C   C1038     1.0  0.69436  0.06557  0.83232  1.0000
  C   C1039     1.0  0.67536  0.04764  0.82849  1.0000
  C   C1040     1.0  0.70790  0.05945  0.84635  1.0000
  H   H1229     1.0  0.66491  0.04998  0.81771  1.0000
  H   H1230     1.0  0.67811  0.06638  0.00334  1.0000
  C   C1041     1.0  0.92844  0.44188  0.84408  1.0000
  H   H1231     1.0  0.67913  0.08214  0.80130  1.0000
  H   H1232     1.0  0.66133  0.09858  0.81666  1.0000
  H   H1233     1.0  0.68471  0.11501  0.80379  1.0000
  H   H1234     1.0  0.68772  0.11440  0.83980  1.0000
  H   H1235     1.0  0.70712  0.12981  0.82398  1.0000
  H   H1236     1.0  0.72232  0.11000  0.83844  1.0000
  H   H1237     1.0  0.72336  0.06743  0.80540  1.0000
  H   H1238     1.0  0.73082  0.10126  0.80488  1.0000
  H   H1239     1.0  0.74156  0.07974  0.82080  1.0000
  C   C1042     1.0  0.52971  0.12704  0.86983  1.0000
  H   H1240     1.0  0.72365  0.07115  0.84965  1.0000
  H   H1241     1.0  0.91575  0.43714  0.83440  1.0000
  C   C1043     1.0  0.65356  0.01204  0.98928  1.0000
  C   C1044     1.0  0.93459  0.48236  0.87510  1.0000
  N   N69       1.0  0.61421  0.08062  0.86828  1.0000
  C   C1045     1.0  0.64244  0.08056  0.86473  1.0000
  C   C1046     1.0  0.60913  0.09053  0.88414  1.0000
  C   C1047     1.0  0.60566  0.05330  0.86916  1.0000
  C   C1048     1.0  0.60122  0.09747  0.85614  1.0000
  C   C1049     1.0  0.60720  0.12419  0.85405  1.0000
  C   C1050     1.0  0.58287  0.08808  0.84589  1.0000
  C   C1051     1.0  0.59568  0.14041  0.84245  1.0000
  C   C1052     1.0  0.57156  0.10452  0.83426  1.0000
  H   H1242     1.0  0.74108  0.23143  0.79746  1.0000
  H   H1243     1.0  0.65072  0.10017  0.86468  1.0000
  H   H1244     1.0  0.65308  0.06822  0.87366  1.0000
  H   H1245     1.0  0.64700  0.07333  0.85291  1.0000
  H   H1246     1.0  0.58813  0.09031  0.88744  1.0000
  H   H1247     1.0  0.61593  0.11060  0.88485  1.0000
  H   H1248     1.0  0.61911  0.07856  0.89354  1.0000
  H   H1249     1.0  0.58471  0.05167  0.87248  1.0000
  H   H1250     1.0  0.60978  0.04409  0.85785  1.0000
  H   H1251     1.0  0.61588  0.04137  0.87845  1.0000
  H   H1252     1.0  0.62107  0.13284  0.86129  1.0000
  H   H1253     1.0  0.57691  0.06816  0.84662  1.0000
  H   H1254     1.0  0.53769  0.23392  0.84839  1.0000
  H   H1255     1.0  0.93993  0.42405  0.84704  1.0000
  H   H1256     1.0  0.60072  0.16075  0.84099  1.0000
  N   N70       1.0  0.75753  0.38171  0.85874  1.0000
  C   C1053     1.0  0.75070  0.38940  0.87490  1.0000
  C   C1054     1.0  0.78360  0.36957  0.85876  1.0000
  C   C1055     1.0  0.75922  0.40565  0.84807  1.0000
  C   C1056     1.0  0.73830  0.36304  0.85401  1.0000
  C   C1057     1.0  0.72113  0.36879  0.84151  1.0000
  C   C1058     1.0  0.73606  0.33830  0.86218  1.0000
  C   C1059     1.0  0.70310  0.35071  0.83748  1.0000
  C   C1060     1.0  0.71804  0.32036  0.85799  1.0000
  C   C1061     1.0  0.70155  0.32658  0.84570  1.0000
  H   H1257     1.0  0.75092  0.37262  0.88379  1.0000
  H   H1258     1.0  0.76454  0.40378  0.87879  1.0000
  H   H1259     1.0  0.73100  0.39821  0.87546  1.0000
  H   H1260     1.0  0.56950  0.14325  0.82337  1.0000
  H   H1261     1.0  0.81012  0.26904  0.80818  1.0000
  H   H1262     1.0  0.56937  0.02136  0.98706  1.0000
  H   H1263     1.0  0.94831  0.40552  0.96160  1.0000
  H   H1264     1.0  0.80957  0.34897  0.77873  1.0000
  C   C1062     1.0  0.88750  0.34151  0.77458  1.0000
  C   C1063     1.0  0.82933  0.31033  0.79515  1.0000
  C   C1064     1.0  0.66518  0.03624  0.98919  1.0000
  C   C1065     1.0  0.77675  0.24828  0.80359  1.0000
  C   C1066     1.0  0.75553  0.24600  0.79421  1.0000
  C   C1067     1.0  0.89575  0.42956  0.86410  1.0000
  H   H1265     1.0  0.94683  0.33305  0.96300  1.0000
  H   H1266     1.0  0.78340  0.33577  0.79112  1.0000
  H   H1267     1.0  0.55834  0.01454  0.94482  1.0000
  H   H1268     1.0  0.84253  0.29331  0.79653  1.0000
  C   C1068     1.0  0.56203  0.01251  0.91162  1.0000
  H   H1269     1.0  0.83613  0.28401  0.76904  1.0000
  H   H1270     1.0  0.67199  0.04579  0.97810  1.0000
  C   C1069     1.0  0.56746  0.01833  0.95611  1.0000
  H   H1271     1.0  0.00917  0.36731  0.96067  1.0000
  H   H1272     1.0  0.90607  0.41090  0.86652  1.0000
  C   C1070     1.0  0.70836  0.14775  0.77560  1.0000
  H   H1273     1.0  0.94608  0.41744  0.87422  1.0000
  Fe  Fe145     1.0  0.68048  0.02993  0.91362  1.0000
  H   H1274     1.0  0.98314  0.40697  0.95884  1.0000
  H   H1275     1.0  0.99421  0.33624  0.96161  1.0000
  C   C1071     1.0  0.66862  0.04788  0.00355  1.0000
  C   C1072     1.0  0.57804  0.13058  0.83251  1.0000
  C   C1073     1.0  0.96562  0.44268  0.88830  1.0000
  H   H1276     1.0  0.97783  0.42730  0.89332  1.0000
  H   H1277     1.0  0.77873  0.23532  0.81407  1.0000
  H   H1278     1.0  0.91177  0.30840  0.77037  1.0000
  H   H1279     1.0  0.84198  0.32727  0.79214  1.0000
  H   H1280     1.0  0.96970  0.32534  0.98479  1.0000
  H   H1281     1.0  0.88530  0.43463  0.87519  1.0000
  C   C1074     1.0  0.83365  0.50108  0.81480  1.0000
  H   H1282     1.0  0.56890  0.06540  0.00386  1.0000
  H   H1283     1.0  0.88461  0.48018  0.86224  1.0000
  C   C1075     1.0  0.97206  0.34166  0.00701  1.0000
  H   H1284     1.0  0.92714  0.36152  0.96511  1.0000
  C   C1076     1.0  0.97009  0.34327  0.99057  1.0000
  H   H1285     1.0  0.51637  0.09749  0.88717  1.0000
  H   H1286     1.0  0.74498  0.13091  0.76867  1.0000
  H   H1287     1.0  0.94222  0.45695  0.83925  1.0000
  C   C1077     1.0  0.72550  0.13550  0.76518  1.0000
  C   C1078     1.0  0.89686  0.47285  0.85239  1.0000
  H   H1288     1.0  0.81962  0.31357  0.80682  1.0000
  H   H1289     1.0  0.52787  0.02618  0.98361  1.0000
  C   C1079     1.0  0.87149  0.36080  0.76782  1.0000
  N   N71       1.0  0.91331  0.45063  0.85797  1.0000
  C   C1080     1.0  0.93135  0.45685  0.87029  1.0000
  C   C1081     1.0  0.70158  0.03788  0.85648  1.0000
  H   H1290     1.0  0.88095  0.42556  0.85542  1.0000
  C   C1082     1.0  0.75250  0.26298  0.78097  1.0000
  H   H1291     1.0  0.65506  0.01231  0.83543  1.0000
  C   C1083     1.0  0.79611  0.33231  0.78058  1.0000
  H   H1292     1.0  0.83582  0.50351  0.80206  1.0000
  H   H1293     1.0  0.71183  0.03406  0.86736  1.0000
  C   C1084     1.0  0.51348  0.11710  0.88218  1.0000
  H   H1294     1.0  0.78403  0.33341  0.77003  1.0000
  H   H1295     1.0  0.58835  0.02206  0.95330  1.0000
  C   C1085     1.0  0.68237  0.02114  0.85264  1.0000
  H   H1296     1.0  0.53830  0.15985  0.85362  1.0000
  C   C1086     1.0  0.89962  0.32344  0.76505  1.0000
  H   H1297     1.0  0.92333  0.49861  0.87047  1.0000
  H   H1298     1.0  0.98315  0.47215  0.90089  1.0000
  C   C1087     1.0  0.95301  0.48765  0.88609  1.0000
  C   C1088     1.0  0.52578  0.15209  0.86331  1.0000
  C   C1089     1.0  0.51900  0.19879  0.81849  1.0000
  C   C1090     1.0  0.51665  0.21400  0.83149  1.0000
  H   H1299     1.0  0.95547  0.50725  0.88947  1.0000
  H   H1300     1.0  0.71532  0.01488  0.00093  1.0000
  H   H1301     1.0  0.80980  0.23919  0.76483  1.0000
  H   H1302     1.0  0.73487  0.77558  0.24783  1.0000
  S   S294      1.0  0.67535  0.96416  0.09876  1.0000
  H   H1303     1.0  0.70399  0.94117  0.07036  1.0000
  Fe  Fe146     1.0  0.66915  0.86941  0.17689  1.0000
  S   S295      1.0  0.66538  0.83704  0.16095  1.0000
  S   S296      1.0  0.66984  0.91235  0.16923  1.0000
  Fe  Fe147     1.0  0.66444  0.83259  0.20671  1.0000
  S   S297      1.0  0.65916  0.79776  0.19267  1.0000
  S   S298      1.0  0.66331  0.82379  0.23327  1.0000
  Fe  Fe148     1.0  0.69200  0.81414  0.17731  1.0000
  S   S299      1.0  0.72757  0.79208  0.16827  1.0000
  Fe  Fe149     1.0  0.63286  0.82372  0.17785  1.0000
  S   S300      1.0  0.59501  0.81584  0.16620  1.0000
  S   S301      1.0  0.69844  0.84801  0.19198  1.0000
  S   S302      1.0  0.63556  0.85699  0.19315  1.0000
  C   C1091     1.0  0.56621  0.00116  0.09538  1.0000
  C   C1092     1.0  0.64091  0.75589  0.16578  1.0000
  S   S303      1.0  0.95946  0.64548  0.09623  1.0000
  Fe  Fe150     1.0  0.83743  0.60462  0.18305  1.0000
  S   S304      1.0  0.87578  0.61096  0.19338  1.0000
  S   S305      1.0  0.82766  0.56678  0.17232  1.0000
  Fe  Fe151     1.0  0.81926  0.66144  0.18745  1.0000
  S   S306      1.0  0.85740  0.67150  0.19741  1.0000
  S   S307      1.0  0.78162  0.68483  0.19110  1.0000
  Fe  Fe152     1.0  0.87593  0.64823  0.17819  1.0000
  S   S308      1.0  0.91580  0.65664  0.16677  1.0000
  Fe  Fe153     1.0  0.85434  0.63344  0.21146  1.0000
  S   S309      1.0  0.85824  0.62716  0.23793  1.0000
  S   S310      1.0  0.83814  0.64116  0.16695  1.0000
  S   S311      1.0  0.81569  0.62392  0.20243  1.0000
  C   C1093     1.0  0.83646  0.53599  0.18090  1.0000
  C   C1094     1.0  0.74387  0.79402  0.24892  1.0000
  N   N72       1.0  0.75114  0.79945  0.21939  1.0000
  C   C1095     1.0  0.51798  0.80488  0.17493  1.0000
  C   C1096     1.0  0.94074  0.71352  0.13696  1.0000
  H   H1304     1.0  0.85218  0.55014  0.20177  1.0000
  C   C1097     1.0  0.98691  0.71408  0.15282  1.0000
  C   C1098     1.0  0.89879  0.66079  0.24061  1.0000
  C   C1099     1.0  0.88040  0.64444  0.24838  1.0000
  C   C1100     1.0  0.76553  0.84192  0.25322  1.0000
  C   C1101     1.0  0.78797  0.51408  0.20837  1.0000
  H   H1305     1.0  0.89980  0.66288  0.22782  1.0000
  N   N73       1.0  0.60479  0.73552  0.18284  1.0000
  H   H1306     1.0  0.00422  0.71445  0.15949  1.0000
  C   C1102     1.0  0.94727  0.64684  0.11599  1.0000
  C   C1103     1.0  0.96351  0.64424  0.12880  1.0000
  C   C1104     1.0  0.95349  0.64701  0.14427  1.0000
  C   C1105     1.0  0.92701  0.65167  0.14717  1.0000
  C   C1106     1.0  0.91060  0.65349  0.13442  1.0000
  C   C1107     1.0  0.92073  0.65117  0.11890  1.0000
  H   H1307     1.0  0.98378  0.64030  0.12674  1.0000
  H   H1308     1.0  0.96634  0.64573  0.15406  1.0000
  H   H1309     1.0  0.89023  0.65742  0.13645  1.0000
  H   H1310     1.0  0.90800  0.65315  0.10906  1.0000
  C   C1108     1.0  0.76550  0.77463  0.21839  1.0000
  C   C1109     1.0  0.74245  0.76243  0.17510  1.0000
  C   C1110     1.0  0.76694  0.75585  0.16870  1.0000
  C   C1111     1.0  0.77939  0.73239  0.17351  1.0000
  C   C1112     1.0  0.76738  0.71505  0.18474  1.0000
  C   C1113     1.0  0.74291  0.72169  0.19119  1.0000
  C   C1114     1.0  0.73053  0.74521  0.18646  1.0000
  H   H1311     1.0  0.77633  0.76892  0.15985  1.0000
  H   H1312     1.0  0.79814  0.72758  0.16839  1.0000
  H   H1313     1.0  0.73338  0.70839  0.19983  1.0000
  H   H1314     1.0  0.71158  0.74974  0.19137  1.0000
  H   H1315     1.0  0.57032  0.90518  0.17383  1.0000
  C   C1115     1.0  0.53559  0.91660  0.12470  1.0000
  C   C1116     1.0  0.56198  0.81005  0.19276  1.0000
  C   C1117     1.0  0.56452  0.81175  0.17625  1.0000
  C   C1118     1.0  0.54242  0.80919  0.16739  1.0000
  H   H1316     1.0  0.87306  0.71387  0.25431  1.0000
  Fe  Fe154     1.0  0.66288  0.00579  0.09254  1.0000
  H   H1317     1.0  0.57875  0.81220  0.19976  1.0000
  H   H1318     1.0  0.54417  0.81038  0.15461  1.0000
  H   H1319     1.0  0.75916  0.80994  0.19456  1.0000
  C   C1119     1.0  0.56811  0.89935  0.14309  1.0000
  C   C1120     1.0  0.69577  0.86334  0.23981  1.0000
  C   C1121     1.0  0.68097  0.84231  0.24581  1.0000
  N   N74       1.0  0.70533  0.96812  0.04973  1.0000
  H   H1320     1.0  0.97360  0.58749  0.11428  1.0000
  H   H1321     1.0  0.69651  0.86860  0.22724  1.0000
  C   C1122     1.0  0.72488  0.98347  0.05729  1.0000
  C   C1123     1.0  0.67326  0.94992  0.11839  1.0000
  C   C1124     1.0  0.66852  0.96480  0.13137  1.0000
  C   C1125     1.0  0.66791  0.95299  0.14683  1.0000
  C   C1126     1.0  0.67163  0.92617  0.14950  1.0000
  C   C1127     1.0  0.67596  0.91119  0.13651  1.0000
  C   C1128     1.0  0.67693  0.92306  0.12104  1.0000
  H   H1322     1.0  0.66583  0.98548  0.12953  1.0000
  H   H1323     1.0  0.66458  0.96475  0.15680  1.0000
  H   H1324     1.0  0.67896  0.89055  0.13838  1.0000
  H   H1325     1.0  0.68070  0.91139  0.11108  1.0000
  H   H1326     1.0  0.92938  0.60050  0.16136  1.0000
  H   H1327     1.0  0.99940  0.68170  0.11031  1.0000
  H   H1328     1.0  0.92993  0.68722  0.24338  1.0000
  N   N75       1.0  0.90654  0.57048  0.15238  1.0000
  C   C1129     1.0  0.92377  0.58003  0.16430  1.0000
  C   C1130     1.0  0.88414  0.58843  0.15108  1.0000
  C   C1131     1.0  0.89718  0.54464  0.15857  1.0000
  C   C1132     1.0  0.91925  0.56892  0.13652  1.0000
  C   C1133     1.0  0.94411  0.57931  0.13254  1.0000
  C   C1134     1.0  0.90608  0.55803  0.12421  1.0000
  C   C1135     1.0  0.95499  0.57865  0.11721  1.0000
  C   C1136     1.0  0.82238  0.69221  0.23536  1.0000
  C   C1137     1.0  0.59676  0.71081  0.19140  1.0000
  H   H1329     1.0  0.91407  0.57991  0.17625  1.0000
  H   H1330     1.0  0.94148  0.56784  0.16549  1.0000
  H   H1331     1.0  0.71186  0.81280  0.21869  1.0000
  H   H1332     1.0  0.89011  0.60786  0.14604  1.0000
  H   H1333     1.0  0.87460  0.59108  0.16280  1.0000
  H   H1334     1.0  0.86897  0.58140  0.14354  1.0000
  H   H1335     1.0  0.88092  0.53775  0.15185  1.0000
  C   C1138     1.0  0.00477  0.52137  0.08291  1.0000
  C   C1139     1.0  0.60331  0.75584  0.19434  1.0000
  H   H1336     1.0  0.78488  0.68325  0.24558  1.0000
  C   C1140     1.0  0.94157  0.56779  0.10543  1.0000
  H   H1337     1.0  0.57643  0.71185  0.19614  1.0000
  C   C1141     1.0  0.66613  0.75600  0.15932  1.0000
  H   H1338     1.0  0.58835  0.76138  0.16458  1.0000
  H   H1339     1.0  0.67781  0.99968  0.04939  1.0000
  H   H1340     1.0  0.54039  0.00988  0.06615  1.0000
  H   H1341     1.0  0.52692  0.99857  0.04879  1.0000
  C   C1142     1.0  0.68254  0.73500  0.16241  1.0000
  H   H1342     1.0  0.61930  0.93018  0.15829  1.0000
  C   C1143     1.0  0.75341  0.80901  0.23536  1.0000
  C   C1144     1.0  0.53768  0.80505  0.20030  1.0000
  H   H1343     1.0  0.60877  0.70598  0.20182  1.0000
  H   H1344     1.0  0.71500  0.77915  0.22422  1.0000
  H   H1345     1.0  0.92270  0.71256  0.13096  1.0000
  C   C1145     1.0  0.72353  0.79518  0.21647  1.0000
  H   H1346     1.0  0.69522  0.00695  0.25816  1.0000
  C   C1146     1.0  0.83141  0.51375  0.17292  1.0000
  C   C1147     1.0  0.80383  0.69064  0.24768  1.0000
  H   H1347     1.0  0.69052  0.92928  0.05340  1.0000
  C   C1148     1.0  0.58572  0.74176  0.17046  1.0000
  H   H1348     1.0  0.72313  0.00455  0.05411  1.0000
  H   H1349     1.0  0.78240  0.82105  0.20750  1.0000
  H   H1350     1.0  0.96292  0.70636  0.11632  1.0000
  C   C1149     1.0  0.67940  0.97890  0.05341  1.0000
  C   C1150     1.0  0.76142  0.81761  0.20642  1.0000
  H   H1351     1.0  0.59789  0.69455  0.18345  1.0000
  H   H1352     1.0  0.66411  0.96848  0.04760  1.0000
  C   C1151     1.0  0.76023  0.52274  0.18645  1.0000
  H   H1353     1.0  0.56837  0.93763  0.13014  1.0000
  H   H1354     1.0  0.62924  0.77297  0.16329  1.0000
  H   H1355     1.0  0.72056  0.79044  0.20407  1.0000
  H   H1356     1.0  0.00203  0.71575  0.10433  1.0000
  H   H1357     1.0  0.81779  0.68605  0.22381  1.0000
  H   H1358     1.0  0.88935  0.54502  0.17099  1.0000
  H   H1359     1.0  0.71805  0.96863  0.25678  1.0000
  H   H1360     1.0  0.56043  0.85960  0.15204  1.0000
  C   C1152     1.0  0.61220  0.88439  0.14556  1.0000
  C   C1153     1.0  0.84700  0.70104  0.23800  1.0000
  H   H1361     1.0  0.67326  0.77272  0.15213  1.0000
  H   H1362     1.0  0.58711  0.72770  0.16110  1.0000
  C   C1154     1.0  0.91718  0.55744  0.10892  1.0000
  H   H1363     1.0  0.77178  0.84631  0.22844  1.0000
  C   C1155     1.0  0.85335  0.70808  0.25302  1.0000
  C   C1156     1.0  0.71001  0.94736  0.02334  1.0000
  C   C1157     1.0  0.70644  0.94137  0.05720  1.0000
  C   C1158     1.0  0.94027  0.71701  0.15311  1.0000
  C   C1159     1.0  0.70971  0.96959  0.03233  1.0000
  H   H1364     1.0  0.95527  0.58880  0.14091  1.0000
  H   H1365     1.0  0.75701  0.75889  0.22641  1.0000
  C   C1160     1.0  0.55386  0.87605  0.14470  1.0000
  H   H1366     1.0  0.98513  0.52487  0.07937  1.0000
  C   C1161     1.0  0.55854  0.91947  0.13255  1.0000
  H   H1367     1.0  0.78603  0.77673  0.22145  1.0000
  H   H1368     1.0  0.64348  0.69675  0.18624  1.0000
  H   H1369     1.0  0.52847  0.93223  0.11681  1.0000
  H   H1370     1.0  0.56552  0.74174  0.17548  1.0000
  H   H1371     1.0  0.92193  0.71867  0.15959  1.0000
  H   H1372     1.0  0.77320  0.86085  0.25498  1.0000
  H   H1373     1.0  0.75085  0.83646  0.20614  1.0000
  H   H1374     1.0  0.76549  0.76763  0.20625  1.0000
  C   C1162     1.0  0.98809  0.70978  0.13644  1.0000
  H   H1375     1.0  0.77974  0.55217  0.19806  1.0000
  C   C1163     1.0  0.84817  0.53321  0.19550  1.0000
  H   H1376     1.0  0.75129  0.53655  0.17812  1.0000
  H   H1377     1.0  0.63040  0.88542  0.15204  1.0000
  C   C1164     1.0  0.63131  0.73466  0.17564  1.0000
  H   H1378     1.0  0.91298  0.52993  0.15844  1.0000
  H   H1379     1.0  0.58342  0.87334  0.17128  1.0000
  H   H1380     1.0  0.55593  0.96223  0.09079  1.0000
  C   C1165     1.0  0.58715  0.89437  0.16895  1.0000
  N   N76       1.0  0.59203  0.90183  0.15187  1.0000
  H   H1381     1.0  0.53596  0.80324  0.21308  1.0000
  H   H1382     1.0  0.72268  0.98149  0.07047  1.0000
  H   H1383     1.0  0.58776  0.94276  0.15464  1.0000
  C   C1166     1.0  0.60245  0.92851  0.15069  1.0000
  H   H1384     1.0  0.60961  0.93446  0.13844  1.0000
  H   H1385     1.0  0.88672  0.55071  0.12621  1.0000
  H   H1386     1.0  0.68706  0.69783  0.17469  1.0000
  H   H1387     1.0  0.60618  0.86381  0.14665  1.0000
  H   H1388     1.0  0.61691  0.88956  0.13282  1.0000
  H   H1389     1.0  0.70816  0.92803  0.02877  1.0000
  C   C1167     1.0  0.67390  0.71388  0.17211  1.0000
  H   H1390     1.0  0.61753  0.75220  0.20377  1.0000
  H   H1391     1.0  0.60415  0.89831  0.17606  1.0000
  H   H1392     1.0  0.67481  0.97743  0.06634  1.0000
  H   H1393     1.0  0.96271  0.71977  0.17363  1.0000
  H   H1394     1.0  0.58654  0.99812  0.09288  1.0000
  Fe  Fe155     1.0  0.00184  0.63977  0.08913  1.0000
  C   C1168     1.0  0.64870  0.71359  0.17870  1.0000
  C   C1169     1.0  0.91586  0.67448  0.24944  1.0000
  H   H1395     1.0  0.60749  0.77526  0.18859  1.0000
  H   H1396     1.0  0.70222  0.73537  0.15754  1.0000
  C   C1170     1.0  0.77611  0.53164  0.19775  1.0000
  C   C1171     1.0  0.96329  0.71741  0.16101  1.0000
  H   H1397     1.0  0.72085  0.89405  0.24539  1.0000
  C   C1172     1.0  0.52244  0.98505  0.09690  1.0000
  C   C1173     1.0  0.96421  0.70988  0.12868  1.0000
  H   H1398     1.0  0.86158  0.70153  0.22847  1.0000
  H   H1399     1.0  0.94989  0.56807  0.09348  1.0000
  C   C1174     1.0  0.70945  0.87781  0.25013  1.0000
  C   C1175     1.0  0.54894  0.98079  0.09437  1.0000
  C   C1176     1.0  0.71188  0.99397  0.02373  1.0000
  H   H1400     1.0  0.58370  0.75722  0.20012  1.0000
  H   H1401     1.0  0.00207  0.65788  0.02598  1.0000
  C   C1177     1.0  0.76440  0.83331  0.23797  1.0000
  H   H1402     1.0  0.72532  0.93187  0.05453  1.0000
  H   H1403     1.0  0.74482  0.97719  0.05390  1.0000
  H   H1404     1.0  0.90650  0.54965  0.09960  1.0000
  H   H1405     1.0  0.01041  0.56044  0.08896  1.0000
  H   H1406     1.0  0.64109  0.00231  0.02928  1.0000
  H   H1407     1.0  0.80071  0.52111  0.21697  1.0000
  C   C1178     1.0  0.01098  0.69941  0.11142  1.0000
  C   C1179     1.0  0.51347  0.00889  0.10173  1.0000
  C   C1180     1.0  0.51554  0.80248  0.19146  1.0000
  H   H1408     1.0  0.52014  0.85558  0.13848  1.0000
  C   C1181     1.0  0.53088  0.87345  0.13684  1.0000
  C   C1182     1.0  0.52170  0.89374  0.12692  1.0000
  H   H1409     1.0  0.82238  0.51576  0.16161  1.0000
  S   S312      1.0  0.63202  0.01147  0.07445  1.0000
  H   H1410     1.0  0.99266  0.61408  0.37858  1.0000
  Fe  Fe156     1.0  0.54640  0.86865  0.44524  1.0000
  S   S313      1.0  0.56299  0.90674  0.43625  1.0000
  S   S314      1.0  0.56099  0.85191  0.46883  1.0000
  C   C1183     1.0  0.71216  0.00122  0.28157  1.0000
  H   H1411     1.0  0.58796  0.91874  0.50217  1.0000
  Fe  Fe157     1.0  0.56457  0.89127  0.41203  1.0000
  S   S315      1.0  0.59665  0.90529  0.39441  1.0000
  S   S316      1.0  0.55139  0.85163  0.42134  1.0000
  Fe  Fe158     1.0  0.70857  0.86320  0.33862  1.0000
  S   S317      1.0  0.74138  0.88146  0.35008  1.0000
  S   S318      1.0  0.67953  0.84109  0.35500  1.0000
  Fe  Fe159     1.0  0.72849  0.88185  0.30544  1.0000
  S   S319      1.0  0.76248  0.90168  0.31491  1.0000
  S   S320      1.0  0.72647  0.88984  0.27888  1.0000
  Fe  Fe160     1.0  0.76655  0.86514  0.33073  1.0000
  S   S321      1.0  0.80615  0.84715  0.33605  1.0000
  Fe  Fe161     1.0  0.73421  0.91580  0.33318  1.0000
  S   S322      1.0  0.72485  0.95531  0.34221  1.0000
  S   S323      1.0  0.73415  0.84453  0.32022  1.0000
  S   S324      1.0  0.69987  0.89829  0.32274  1.0000
  C   C1184     1.0  0.72768  0.00793  0.34041  1.0000
  S   S325      1.0  0.91778  0.57100  0.41679  1.0000
  H   H1412     1.0  0.71432  0.97790  0.37459  1.0000
  C   C1185     1.0  0.66765  0.98808  0.38996  1.0000
  Fe  Fe162     1.0  0.89279  0.71510  0.32849  1.0000
  S   S326      1.0  0.89311  0.67699  0.31699  1.0000
  S   S327      1.0  0.85191  0.73301  0.32887  1.0000
  Fe  Fe163     1.0  0.95147  0.71137  0.33269  1.0000
  S   S328      1.0  0.95538  0.67410  0.32093  1.0000
  S   S329      1.0  0.98704  0.72471  0.34462  1.0000
  Fe  Fe164     1.0  0.92815  0.69193  0.30331  1.0000
  S   S330      1.0  0.93548  0.69023  0.27685  1.0000
  Fe  Fe165     1.0  0.92014  0.66219  0.33578  1.0000
  S   S331      1.0  0.92083  0.62029  0.34586  1.0000
  S   S332      1.0  0.92697  0.73075  0.31379  1.0000
  S   S333      1.0  0.91715  0.69874  0.34853  1.0000
  C   C1186     1.0  0.70854  0.87130  0.26649  1.0000
  C   C1187     1.0  0.68013  0.83574  0.26217  1.0000
  H   H1413     1.0  0.66870  0.81949  0.26688  1.0000
  H   H1414     1.0  0.52838  0.95016  0.47270  1.0000
  C   C1188     1.0  0.91684  0.58450  0.39705  1.0000
  C   C1189     1.0  0.91742  0.56894  0.38421  1.0000
  C   C1190     1.0  0.91831  0.58030  0.36865  1.0000
  C   C1191     1.0  0.91811  0.60731  0.36573  1.0000
  C   C1192     1.0  0.91665  0.62292  0.37858  1.0000
  C   C1193     1.0  0.91631  0.61153  0.39417  1.0000
  H   H1415     1.0  0.91709  0.54814  0.38627  1.0000
  H   H1416     1.0  0.91894  0.56806  0.35878  1.0000
  H   H1417     1.0  0.91567  0.64371  0.37655  1.0000
  H   H1418     1.0  0.91537  0.62370  0.40406  1.0000
  N   N77       1.0  0.99530  0.65499  0.37308  1.0000
  H   H1419     1.0  0.71301  0.94402  0.37842  1.0000
  H   H1420     1.0  0.82447  0.75190  0.27807  1.0000
  H   H1421     1.0  0.72771  0.00556  0.30474  1.0000
  H   H1422     1.0  0.79492  0.69591  0.27192  1.0000
  C   C1194     1.0  0.81912  0.81591  0.33255  1.0000
  C   C1195     1.0  0.80395  0.79618  0.32744  1.0000
  C   C1196     1.0  0.81441  0.77108  0.32621  1.0000
  C   C1197     1.0  0.84040  0.76551  0.32958  1.0000
  C   C1198     1.0  0.85584  0.78548  0.33410  1.0000
  C   C1199     1.0  0.84516  0.81042  0.33574  1.0000
  H   H1423     1.0  0.78405  0.80016  0.32476  1.0000
  H   H1424     1.0  0.80217  0.75578  0.32288  1.0000
  H   H1425     1.0  0.87580  0.78156  0.33680  1.0000
  H   H1426     1.0  0.85712  0.82552  0.33967  1.0000
  C   C1200     1.0  0.97677  0.65496  0.36014  1.0000
  C   C1201     1.0  0.69386  0.85019  0.27250  1.0000
  H   H1427     1.0  0.69306  0.84500  0.28508  1.0000
  H   H1428     1.0  0.70969  0.00712  0.34723  1.0000
  C   C1202     1.0  0.73980  0.98497  0.33607  1.0000
  C   C1203     1.0  0.76304  0.98636  0.32710  1.0000
  H   H1429     1.0  0.96999  0.68171  0.38485  1.0000
  H   H1430     1.0  0.77271  0.96879  0.32382  1.0000
  C   C1204     1.0  0.65592  0.85873  0.36567  1.0000
  C   C1205     1.0  0.64041  0.84598  0.37768  1.0000
  C   C1206     1.0  0.62177  0.85974  0.38647  1.0000
  C   C1207     1.0  0.61837  0.88635  0.38319  1.0000
  C   C1208     1.0  0.63344  0.89888  0.37093  1.0000
  C   C1209     1.0  0.65230  0.88528  0.36234  1.0000
  H   H1431     1.0  0.64296  0.82543  0.38031  1.0000
  H   H1432     1.0  0.61029  0.84983  0.39587  1.0000
  H   H1433     1.0  0.63043  0.91926  0.36802  1.0000
  H   H1434     1.0  0.66386  0.89527  0.35302  1.0000
  H   H1435     1.0  0.96360  0.54256  0.40340  1.0000
  H   H1436     1.0  0.98849  0.54398  0.36283  1.0000
  C   C1210     1.0  0.51657  0.85047  0.35090  1.0000
  C   C1211     1.0  0.56403  0.96442  0.49365  1.0000
  H   H1437     1.0  0.68094  0.96565  0.29584  1.0000
  C   C1212     1.0  0.54620  0.85586  0.48780  1.0000
  C   C1213     1.0  0.97983  0.54959  0.37433  1.0000
  H   H1438     1.0  0.58220  0.85074  0.49960  1.0000
  C   C1214     1.0  0.53720  0.92727  0.50165  1.0000
  H   H1439     1.0  0.64261  0.97135  0.40951  1.0000
  C   C1215     1.0  0.82313  0.73485  0.28676  1.0000
  C   C1216     1.0  0.99074  0.67908  0.38133  1.0000
  H   H1440     1.0  0.80267  0.72872  0.28788  1.0000
  H   H1441     1.0  0.64603  0.93874  0.39280  1.0000
  H   H1442     1.0  0.99645  0.69638  0.37353  1.0000
  C   C1217     1.0  0.51953  0.85953  0.49000  1.0000
  C   C1218     1.0  0.51857  0.79741  0.48067  1.0000
  H   H1443     1.0  0.56477  0.95058  0.38907  1.0000
  C   C1219     1.0  0.90256  0.52637  0.51084  1.0000
  H   H1444     1.0  0.59563  0.92945  0.48196  1.0000
  H   H1445     1.0  0.64645  0.96416  0.36671  1.0000
  H   H1446     1.0  0.75566  0.97622  0.27350  1.0000
  H   H1447     1.0  0.95639  0.65607  0.36463  1.0000
  H   H1448     1.0  0.71323  0.96465  0.39474  1.0000
  C   C1220     1.0  0.98911  0.63251  0.38429  1.0000
  C   C1221     1.0  0.58005  0.92127  0.49014  1.0000
  C   C1222     1.0  0.89646  0.65533  0.27377  1.0000
  H   H1449     1.0  0.74769  0.94522  0.28322  1.0000
  H   H1450     1.0  0.84183  0.69548  0.30557  1.0000
  C   C1223     1.0  0.54559  0.93721  0.47395  1.0000
  N   N78       1.0  0.55673  0.93810  0.48981  1.0000
  H   H1451     1.0  0.90179  0.54721  0.51101  1.0000
  H   H1452     1.0  0.90384  0.52693  0.48522  1.0000
  C   C1224     1.0  0.65024  0.98868  0.40335  1.0000
  H   H1453     1.0  0.52550  0.79192  0.44799  1.0000
  H   H1454     1.0  0.55994  0.94261  0.46423  1.0000
  C   C1225     1.0  0.53332  0.00871  0.39309  1.0000
  C   C1226     1.0  0.58336  0.98748  0.38742  1.0000
  H   H1455     1.0  0.71031  0.93968  0.26834  1.0000
  H   H1456     1.0  0.53593  0.86597  0.32958  1.0000
  H   H1457     1.0  0.53922  0.91737  0.47167  1.0000
  H   H1458     1.0  0.96153  0.53852  0.37609  1.0000
  C   C1227     1.0  0.66786  0.96271  0.36699  1.0000
  S   S334      1.0  0.94448  0.51364  0.44293  1.0000
  H   H1459     1.0  0.67599  0.97854  0.35888  1.0000
  C   C1228     1.0  0.56880  0.99542  0.43015  1.0000
  H   H1460     1.0  0.52143  0.82574  0.45142  1.0000
  H   H1461     1.0  0.52196  0.96783  0.39407  1.0000
  H   H1462     1.0  0.84980  0.67458  0.28995  1.0000
  H   H1463     1.0  0.70938  0.96561  0.30731  1.0000
  C   C1229     1.0  0.87940  0.64170  0.26497  1.0000
  C   C1230     1.0  0.74396  0.96646  0.28338  1.0000
  C   C1231     1.0  0.56159  0.85386  0.50114  1.0000
  H   H1464     1.0  0.86540  0.62888  0.27103  1.0000
  N   N79       1.0  0.67684  0.96371  0.38333  1.0000
  C   C1232     1.0  0.83713  0.69099  0.29334  1.0000
  C   C1233     1.0  0.56522  0.98567  0.48215  1.0000
  H   H1465     1.0  0.67493  0.92210  0.38738  1.0000
  C   C1234     1.0  0.57152  0.96913  0.50913  1.0000
  H   H1466     1.0  0.73687  0.79152  0.27423  1.0000
  H   H1467     1.0  0.57591  0.90161  0.48640  1.0000
  H   H1468     1.0  0.75166  0.97243  0.29463  1.0000
  H   H1469     1.0  0.89567  0.65278  0.28652  1.0000
  C   C1235     1.0  0.66748  0.94006  0.39259  1.0000
  H   H1470     1.0  0.56083  0.98381  0.46995  1.0000
  H   H1471     1.0  0.67405  0.94440  0.36168  1.0000
  Fe  Fe166     1.0  0.52211  0.91764  0.43127  1.0000
  H   H1472     1.0  0.53568  0.79879  0.47299  1.0000
  H   H1473     1.0  0.82795  0.74153  0.29850  1.0000
  Fe  Fe167     1.0  0.91814  0.52766  0.42349  1.0000
  N   N80       1.0  0.71610  0.97280  0.28198  1.0000
  C   C1236     1.0  0.55088  0.97540  0.43107  1.0000
  C   C1237     1.0  0.86763  0.72292  0.28334  1.0000
  C   C1238     1.0  0.53739  0.98162  0.39227  1.0000
  C   C1239     1.0  0.70551  0.96259  0.38283  1.0000
  N   N81       1.0  0.99739  0.54370  0.38757  1.0000
  H   H1474     1.0  0.81697  0.68397  0.29406  1.0000
  C   C1240     1.0  0.52759  0.97794  0.43968  1.0000
  H   H1475     1.0  0.99311  0.54264  0.41321  1.0000
  H   H1476     1.0  0.96844  0.63278  0.38843  1.0000
  C   C1241     1.0  0.80986  0.69783  0.26271  1.0000
  C   C1242     1.0  0.52259  0.00007  0.44790  1.0000
  H   H1477     1.0  0.52054  0.94078  0.50302  1.0000
  N   N82       1.0  0.74486  0.78973  0.36461  1.0000
  C   C1243     1.0  0.72681  0.78214  0.37808  1.0000
  C   C1244     1.0  0.74998  0.81775  0.36522  1.0000
  C   C1245     1.0  0.73183  0.78623  0.34963  1.0000
  C   C1246     1.0  0.76851  0.77341  0.36539  1.0000
  C   C1247     1.0  0.79358  0.78375  0.36676  1.0000
  C   C1248     1.0  0.76691  0.74619  0.36458  1.0000
  C   C1249     1.0  0.81551  0.76776  0.36708  1.0000
  C   C1250     1.0  0.78904  0.73045  0.36474  1.0000
  C   C1251     1.0  0.81329  0.74124  0.36590  1.0000
  H   H1478     1.0  0.70906  0.79459  0.37799  1.0000
  H   H1479     1.0  0.72017  0.76190  0.37779  1.0000
  H   H1480     1.0  0.73611  0.78394  0.38957  1.0000
  H   H1481     1.0  0.75917  0.82208  0.37638  1.0000
  H   H1482     1.0  0.73181  0.82942  0.36473  1.0000
  H   H1483     1.0  0.76263  0.82505  0.35502  1.0000
  H   H1484     1.0  0.72484  0.76623  0.34885  1.0000
  H   H1485     1.0  0.71458  0.79915  0.34830  1.0000
  H   H1486     1.0  0.74511  0.79078  0.33923  1.0000
  H   H1487     1.0  0.79701  0.80422  0.36709  1.0000
  H   H1488     1.0  0.74856  0.73693  0.36357  1.0000
  H   H1489     1.0  0.83451  0.77614  0.36760  1.0000
  H   H1490     1.0  0.78750  0.70979  0.36372  1.0000
  H   H1491     1.0  0.83051  0.72913  0.36552  1.0000
  H   H1492     1.0  0.54226  0.79520  0.50109  1.0000
  C   C1252     1.0  0.00259  0.51547  0.38839  1.0000
  C   C1253     1.0  0.91464  0.67190  0.26605  1.0000
  H   H1493     1.0  0.55465  0.95855  0.42450  1.0000
  H   H1494     1.0  0.53293  0.85306  0.35822  1.0000
  C   C1254     1.0  0.70721  0.96102  0.26765  1.0000
  S   S335      1.0  0.52450  0.90569  0.40637  1.0000
  H   H1495     1.0  0.97421  0.57041  0.37331  1.0000
  C   C1255     1.0  0.70178  0.96028  0.29587  1.0000
  H   H1496     1.0  0.67395  0.93930  0.40497  1.0000
  H   H1497     1.0  0.60243  0.97926  0.38547  1.0000
  H   H1498     1.0  0.98130  0.57178  0.40299  1.0000
  H   H1499     1.0  0.97848  0.63711  0.35355  1.0000
  C   C1256     1.0  0.83487  0.70668  0.26587  1.0000
  H   H1500     1.0  0.52944  0.90870  0.49819  1.0000
  C   C1257     1.0  0.75585  0.82678  0.26624  1.0000
  C   C1258     1.0  0.56208  0.97133  0.38944  1.0000
  H   H1501     1.0  0.97941  0.67209  0.35168  1.0000
  C   C1259     1.0  0.98345  0.55048  0.40240  1.0000
  C   C1260     1.0  0.90378  0.51492  0.49616  1.0000
  H   H1502     1.0  0.75605  0.83403  0.27795  1.0000
  H   H1503     1.0  0.88204  0.70762  0.28068  1.0000
  C   C1261     1.0  0.51818  0.85776  0.33478  1.0000
  C   C1262     1.0  0.52273  0.79518  0.49692  1.0000
  H   H1504     1.0  0.58635  0.99376  0.42298  1.0000
  H   H1505     1.0  0.68614  0.96421  0.26616  1.0000
  H   H1506     1.0  0.00060  0.63206  0.39509  1.0000
  H   H1507     1.0  0.99171  0.67115  0.27654  1.0000
  H   H1508     1.0  0.87136  0.72824  0.29557  1.0000
  N   N83       1.0  0.84079  0.71378  0.28197  1.0000
  H   H1509     1.0  0.70326  0.93879  0.29600  1.0000
  C   C1263     1.0  0.57264  0.01021  0.48610  1.0000
  H   H1510     1.0  0.87176  0.74039  0.27535  1.0000
  H   H1511     1.0  0.00441  0.73663  0.31193  1.0000
  H   H1512     1.0  0.00185  0.67948  0.39225  1.0000
  C   C1264     1.0  0.77392  0.01068  0.32250  1.0000
  C   C1265     1.0  0.74502  0.80289  0.26410  1.0000
  Fe  Fe168     1.0  0.71663  0.88054  0.70195  1.0000
  S   S336      1.0  0.75613  0.88336  0.68990  1.0000
  S   S337      1.0  0.71192  0.88989  0.72762  1.0000
  Fe  Fe169     1.0  0.68953  0.87232  0.67093  1.0000
  S   S338      1.0  0.72703  0.87442  0.65680  1.0000
  S   S339      1.0  0.64854  0.86804  0.66242  1.0000
  Fe  Fe170     1.0  0.74390  0.84916  0.67684  1.0000
  S   S340      1.0  0.76336  0.80979  0.67263  1.0000
  Fe  Fe171     1.0  0.73586  0.90818  0.67120  1.0000
  S   S341      1.0  0.74545  0.94743  0.65901  1.0000
  S   S342      1.0  0.70539  0.84514  0.69016  1.0000
  S   S343      1.0  0.69740  0.90727  0.68408  1.0000
  Fe  Fe172     1.0  0.56950  0.87600  0.58373  1.0000
  S   S344      1.0  0.55410  0.91314  0.59217  1.0000
  S   S345      1.0  0.60813  0.86134  0.59287  1.0000
  Fe  Fe173     1.0  0.52726  0.87369  0.55927  1.0000
  H   H1513     1.0  0.68412  0.93552  0.71434  1.0000
  Fe  Fe174     1.0  0.54890  0.92490  0.56661  1.0000
  S   S346      1.0  0.56010  0.96363  0.55517  1.0000
  S   S347      1.0  0.56748  0.88923  0.55788  1.0000
  H   H1514     1.0  0.00262  0.55576  0.65661  1.0000
  Fe  Fe175     1.0  0.89936  0.67333  0.66547  1.0000
  S   S348      1.0  0.92462  0.70780  0.66811  1.0000
  S   S349      1.0  0.89750  0.66163  0.64017  1.0000
  Fe  Fe176     1.0  0.88586  0.66829  0.70090  1.0000
  S   S350      1.0  0.91028  0.70186  0.70583  1.0000
  S   S351      1.0  0.86099  0.64835  0.72032  1.0000
  Fe  Fe177     1.0  0.89214  0.72134  0.68433  1.0000
  S   S352      1.0  0.87657  0.76287  0.68485  1.0000
  Fe  Fe178     1.0  0.93996  0.68483  0.68919  1.0000
  S   S353      1.0  0.98123  0.67397  0.69589  1.0000
  S   S354      1.0  0.86620  0.68846  0.68025  1.0000
  S   S355      1.0  0.91624  0.64967  0.68572  1.0000
  C   C1266     1.0  0.95147  0.56453  0.62378  1.0000
  C   C1267     1.0  0.95394  0.59996  0.64999  1.0000
  S   S356      1.0  0.91847  0.54180  0.58491  1.0000
  H   H1515     1.0  0.74229  0.97302  0.71623  1.0000
  H   H1516     1.0  0.57446  0.98050  0.61809  1.0000
  S   S357      1.0  0.87111  0.54724  0.62307  1.0000
  H   H1517     1.0  0.53015  0.96143  0.58441  1.0000
  H   H1518     1.0  0.67823  0.94967  0.73273  1.0000
  C   C1268     1.0  0.87089  0.53234  0.75343  1.0000
  C   C1269     1.0  0.65072  0.97841  0.62671  1.0000
  H   H1519     1.0  0.78351  0.99363  0.70138  1.0000
  H   H1520     1.0  0.52541  0.99212  0.60544  1.0000
  H   H1521     1.0  0.65918  0.95925  0.62774  1.0000
  C   C1270     1.0  0.85023  0.64824  0.75212  1.0000
  C   C1271     1.0  0.88969  0.62989  0.63554  1.0000
  C   C1272     1.0  0.89571  0.62200  0.62027  1.0000
  C   C1273     1.0  0.89007  0.59680  0.61622  1.0000
  C   C1274     1.0  0.87798  0.57938  0.62736  1.0000
  C   C1275     1.0  0.87140  0.58751  0.64251  1.0000
  C   C1276     1.0  0.87762  0.61248  0.64668  1.0000
  H   H1522     1.0  0.90489  0.63540  0.61153  1.0000
  H   H1523     1.0  0.89488  0.59090  0.60446  1.0000
  H   H1524     1.0  0.86179  0.57424  0.65115  1.0000
  H   H1525     1.0  0.87271  0.61835  0.65844  1.0000
  H   H1526     1.0  0.80229  0.75791  0.72979  1.0000
  C   C1277     1.0  0.89362  0.66067  0.74365  1.0000
  C   C1278     1.0  0.86890  0.65304  0.73994  1.0000
  H   H1527     1.0  0.86730  0.73623  0.71914  1.0000
  H   H1528     1.0  0.86299  0.71359  0.76054  1.0000
  N   N84       1.0  0.98185  0.52804  0.53771  1.0000
  H   H1529     1.0  0.90827  0.66414  0.73435  1.0000
  H   H1530     1.0  0.83098  0.64262  0.74933  1.0000
  C   C1279     1.0  0.55515  0.98616  0.56939  1.0000
  C   C1280     1.0  0.53988  0.97978  0.58300  1.0000
  H   H1531     1.0  0.68753  0.79334  0.67854  1.0000
  C   C1281     1.0  0.74366  0.99946  0.66360  1.0000
  H   H1532     1.0  0.68939  0.83486  0.65062  1.0000
  H   H1533     1.0  0.94247  0.54945  0.61710  1.0000
  C   C1282     1.0  0.67988  0.95424  0.71972  1.0000
  H   H1534     1.0  0.56269  0.85370  0.52664  1.0000
  C   C1283     1.0  0.79441  0.79690  0.67753  1.0000
  C   C1284     1.0  0.79921  0.77023  0.67648  1.0000
  C   C1285     1.0  0.82398  0.75938  0.67900  1.0000
  C   C1286     1.0  0.84450  0.77516  0.68241  1.0000
  C   C1287     1.0  0.83960  0.80172  0.68375  1.0000
  C   C1288     1.0  0.81474  0.81252  0.68142  1.0000
  H   H1535     1.0  0.78370  0.75792  0.67346  1.0000
  H   H1536     1.0  0.82720  0.73889  0.67808  1.0000
  H   H1537     1.0  0.85523  0.81416  0.68643  1.0000
  H   H1538     1.0  0.81150  0.83306  0.68221  1.0000
  C   C1289     1.0  0.63808  0.86971  0.64266  1.0000
  C   C1290     1.0  0.65532  0.86787  0.62966  1.0000
  C   C1291     1.0  0.64587  0.86605  0.61441  1.0000
  C   C1292     1.0  0.61921  0.86684  0.61189  1.0000
  C   C1293     1.0  0.60203  0.87017  0.62474  1.0000
  C   C1294     1.0  0.61144  0.87129  0.64006  1.0000
  H   H1539     1.0  0.67587  0.86709  0.63137  1.0000
  H   H1540     1.0  0.65930  0.86353  0.60453  1.0000
  H   H1541     1.0  0.58146  0.87070  0.62299  1.0000
  H   H1542     1.0  0.59796  0.87276  0.65003  1.0000
  C   C1295     1.0  0.75206  0.97491  0.66950  1.0000
  C   C1296     1.0  0.77210  0.99529  0.69093  1.0000
  C   C1297     1.0  0.76616  0.97289  0.68329  1.0000
  H   H1543     1.0  0.58710  0.95816  0.63305  1.0000
  H   H1544     1.0  0.77311  0.95417  0.68779  1.0000
  C   C1298     1.0  0.66788  0.83124  0.74776  1.0000
  C   C1299     1.0  0.68142  0.84762  0.73651  1.0000
  C   C1300     1.0  0.69528  0.86846  0.74139  1.0000
  H   H1545     1.0  0.83063  0.76320  0.71755  1.0000
  H   H1546     1.0  0.65712  0.81522  0.74392  1.0000
  H   H1547     1.0  0.68098  0.84424  0.72409  1.0000
  H   H1548     1.0  0.00467  0.60516  0.62601  1.0000
  N   N85       1.0  0.85742  0.74046  0.63280  1.0000
  C   C1301     1.0  0.87384  0.73462  0.64654  1.0000
  C   C1302     1.0  0.84160  0.71717  0.63103  1.0000
  C   C1303     1.0  0.87435  0.74447  0.61838  1.0000
  C   C1304     1.0  0.84194  0.76421  0.63518  1.0000
  C   C1305     1.0  0.81453  0.76497  0.63467  1.0000
  C   C1306     1.0  0.85432  0.78759  0.63817  1.0000
  C   C1307     1.0  0.80059  0.78771  0.63721  1.0000
  C   C1308     1.0  0.84016  0.81014  0.64075  1.0000
  C   C1309     1.0  0.81336  0.81020  0.64028  1.0000
  H   H1549     1.0  0.86197  0.73345  0.65775  1.0000
  H   H1550     1.0  0.88438  0.71590  0.64564  1.0000
  H   H1551     1.0  0.88878  0.74946  0.64776  1.0000
  H   H1552     1.0  0.82878  0.71279  0.64169  1.0000
  H   H1553     1.0  0.85391  0.69956  0.62963  1.0000
  H   H1554     1.0  0.82974  0.71939  0.62035  1.0000
  H   H1555     1.0  0.88828  0.76039  0.61933  1.0000
  H   H1556     1.0  0.88605  0.72678  0.61612  1.0000
  H   H1557     1.0  0.86277  0.74941  0.60778  1.0000
  H   H1558     1.0  0.80334  0.74819  0.63264  1.0000
  H   H1559     1.0  0.87505  0.78853  0.63885  1.0000
  H   H1560     1.0  0.77967  0.78781  0.63737  1.0000
  H   H1561     1.0  0.84997  0.82754  0.64354  1.0000
  H   H1562     1.0  0.80237  0.82749  0.64280  1.0000
  C   C1310     1.0  0.97271  0.53160  0.63975  1.0000
  C   C1311     1.0  0.67145  0.79578  0.67018  1.0000
  C   C1312     1.0  0.93104  0.54710  0.64816  1.0000
  H   H1563     1.0  0.66084  0.96086  0.71529  1.0000
  N   N86       1.0  0.68087  0.79452  0.65346  1.0000
  Fe  Fe179     1.0  0.51469  0.89534  0.59178  1.0000
  H   H1564     1.0  0.71510  0.81517  0.65851  1.0000
  C   C1313     1.0  0.72529  0.96133  0.72034  1.0000
  H   H1565     1.0  0.66249  0.81496  0.67231  1.0000
  C   C1314     1.0  0.69935  0.81585  0.64994  1.0000
  H   H1566     1.0  0.64303  0.93682  0.60769  1.0000
  C   C1315     1.0  0.00068  0.59329  0.66504  1.0000
  C   C1316     1.0  0.86959  0.55934  0.75551  1.0000
  C   C1317     1.0  0.99110  0.57324  0.65670  1.0000
  H   H1567     1.0  0.57206  0.95377  0.51842  1.0000
  H   H1568     1.0  0.96379  0.51659  0.63293  1.0000
  H   H1569     1.0  0.70874  0.81548  0.63796  1.0000
  H   H1570     1.0  0.52484  0.00338  0.54083  1.0000
  N   N87       1.0  0.61179  0.96372  0.61218  1.0000
  H   H1571     1.0  0.72579  0.95808  0.73343  1.0000
  H   H1572     1.0  0.82791  0.69149  0.72722  1.0000
  C   C1318     1.0  0.58573  0.96226  0.62005  1.0000
  H   H1573     1.0  0.62541  0.93041  0.62638  1.0000
  C   C1319     1.0  0.69633  0.99841  0.72284  1.0000
  H   H1574     1.0  0.85862  0.57939  0.71686  1.0000
  H   H1575     1.0  0.95314  0.63801  0.65878  1.0000
  H   H1576     1.0  0.87114  0.74335  0.73923  1.0000
  H   H1577     1.0  0.96982  0.57022  0.61732  1.0000
  H   H1578     1.0  0.78355  0.72771  0.74706  1.0000
  C   C1320     1.0  0.98701  0.61653  0.66583  1.0000
  H   H1579     1.0  0.93812  0.58135  0.62297  1.0000
  C   C1321     1.0  0.62362  0.93743  0.61375  1.0000
  H   H1580     1.0  0.61176  0.92290  0.60824  1.0000
  H   H1581     1.0  0.95204  0.54345  0.55313  1.0000
  H   H1582     1.0  0.83051  0.77067  0.73798  1.0000
  C   C1322     1.0  0.69557  0.87274  0.75756  1.0000
  H   H1583     1.0  0.99170  0.53602  0.63363  1.0000
  C   C1323     1.0  0.01034  0.52859  0.53540  1.0000
  C   C1324     1.0  0.67288  0.00494  0.73098  1.0000
  H   H1584     1.0  0.59840  0.98912  0.59282  1.0000
  H   H1585     1.0  0.71624  0.99270  0.69399  1.0000
  H   H1586     1.0  0.80090  0.71267  0.72363  1.0000
  H   H1587     1.0  0.65718  0.78039  0.67362  1.0000
  C   C1325     1.0  0.53694  0.99727  0.59481  1.0000
  H   H1588     1.0  0.98153  0.56149  0.55153  1.0000
  H   H1589     1.0  0.62820  0.97256  0.58877  1.0000
  H   H1590     1.0  0.70595  0.96056  0.69186  1.0000
  H   H1591     1.0  0.99417  0.63189  0.67254  1.0000
  H   H1592     1.0  0.93354  0.53956  0.66061  1.0000
  H   H1593     1.0  0.65714  0.99154  0.73291  1.0000
  C   C1326     1.0  0.96724  0.57597  0.64896  1.0000
  N   N88       1.0  0.70045  0.97346  0.71549  1.0000
  H   H1594     1.0  0.99656  0.71568  0.67232  1.0000
  C   C1327     1.0  0.86489  0.57590  0.74187  1.0000
  H   H1595     1.0  0.70626  0.88883  0.76139  1.0000
  H   H1596     1.0  0.92155  0.53181  0.64183  1.0000
  H   H1597     1.0  0.91695  0.56332  0.64845  1.0000
  H   H1598     1.0  0.68261  0.98635  0.69377  1.0000
  H   H1599     1.0  0.57397  0.94675  0.61550  1.0000
  C   C1328     1.0  0.86376  0.53966  0.72539  1.0000
  C   C1329     1.0  0.70129  0.97840  0.69806  1.0000
  H   H1600     1.0  0.58484  0.99654  0.52487  1.0000
  C   C1330     1.0  0.55058  0.85559  0.51650  1.0000
  S   S358      1.0  0.53044  0.85679  0.58464  1.0000
  C   C1331     1.0  0.60900  0.97058  0.59505  1.0000
  C   C1332     1.0  0.52384  0.85825  0.51878  1.0000
  H   H1601     1.0  0.86298  0.59659  0.74252  1.0000
  C   C1333     1.0  0.69491  0.76955  0.65225  1.0000
  C   C1334     1.0  0.66005  0.79690  0.64194  1.0000
  C   C1335     1.0  0.66584  0.79466  0.62557  1.0000
  C   C1336     1.0  0.63394  0.80259  0.64636  1.0000
  C   C1337     1.0  0.64670  0.79766  0.61439  1.0000
  C   C1338     1.0  0.61494  0.80539  0.63507  1.0000
  C   C1339     1.0  0.62130  0.80295  0.61914  1.0000
  H   H1602     1.0  0.70513  0.76810  0.64060  1.0000
  H   H1603     1.0  0.71011  0.76698  0.66122  1.0000
  H   H1604     1.0  0.68536  0.79130  0.62122  1.0000
  H   H1605     1.0  0.62783  0.80592  0.65837  1.0000
  H   H1606     1.0  0.65163  0.79669  0.60189  1.0000
  H   H1607     1.0  0.59534  0.81056  0.63860  1.0000
  H   H1608     1.0  0.60670  0.80621  0.61036  1.0000
  Fe  Fe180     1.0  0.89148  0.52480  0.60391  1.0000
  H   H1609     1.0  0.97924  0.53123  0.56319  1.0000
  H   H1610     1.0  0.86995  0.71013  0.73384  1.0000
  C   C1340     1.0  0.62698  0.98383  0.61918  1.0000
  C   C1341     1.0  0.82370  0.75654  0.72976  1.0000
  C   C1342     1.0  0.96382  0.61993  0.65817  1.0000
  C   C1343     1.0  0.86164  0.72990  0.73162  1.0000
  H   H1611     1.0  0.59801  0.95571  0.58925  1.0000
  H   H1612     1.0  0.93552  0.60342  0.64462  1.0000
  C   C1344     1.0  0.82477  0.72247  0.75091  1.0000
  S   S359      1.0  0.90063  0.52690  0.54337  1.0000
  H   H1613     1.0  0.72847  0.94218  0.71528  1.0000
  H   H1614     1.0  0.68142  0.75298  0.65410  1.0000
  C   C1345     1.0  0.86218  0.56617  0.72706  1.0000
  H   H1615     1.0  0.82940  0.71587  0.71114  1.0000
  C   C1346     1.0  0.97349  0.54166  0.55197  1.0000
  N   N89       1.0  0.95605  0.55507  0.64036  1.0000
  N   N90       1.0  0.83315  0.73003  0.73434  1.0000
  H   H1616     1.0  0.68259  0.99347  0.63885  1.0000
  C   C1347     1.0  0.82232  0.71179  0.72363  1.0000
  C   C1348     1.0  0.86805  0.52278  0.73854  1.0000
  H   H1617     1.0  0.97026  0.52933  0.51337  1.0000
  C   C1349     1.0  0.89968  0.66301  0.75952  1.0000
  H   H1618     1.0  0.97587  0.52240  0.65176  1.0000
  C   C1350     1.0  0.96812  0.54056  0.52409  1.0000
  S   S360      1.0  0.98566  0.52427  0.59900  1.0000
  H   H1619     1.0  0.94696  0.54189  0.52663  1.0000
  C   C1351     1.0  0.66444  0.99797  0.63322  1.0000
  C   C1352     1.0  0.01144  0.68456  0.68753  1.0000
  C   C1353     1.0  0.79811  0.72227  0.75548  1.0000
  H   H1620     1.0  0.97480  0.56070  0.52124  1.0000
  C   C1354     1.0  0.57901  0.99368  0.51295  1.0000
  H   H1621     1.0  0.86144  0.53216  0.71389  1.0000
  H   H1622     1.0  0.73300  0.00126  0.65286  1.0000
  C   C1355     1.0  0.56676  0.01040  0.56731  1.0000
  H   H1623     1.0  0.00775  0.71684  0.71759  1.0000
  H   H1624     1.0  0.54517  0.92270  0.51352  1.0000
  C   C1356     1.0  0.61797  0.00988  0.61867  1.0000
  Fe  Fe181     1.0  0.90423  0.51170  0.56927  1.0000
  H   H1625     1.0  0.88835  0.60655  0.76155  1.0000
  H   H1626     1.0  0.51349  0.87560  0.65097  1.0000
  Fe  Fe182     1.0  0.68317  0.79626  0.83287  1.0000
  S   S361      1.0  0.69000  0.83151  0.81622  1.0000
  S   S362      1.0  0.71846  0.77562  0.84345  1.0000
  Fe  Fe183     1.0  0.62391  0.80662  0.83415  1.0000
  S   S363      1.0  0.62750  0.84209  0.81780  1.0000
  S   S364      1.0  0.58410  0.79549  0.84465  1.0000
  Fe  Fe184     1.0  0.65551  0.81843  0.80382  1.0000
  S   S365      1.0  0.65075  0.81472  0.77767  1.0000
  Fe  Fe185     1.0  0.66139  0.85154  0.83209  1.0000
  S   S366      1.0  0.66554  0.89304  0.83886  1.0000
  S   S367      1.0  0.65017  0.78187  0.81949  1.0000
  S   S368      1.0  0.65634  0.81730  0.84940  1.0000
  Fe  Fe186     1.0  0.66178  0.97421  0.91500  1.0000
  N   N91       1.0  0.57544  0.77640  0.78691  1.0000
  S   S369      1.0  0.66590  0.93236  0.90845  1.0000
  H   H1627     1.0  0.95002  0.70485  0.94895  1.0000
  C   C1357     1.0  0.52361  0.97616  0.92005  1.0000
  C   C1358     1.0  0.52693  0.77685  0.78583  1.0000
  C   C1359     1.0  0.51999  0.00897  0.97926  1.0000
  S   S370      1.0  0.62899  0.98339  0.93177  1.0000
  H   H1628     1.0  0.71505  0.97570  0.98592  1.0000
  Fe  Fe187     1.0  0.83450  0.59371  0.82347  1.0000
  S   S371      1.0  0.87450  0.60804  0.82668  1.0000
  S   S372      1.0  0.83075  0.55404  0.81352  1.0000
  Fe  Fe188     1.0  0.80997  0.64842  0.82819  1.0000
  S   S373      1.0  0.84873  0.66579  0.83197  1.0000
  S   S374      1.0  0.77189  0.67002  0.82312  1.0000
  Fe  Fe189     1.0  0.86291  0.64315  0.81150  1.0000
  S   S375      1.0  0.88993  0.65909  0.79159  1.0000
  Fe  Fe190     1.0  0.85674  0.62891  0.84686  1.0000
  S   S376      1.0  0.87344  0.62438  0.87145  1.0000
  S   S377      1.0  0.82414  0.62773  0.80698  1.0000
  S   S378      1.0  0.81674  0.61268  0.84447  1.0000
  C   C1360     1.0  0.83368  0.70723  0.77830  1.0000
  S   S379      1.0  0.98881  0.64832  0.88898  1.0000
  N   N92       1.0  0.56375  0.99626  0.96796  1.0000
  H   H1629     1.0  0.91153  0.58177  0.76645  1.0000
  H   H1630     1.0  0.91650  0.70859  0.94424  1.0000
  H   H1631     1.0  0.90575  0.70522  0.88321  1.0000
  H   H1632     1.0  0.71185  0.93256  0.00010  1.0000
  C   C1361     1.0  0.51711  0.00233  0.91751  1.0000
  H   H1633     1.0  0.59868  0.75174  0.80250  1.0000
  C   C1362     1.0  0.66830  0.83545  0.76394  1.0000
  C   C1363     1.0  0.53127  0.82869  0.81492  1.0000
  C   C1364     1.0  0.88117  0.65757  0.77176  1.0000
  C   C1365     1.0  0.90623  0.62936  0.87558  1.0000
  C   C1366     1.0  0.91558  0.61978  0.89022  1.0000
  C   C1367     1.0  0.94095  0.62496  0.89444  1.0000
  C   C1368     1.0  0.95713  0.64003  0.88407  1.0000
  C   C1369     1.0  0.94789  0.64937  0.86937  1.0000
  C   C1370     1.0  0.92262  0.64396  0.86509  1.0000
  H   H1634     1.0  0.90299  0.60850  0.89840  1.0000
  H   H1635     1.0  0.94784  0.61742  0.90572  1.0000
  H   H1636     1.0  0.96023  0.66106  0.86126  1.0000
  H   H1637     1.0  0.91560  0.65156  0.85384  1.0000
  H   H1638     1.0  0.84841  0.59123  0.78736  1.0000
  H   H1639     1.0  0.74331  0.83796  0.89241  1.0000
  C   C1371     1.0  0.54958  0.77072  0.79429  1.0000
  C   C1372     1.0  0.54922  0.96802  0.91782  1.0000
  C   C1373     1.0  0.56843  0.98621  0.91350  1.0000
  C   C1374     1.0  0.52295  0.97077  0.96431  1.0000
  H   H1640     1.0  0.51903  0.74418  0.82815  1.0000
  C   C1375     1.0  0.52391  0.83788  0.87652  1.0000
  H   H1641     1.0  0.55427  0.94774  0.91957  1.0000
  H   H1642     1.0  0.58813  0.97986  0.91158  1.0000
  C   C1376     1.0  0.73358  0.87544  0.89925  1.0000
  C   C1377     1.0  0.73354  0.74666  0.83725  1.0000
  C   C1378     1.0  0.75671  0.73800  0.84411  1.0000
  C   C1379     1.0  0.76900  0.71487  0.83979  1.0000
  C   C1380     1.0  0.75809  0.69995  0.82864  1.0000
  C   C1381     1.0  0.73503  0.70873  0.82173  1.0000
  C   C1382     1.0  0.72288  0.73196  0.82593  1.0000
  H   H1643     1.0  0.76514  0.74912  0.85291  1.0000
  H   H1644     1.0  0.78666  0.70837  0.84524  1.0000
  H   H1645     1.0  0.72637  0.69735  0.81313  1.0000
  H   H1646     1.0  0.70509  0.73826  0.82056  1.0000
  C   C1383     1.0  0.54315  0.85029  0.86694  1.0000
  H   H1647     1.0  0.82559  0.53616  0.84713  1.0000
  H   H1648     1.0  0.68262  0.85966  0.78125  1.0000
  C   C1384     1.0  0.66536  0.90349  0.85833  1.0000
  C   C1385     1.0  0.66383  0.93013  0.86051  1.0000
  C   C1386     1.0  0.66350  0.93929  0.87579  1.0000
  C   C1387     1.0  0.66476  0.92185  0.88905  1.0000
  C   C1388     1.0  0.66604  0.89520  0.88688  1.0000
  C   C1389     1.0  0.66654  0.88605  0.87160  1.0000
  H   H1649     1.0  0.66305  0.94376  0.85030  1.0000
  H   H1650     1.0  0.66264  0.95983  0.87731  1.0000
  H   H1651     1.0  0.66736  0.88160  0.89707  1.0000
  H   H1652     1.0  0.66830  0.86555  0.87013  1.0000
  C   C1390     1.0  0.55472  0.82163  0.82194  1.0000
  C   C1391     1.0  0.55479  0.80573  0.83590  1.0000
  C   C1392     1.0  0.53103  0.79778  0.84310  1.0000
  H   H1653     1.0  0.57276  0.82824  0.81642  1.0000
  H   H1654     1.0  0.53086  0.78557  0.85396  1.0000
  C   C1393     1.0  0.82782  0.51948  0.84016  1.0000
  C   C1394     1.0  0.68223  0.85622  0.76882  1.0000
  C   C1395     1.0  0.89542  0.66109  0.92164  1.0000
  H   H1655     1.0  0.52800  0.78585  0.77398  1.0000
  H   H1656     1.0  0.57178  0.98718  0.99246  1.0000
  C   C1396     1.0  0.92028  0.69374  0.90618  1.0000
  S   S380      1.0  0.64979  0.99563  0.97170  1.0000
  H   H1657     1.0  0.73262  0.86927  0.91173  1.0000
  H   H1658     1.0  0.98300  0.66684  0.99960  1.0000
  H   H1659     1.0  0.76919  0.71451  0.77421  1.0000
  C   C1397     1.0  0.90268  0.69331  0.89411  1.0000
  H   H1660     1.0  0.72384  0.92901  0.87497  1.0000
  H   H1661     1.0  0.86172  0.64777  0.91043  1.0000
  C   C1398     1.0  0.52550  0.83622  0.89291  1.0000
  H   H1662     1.0  0.89726  0.54060  0.78123  1.0000
  C   C1399     1.0  0.80739  0.70713  0.78234  1.0000
  H   H1663     1.0  0.93242  0.63848  0.94202  1.0000
  H   H1664     1.0  0.94143  0.71946  0.93017  1.0000
  H   H1665     1.0  0.56412  0.80780  0.77023  1.0000
  C   C1400     1.0  0.64477  0.00004  0.00388  1.0000
  S   S381      1.0  0.00326  0.66242  0.96760  1.0000
  H   H1666     1.0  0.84742  0.70092  0.78716  1.0000
  H   H1667     1.0  0.88084  0.55974  0.79541  1.0000
  H   H1668     1.0  0.77036  0.82027  0.87321  1.0000
  H   H1669     1.0  0.96941  0.68837  0.91704  1.0000
  H   H1670     1.0  0.56613  0.76229  0.76445  1.0000
  Fe  Fe191     1.0  0.65693  0.00586  0.94505  1.0000
  C   C1401     1.0  0.00286  0.66037  0.00031  1.0000
  C   C1402     1.0  0.72825  0.90115  0.89456  1.0000
  C   C1403     1.0  0.54650  0.84690  0.89982  1.0000
  N   N93       1.0  0.58689  0.87232  0.86380  1.0000
  C   C1404     1.0  0.60966  0.85513  0.86593  1.0000
  C   C1405     1.0  0.58198  0.87496  0.84660  1.0000
  C   C1406     1.0  0.59330  0.89837  0.86874  1.0000
  C   C1407     1.0  0.56498  0.86118  0.87359  1.0000
  C   C1408     1.0  0.71411  0.97391  0.99876  1.0000
  C   C1409     1.0  0.56603  0.85912  0.89034  1.0000
  H   H1671     1.0  0.59374  0.78439  0.80845  1.0000
  N   N94       1.0  0.87206  0.57023  0.77109  1.0000
  S   S382      1.0  0.00032  0.61617  0.93481  1.0000
  H   H1672     1.0  0.60510  0.83492  0.86331  1.0000
  H   H1673     1.0  0.62606  0.86166  0.85789  1.0000
  H   H1674     1.0  0.61665  0.85443  0.87819  1.0000
  H   H1675     1.0  0.56451  0.88700  0.84412  1.0000
  H   H1676     1.0  0.57968  0.85573  0.84173  1.0000
  H   H1677     1.0  0.59852  0.88416  0.83962  1.0000
  H   H1678     1.0  0.60105  0.89781  0.88081  1.0000
  H   H1679     1.0  0.60875  0.90766  0.86086  1.0000
  H   H1680     1.0  0.57610  0.91140  0.86847  1.0000
  C   C1410     1.0  0.85633  0.65051  0.76796  1.0000
  H   H1681     1.0  0.58243  0.86619  0.89622  1.0000
  H   H1682     1.0  0.67781  0.00427  0.86047  1.0000
  H   H1683     1.0  0.83139  0.56801  0.77717  1.0000
  C   C1411     1.0  0.76902  0.85647  0.84901  1.0000
  N   N95       1.0  0.74673  0.84691  0.85916  1.0000
  H   H1684     1.0  0.94711  0.65900  0.95514  1.0000
  C   C1412     1.0  0.75336  0.82035  0.86558  1.0000
  C   C1413     1.0  0.72415  0.84485  0.84915  1.0000
  C   C1414     1.0  0.74056  0.86519  0.87150  1.0000
  C   C1415     1.0  0.73471  0.89149  0.86716  1.0000
  C   C1416     1.0  0.59668  0.77234  0.79812  1.0000
  C   C1417     1.0  0.72882  0.90916  0.87856  1.0000
  H   H1685     1.0  0.57424  0.95579  0.96981  1.0000
  H   H1686     1.0  0.78609  0.85954  0.85621  1.0000
  H   H1687     1.0  0.51610  0.92212  0.87983  1.0000
  H   H1688     1.0  0.57971  0.73854  0.77821  1.0000
  H   H1689     1.0  0.59999  0.76277  0.76807  1.0000
  H   H1690     1.0  0.86318  0.53618  0.78630  1.0000
  H   H1691     1.0  0.75829  0.80726  0.85596  1.0000
  H   H1692     1.0  0.73671  0.81106  0.87236  1.0000
  H   H1693     1.0  0.70692  0.83800  0.85639  1.0000
  H   H1694     1.0  0.71879  0.86356  0.84287  1.0000
  H   H1695     1.0  0.72796  0.83081  0.83994  1.0000
  H   H1696     1.0  0.73407  0.89852  0.85488  1.0000
  H   H1697     1.0  0.53281  0.95750  0.95679  1.0000
  S   S383      1.0  0.65438  0.00882  0.89847  1.0000
  C   C1418     1.0  0.58050  0.75926  0.77382  1.0000
  H   H1698     1.0  0.77478  0.84254  0.84000  1.0000
  N   N96       1.0  0.93653  0.67803  0.93277  1.0000
  H   H1699     1.0  0.97743  0.67206  0.93534  1.0000
  C   C1419     1.0  0.96278  0.67308  0.92602  1.0000
  H   H1700     1.0  0.91315  0.66178  0.95255  1.0000
  C   C1420     1.0  0.91736  0.67744  0.92027  1.0000
  C   C1421     1.0  0.52132  0.75299  0.81623  1.0000
  H   H1701     1.0  0.63572  0.98133  0.00411  1.0000
  C   C1422     1.0  0.87875  0.55070  0.78395  1.0000
  H   H1702     1.0  0.89470  0.59881  0.78169  1.0000
  H   H1703     1.0  0.54083  0.85029  0.85433  1.0000
  H   H1704     1.0  0.56193  0.75306  0.81717  1.0000
  C   C1423     1.0  0.93193  0.65843  0.94617  1.0000
  H   H1705     1.0  0.93645  0.70664  0.90424  1.0000
  H   H1706     1.0  0.96350  0.65453  0.92014  1.0000
  H   H1707     1.0  0.53148  0.84055  0.80392  1.0000
  H   H1708     1.0  0.80073  0.70094  0.79429  1.0000
  C   C1424     1.0  0.88150  0.67700  0.89579  1.0000
  C   C1425     1.0  0.73967  0.85760  0.88795  1.0000
  C   C1426     1.0  0.54602  0.75831  0.80970  1.0000
  C   C1427     1.0  0.84720  0.58245  0.77580  1.0000
  C   C1428     1.0  0.57584  0.00246  0.98286  1.0000
  C   C1429     1.0  0.87785  0.66099  0.90951  1.0000
  S   S384      1.0  0.69061  0.99418  0.92913  1.0000
  H   H1709     1.0  0.57112  0.81724  0.78956  1.0000
  H   H1710     1.0  0.99464  0.54007  0.98805  1.0000
  H   H1711     1.0  0.76465  0.87501  0.84224  1.0000
  H   H1712     1.0  0.89159  0.64783  0.93178  1.0000
  H   H1713     1.0  0.72290  0.91479  0.90333  1.0000
  H   H1714     1.0  0.84169  0.64695  0.77718  1.0000
  C   C1430     1.0  0.93607  0.70387  0.93930  1.0000
  H   H1715     1.0  0.61576  0.77766  0.79240  1.0000
  H   H1716     1.0  0.57290  0.96996  0.94970  1.0000
  H   H1717     1.0  0.98677  0.58274  0.99924  1.0000
  H   H1718     1.0  0.59657  0.80900  0.77587  1.0000
  C   C1431     1.0  0.57672  0.80371  0.78038  1.0000
  C   C1432     1.0  0.83098  0.52298  0.82369  1.0000
  H   H1719     1.0  0.86831  0.67609  0.88620  1.0000
  H   H1720     1.0  0.00263  0.59746  0.98161  1.0000
  H   H1721     1.0  0.54797  0.84515  0.91258  1.0000
  H   H1722     1.0  0.51748  0.89336  0.89284  1.0000
  C   C1433     1.0  0.00580  0.58874  0.99378  1.0000
  H   H1723     1.0  0.01056  0.55609  0.97123  1.0000
  C   C1434     1.0  0.84239  0.71467  0.76284  1.0000
  C   C1435     1.0  0.57797  0.97356  0.96200  1.0000
  C   C1436     1.0  0.71426  0.99599  0.00722  1.0000
  C   C1437     1.0  0.71215  0.94965  0.00679  1.0000
  C   C1438     1.0  0.53571  0.99165  0.97068  1.0000
  H   H1724     1.0  0.59926  0.97647  0.96153  1.0000
  C   C1439     1.0  0.89254  0.59011  0.77013  1.0000
  C   C1440     1.0  0.78964  0.71471  0.77096  1.0000
  Fe  Fe192     1.0  0.01073  0.63617  0.91109  1.0000
  H   H1725     1.0  0.84109  0.59805  0.76710  1.0000
  H   H1726     1.0  0.59721  0.00406  0.98132  1.0000
  H   H1727     1.0  0.87383  0.51817  0.76313  1.0000
  H   H1728     1.0  0.91894  0.66853  0.76234  1.0000
