data_image0
_chemical_formula_structural       FeS2FeS2FeSFeS3FeS2FeS2FeSFeS3FeS2FeS2FeSFeS3C4H3C4HC6H4C4HC3H2CH4C6H4C3H2CH3CH8C2H3C2H3C5HNC9H14NC4HC3H11C2HCNH2CNH2C5HCH3C2H2CH3CHNH3CHCH2C2HC2HC3H2CH3CHCHCHC2H2C2FeS2FeS2FeSFeS3FeS2FeS2FeSFeS3HFeS2FeS2FeSFeS3CH4C3H2C5HCHCH2C6H4C6H5C3HC2H2C4H2CNHC2HC2H2C2H11CH3C5NHCHCH5CH7NCNC2HCH4CH8CH5CHC2HCH4NHCH2CHC3H7NHCH2C3H3CNC2HC3H3CHCHCH2C2H3NC5HC2H5CHC2HFeS2FeS2FeSFeS3FeS2FeS2FeSFeS3FeS2FeS2FeSFeS3CHCH7C3HCHNHC2H2C2HCH2C6H4C2H2C4H2C2H3C6H4CHC2H2NC8H6CHNC5H2CHCHCNCHC2H2CHNC9H16C2H3CHSH9CH2C3HC2H5NH3C2H2CHCHC5H4CH2CHCHCHCH2C2HFeS2FeS2FeSFeS3FeS2FeS2FeSFeS3FeS2FeS2FeSFeS3CH2CHC5H7NC6H4C6H4C3H3C2H2C3HCHC2H2C3H4CHC2HC2H2CHCH3CH2C3HC2H2CHCH2C3HCH2C2HC2H5NH3CHCH2C2HNC8H8NHCHCH4NC5H3NC3HCH7CHC2H3CH8C2HCHC3HC3H3FeSFeS2FeSFeS3FeS2FeS2FeSFeS3CHCH2C3HCSCH2CH2C6H4C5H5C3H2C3HCH4CH5NC4H3CNC8H6CH3CNC6H2CH16C4HC3H5NC2HFeS2FeS2Fe2S3FeS2FeS2FeSFeS3CHCH2C7SHC5H2C6H5C3H2CHCHCH2CH2NH3NHC5H3CHCHCH3C2HCH3CH2CHCHNC8H4C2H3CHC3HC3H5CH10C2HC2H2CH7CHCH2C3H5CFeSHFeS2FeSFeS3FeS2FeSHFeSFeS3HCHCHC2HCH5CHC6H5C2H2C3HNH2CNH3C4H2CH3CH3CH2SCHNCHC2HCHCH2CH3CHCH2CH4CHFeS2FeS2FeSFeS3FeSHFeS2FeSFeS3C2HC6H6CSC2H2CH2CHC2H2C2H7CH3CH3CHC2H2C4H3CHCH7CH2NCHC2H2C2NC2NCH2CH3C2HC2HCHC2FeS2FeS2FeSFeS3FeS2FeS2FeSFeS3FeS2FeS2FeSFeS3CHC2HCH2CHC6H4C3H2C6H7C6HCHC2HCH3C3HC5H4CHCNH3CH2C2HCH4CNC4H14CH5CH2CHCHNHCHCNH4NC4H3C2H3CH2CH10C2NC9H2CHCH4C2H2CHCH3NCHNHCHC3HC3HC5H8CH2CH4CH2CHCH3C2FeS2FeS2FeSFeS3FeS2FeS2FeSFeS3FeS2FeS2FeSFeS3C6H4C6H4CH2C7H4C3HCH2C2HC3H5CH3C3H2CHCNHCH2NC9H11C2HCNC5H9CH4CH3C2HCH2C3H2NH2CHCH2C2H5CH2NC5NH2CH2CH2CH5C2H4C2H7C2HCHC2H2C2HCHCH3CHCH4CH2C3NCH2C3FeS2FeS2FeSFeS3FeS2FeS2FeSFeS3FeS2FeS2FeSFeS3C2H2C4H2C3H2C2HC7H4C3H2C3HC2H2CHC6H5C2H2CHC2HCH2CH2C2H2C2HC2NH2NC4H3CH11CH3NC4H9C2HCHC2HCHNCH5CH6C3HCH2CH3CNC7H2CHCH2CHCH2CH2CHCHCH2CH2CHNH2CH3CHC2H3CH2CHC2HCH2CH2CHC3H2CHFeS2FeS2FeSFeS3FeS2FeS2FeSFeS3FeS2FeS2FeSFeS3C2HC3H4C6H4C6H5C5H2C2NH3C2H2C3H4CHCHCH2CHC3H3C3HC2HC2HC2H4NC9H12CH3CHCHC2H4CHC2NHCH5NC3HCH4CH5C2H3C3NC9H14C2H2C2H2CHCH2CH3CHCH4C3
_chemical_formula_sum              "Fe128 S256 C960 H1152 N64"
_cell_length_a       67.4134
_cell_length_b       67.3671
_cell_length_c       39.5939
_cell_angle_alpha    90.254
_cell_angle_beta     90.15
_cell_angle_gamma    85.0081

_space_group_name_H-M_alt    "P 1"
_space_group_IT_number       1

loop_
  _space_group_symop_operation_xyz
  'x, y, z'

loop_
  _atom_site_type_symbol
  _atom_site_label
  _atom_site_symmetry_multiplicity
  _atom_site_fract_x
  _atom_site_fract_y
  _atom_site_fract_z
  _atom_site_occupancy
  Fe  Fe1       1.0  0.25623  0.12799  0.20770  1.0000
  S   S1        1.0  0.22848  0.11800  0.23145  1.0000
  S   S2        1.0  0.27811  0.13692  0.24836  1.0000
  Fe  Fe2       1.0  0.24061  0.11991  0.13562  1.0000
  S   S3        1.0  0.21213  0.10909  0.15534  1.0000
  S   S4        1.0  0.25161  0.11660  0.08057  1.0000
  Fe  Fe3       1.0  0.21114  0.13553  0.19147  1.0000
  S   S5        1.0  0.18072  0.15384  0.19901  1.0000
  Fe  Fe4       1.0  0.23152  0.09264  0.19421  1.0000
  S   S6        1.0  0.23173  0.06168  0.21697  1.0000
  S   S7        1.0  0.23872  0.14738  0.16929  1.0000
  S   S8        1.0  0.26012  0.10164  0.17285  1.0000
  Fe  Fe5       1.0  0.10898  0.23273  0.32107  1.0000
  S   S9        1.0  0.11864  0.26140  0.34336  1.0000
  S   S10       1.0  0.13482  0.20794  0.31450  1.0000
  Fe  Fe6       1.0  0.06503  0.25059  0.31668  1.0000
  S   S11       1.0  0.07262  0.28001  0.33760  1.0000
  S   S12       1.0  0.03314  0.25263  0.29655  1.0000
  Fe  Fe7       1.0  0.09918  0.27710  0.30340  1.0000
  S   S13       1.0  0.11001  0.29803  0.26306  1.0000
  Fe  Fe8       1.0  0.09113  0.26181  0.37610  1.0000
  S   S14       1.0  0.08488  0.27254  0.43082  1.0000
  S   S15       1.0  0.09070  0.24846  0.28006  1.0000
  S   S16       1.0  0.08233  0.23232  0.35644  1.0000
  Fe  Fe9       1.0  0.07461  0.45379  0.16557  1.0000
  S   S17       1.0  0.06805  0.44433  0.11267  1.0000
  S   S18       1.0  0.06356  0.48626  0.17628  1.0000
  Fe  Fe10      1.0  0.08780  0.41003  0.18680  1.0000
  S   S19       1.0  0.08245  0.39790  0.13482  1.0000
  S   S20       1.0  0.09268  0.39161  0.23515  1.0000
  Fe  Fe11      1.0  0.09655  0.42487  0.11618  1.0000
  S   S21       1.0  0.11573  0.42557  0.06963  1.0000
  Fe  Fe12      1.0  0.05454  0.41853  0.13543  1.0000
  S   S22       1.0  0.02604  0.40853  0.11448  1.0000
  S   S23       1.0  0.10442  0.43587  0.16814  1.0000
  S   S24       1.0  0.05869  0.42907  0.18842  1.0000
  C   C1        1.0  0.04884  0.33736  0.23662  1.0000
  C   C2        1.0  0.10201  0.42253  0.03226  1.0000
  C   C3        1.0  0.08288  0.41611  0.03387  1.0000
  C   C4        1.0  0.21322  0.13208  0.00249  1.0000
  H   H1        1.0  0.07663  0.41251  0.05797  1.0000
  H   H2        1.0  0.01983  0.43359  0.05165  1.0000
  H   H3        1.0  0.02125  0.27302  0.35949  1.0000
  C   C5        1.0  0.09375  0.26580  0.47204  1.0000
  C   C6        1.0  0.21782  0.07832  0.01891  1.0000
  C   C7        1.0  0.10949  0.25121  0.47763  1.0000
  C   C8        1.0  0.33172  0.13047  0.29711  1.0000
  H   H4        1.0  0.11687  0.24372  0.45629  1.0000
  C   C9        1.0  0.10411  0.32396  0.25556  1.0000
  C   C10       1.0  0.10694  0.33154  0.22298  1.0000
  C   C11       1.0  0.10327  0.35210  0.21608  1.0000
  C   C12       1.0  0.09720  0.36546  0.24198  1.0000
  C   C13       1.0  0.09444  0.35788  0.27459  1.0000
  C   C14       1.0  0.09760  0.33726  0.28128  1.0000
  H   H5        1.0  0.11206  0.32144  0.20290  1.0000
  H   H6        1.0  0.10555  0.35765  0.19092  1.0000
  H   H7        1.0  0.08982  0.36805  0.29489  1.0000
  H   H8        1.0  0.09551  0.33174  0.30652  1.0000
  C   C15       1.0  0.24039  0.11997  0.03986  1.0000
  C   C16       1.0  0.32117  0.03961  0.27299  1.0000
  C   C17       1.0  0.22112  0.12909  0.03536  1.0000
  C   C18       1.0  0.07699  0.36493  0.00378  1.0000
  H   H9        1.0  0.21240  0.13409  0.05717  1.0000
  C   C19       1.0  0.30397  0.13103  0.25664  1.0000
  C   C20       1.0  0.31732  0.12320  0.23194  1.0000
  C   C21       1.0  0.08440  0.27538  0.50024  1.0000
  H   H10       1.0  0.15522  0.28433  0.23488  1.0000
  H   H11       1.0  0.04146  0.39767  0.23903  1.0000
  C   C22       1.0  0.31134  0.13459  0.28922  1.0000
  H   H12       1.0  0.31196  0.12047  0.20672  1.0000
  H   H13       1.0  0.14040  0.23371  0.25247  1.0000
  H   H14       1.0  0.31427  0.02665  0.26414  1.0000
  H   H15       1.0  0.30120  0.14067  0.30854  1.0000
  C   C23       1.0  0.16822  0.16866  0.23173  1.0000
  C   C24       1.0  0.17612  0.17032  0.26428  1.0000
  C   C25       1.0  0.16554  0.18211  0.28918  1.0000
  C   C26       1.0  0.14700  0.19265  0.28205  1.0000
  C   C27       1.0  0.13911  0.19099  0.24947  1.0000
  C   C28       1.0  0.14961  0.17906  0.22466  1.0000
  H   H16       1.0  0.19038  0.16251  0.27035  1.0000
  H   H17       1.0  0.17190  0.18319  0.31418  1.0000
  H   H18       1.0  0.12487  0.19885  0.24337  1.0000
  H   H19       1.0  0.14325  0.17798  0.19967  1.0000
  C   C29       1.0  0.22944  0.02132  0.21272  1.0000
  C   C30       1.0  0.22376  0.03988  0.19788  1.0000
  C   C31       1.0  0.21094  0.04069  0.16998  1.0000
  H   H20       1.0  0.23925  0.02054  0.23442  1.0000
  H   H21       1.0  0.20629  0.05489  0.15857  1.0000
  C   C32       1.0  0.01186  0.22626  0.33317  1.0000
  H   H22       1.0  0.09374  0.48308  0.11873  1.0000
  H   H23       1.0  0.09035  0.46311  0.05140  1.0000
  H   H24       1.0  0.06227  0.36566  0.01493  1.0000
  C   C33       1.0  0.22228  0.00371  0.20006  1.0000
  H   H25       1.0  0.05517  0.37574  0.25404  1.0000
  H   H26       1.0  0.26786  0.15672  0.05183  1.0000
  H   H27       1.0  0.06320  0.34316  0.23462  1.0000
  H   H28       1.0  0.26641  0.10664  0.01415  1.0000
  H   H29       1.0  0.17676  0.28244  0.26285  1.0000
  H   H30       1.0  0.15196  0.28362  0.27921  1.0000
  H   H31       1.0  0.19307  0.02392  0.13683  1.0000
  H   H32       1.0  0.23338  0.07223  0.06572  1.0000
  C   C34       1.0  0.00798  0.43325  0.16223  1.0000
  C   C35       1.0  0.02144  0.27251  0.44510  1.0000
  H   H33       1.0  0.13616  0.48796  0.05964  1.0000
  H   H34       1.0  0.20985  0.22042  0.15974  1.0000
  H   H35       1.0  0.00963  0.20793  0.46846  1.0000
  C   C36       1.0  0.01161  0.43148  0.02846  1.0000
  C   C37       1.0  0.01267  0.32065  0.24342  1.0000
  H   H36       1.0  0.18395  0.27362  0.20650  1.0000
  H   H37       1.0  0.16760  0.23129  0.29314  1.0000
  H   H38       1.0  0.17119  0.21545  0.24361  1.0000
  C   C38       1.0  0.03042  0.30936  0.25107  1.0000
  C   C39       1.0  0.18545  0.25754  0.20636  1.0000
  C   C40       1.0  0.14171  0.25000  0.25082  1.0000
  C   C41       1.0  0.01561  0.27220  0.38506  1.0000
  C   C42       1.0  0.10755  0.48118  0.10339  1.0000
  H   H39       1.0  0.07358  0.48255  0.06813  1.0000
  N   N1        1.0  0.16382  0.09207  0.22089  1.0000
  C   C43       1.0  0.18263  0.09807  0.23586  1.0000
  C   C44       1.0  0.16269  0.09960  0.18568  1.0000
  C   C45       1.0  0.14712  0.10215  0.24054  1.0000
  C   C46       1.0  0.16245  0.07023  0.22082  1.0000
  C   C47       1.0  0.17758  0.05648  0.23444  1.0000
  C   C48       1.0  0.14573  0.06205  0.20604  1.0000
  C   C49       1.0  0.17620  0.03592  0.23239  1.0000
  C   C50       1.0  0.14455  0.04143  0.20404  1.0000
  C   C51       1.0  0.15987  0.02839  0.21691  1.0000
  H   H40       1.0  0.19582  0.09129  0.22181  1.0000
  H   H41       1.0  0.18337  0.11455  0.23509  1.0000
  H   H42       1.0  0.18418  0.09371  0.26288  1.0000
  H   H43       1.0  0.17414  0.09132  0.16954  1.0000
  H   H44       1.0  0.16520  0.11573  0.18440  1.0000
  H   H45       1.0  0.14794  0.09817  0.17384  1.0000
  H   H46       1.0  0.14723  0.09659  0.26699  1.0000
  H   H47       1.0  0.14807  0.11862  0.24160  1.0000
  H   H48       1.0  0.13237  0.09980  0.22939  1.0000
  H   H49       1.0  0.19093  0.06112  0.24612  1.0000
  H   H50       1.0  0.13356  0.07156  0.19549  1.0000
  H   H51       1.0  0.18819  0.02569  0.24206  1.0000
  H   H52       1.0  0.13183  0.03549  0.19213  1.0000
  H   H53       1.0  0.15923  0.01240  0.21468  1.0000
  N   N2        1.0  0.29049  0.06176  0.25739  1.0000
  C   C52       1.0  0.27709  0.05016  0.27766  1.0000
  C   C53       1.0  0.28191  0.08285  0.25745  1.0000
  C   C54       1.0  0.29040  0.05458  0.22190  1.0000
  C   C55       1.0  0.31099  0.05897  0.27125  1.0000
  H   H54       1.0  0.03021  0.29409  0.25975  1.0000
  C   C56       1.0  0.01129  0.24261  0.31138  1.0000
  C   C57       1.0  0.16904  0.24752  0.29044  1.0000
  C   C58       1.0  0.03110  0.34937  0.22870  1.0000
  H   H55       1.0  0.19256  0.19982  0.19988  1.0000
  H   H56       1.0  0.26137  0.05252  0.26875  1.0000
  H   H57       1.0  0.28119  0.03385  0.27612  1.0000
  H   H58       1.0  0.27738  0.05462  0.30476  1.0000
  H   H59       1.0  0.28115  0.08936  0.28336  1.0000
  H   H60       1.0  0.26641  0.08440  0.24734  1.0000
  H   H61       1.0  0.29066  0.09231  0.24121  1.0000
  H   H62       1.0  0.30082  0.06251  0.20612  1.0000
  H   H63       1.0  0.29476  0.03834  0.21971  1.0000
  H   H64       1.0  0.27530  0.05709  0.21028  1.0000
  H   H65       1.0  0.03021  0.22402  0.42664  1.0000
  C   C59       1.0  0.05269  0.23019  0.46286  1.0000
  C   C60       1.0  0.20345  0.02311  0.15774  1.0000
  H   H66       1.0  0.13617  0.25508  0.22552  1.0000
  C   C61       1.0  0.19066  0.21598  0.20175  1.0000
  N   N3        1.0  0.03203  0.37034  0.21804  1.0000
  H   H67       1.0  0.20524  0.25724  0.16356  1.0000
  H   H68       1.0  0.12105  0.48646  0.02177  1.0000
  C   C62       1.0  0.20903  0.00455  0.17279  1.0000
  N   N4        1.0  0.10452  0.48886  0.06851  1.0000
  H   H69       1.0  0.02167  0.44036  0.16351  1.0000
  H   H70       1.0  0.13127  0.25713  0.26984  1.0000
  C   C63       1.0  0.01288  0.34038  0.23240  1.0000
  C   C64       1.0  0.09354  0.36630  0.02453  1.0000
  C   C65       1.0  0.32141  0.07504  0.28344  1.0000
  C   C66       1.0  0.16172  0.27735  0.25833  1.0000
  C   C67       1.0  0.17551  0.24612  0.23009  1.0000
  H   H71       1.0  0.15993  0.25472  0.31127  1.0000
  C   C68       1.0  0.04543  0.37123  0.18845  1.0000
  H   H72       1.0  0.06162  0.23737  0.44448  1.0000
  H   H73       1.0  0.11229  0.46491  0.10364  1.0000
  H   H74       1.0  0.12541  0.46548  0.04885  1.0000
  C   C69       1.0  0.12259  0.48205  0.04877  1.0000
  C   C70       1.0  0.24695  0.05517  0.02443  1.0000
  H   H75       1.0  0.18490  0.25009  0.29515  1.0000
  H   H76       1.0  0.09168  0.36806  0.05161  1.0000
  C   C71       1.0  0.19773  0.24829  0.18136  1.0000
  H   H77       1.0  0.04515  0.38658  0.17803  1.0000
  H   H78       1.0  0.25855  0.04785  0.04018  1.0000
  H   H79       1.0  0.03172  0.27355  0.46605  1.0000
  C   C72       1.0  0.17843  0.22508  0.22682  1.0000
  H   H80       1.0  0.02606  0.21952  0.34206  1.0000
  N   N5        1.0  0.16232  0.25524  0.25685  1.0000
  H   H81       1.0  0.04417  0.27528  0.40767  1.0000
  H   H82       1.0  0.12521  0.36753  0.02659  1.0000
  H   H83       1.0  0.06231  0.30891  0.25368  1.0000
  C   C73       1.0  0.20035  0.22757  0.17911  1.0000
  H   H84       1.0  0.10633  0.49224  0.18041  1.0000
  C   C74       1.0  0.02343  0.21369  0.47645  1.0000
  H   H85       1.0  0.06129  0.36690  0.19485  1.0000
  H   H86       1.0  0.03035  0.38179  0.26890  1.0000
  C   C75       1.0  0.03499  0.22270  0.45280  1.0000
  C   C76       1.0  0.05895  0.22859  0.49650  1.0000
  H   H87       1.0  0.20697  0.08916  0.03030  1.0000
  C   C77       1.0  0.08745  0.47963  0.05312  1.0000
  C   C78       1.0  0.02857  0.27347  0.41222  1.0000
  H   H88       1.0  0.07224  0.28671  0.49625  1.0000
  C   C79       1.0  0.04848  0.31770  0.24763  1.0000
  C   C80       1.0  0.23269  0.06876  0.03896  1.0000
  C   C81       1.0  0.25149  0.11368  0.01100  1.0000
  H   H89       1.0  0.08438  0.48532  0.02712  1.0000
  H   H90       1.0  0.31505  0.09031  0.28306  1.0000
  C   C82       1.0  0.04003  0.38187  0.24620  1.0000
  H   H91       1.0  0.11918  0.48896  0.11689  1.0000
  H   H92       1.0  0.04101  0.36134  0.16767  1.0000
  H   H93       1.0  0.23636  0.17049  0.02585  1.0000
  C   C83       1.0  0.01239  0.38049  0.20837  1.0000
  H   H94       1.0  0.01374  0.39614  0.20031  1.0000
  C   C84       1.0  0.11243  0.36603  0.01035  1.0000
  H   H95       1.0  0.02267  0.50174  0.15989  1.0000
  C   C85       1.0  0.24937  0.16713  0.01008  1.0000
  H   H96       1.0  0.05739  0.40825  0.00568  1.0000
  C   C86       1.0  0.07193  0.41380  0.00417  1.0000
  C   C87       1.0  0.26713  0.15936  0.02480  1.0000
  H   H97       1.0  0.29732  0.14774  0.01621  1.0000
  H   H98       1.0  0.00569  0.37286  0.18669  1.0000
  C   C88       1.0  0.00571  0.41821  0.13847  1.0000
  C   C89       1.0  0.28367  0.15418  0.00461  1.0000
  Fe  Fe13      1.0  0.09950  0.25321  0.63187  1.0000
  S   S25       1.0  0.09111  0.22530  0.65707  1.0000
  S   S26       1.0  0.11504  0.24929  0.58047  1.0000
  Fe  Fe14      1.0  0.08469  0.27971  0.69262  1.0000
  S   S27       1.0  0.07487  0.25344  0.72136  1.0000
  S   S28       1.0  0.07641  0.31241  0.70681  1.0000
  Fe  Fe15      1.0  0.10423  0.23714  0.70472  1.0000
  S   S29       1.0  0.12722  0.22173  0.74168  1.0000
  Fe  Fe16      1.0  0.06263  0.24363  0.67146  1.0000
  S   S30       1.0  0.03293  0.23327  0.65389  1.0000
  S   S31       1.0  0.11449  0.26424  0.67867  1.0000
  S   S32       1.0  0.07069  0.27076  0.64358  1.0000
  Fe  Fe17      1.0  0.22198  0.12286  0.87804  1.0000
  S   S33       1.0  0.20081  0.10570  0.84738  1.0000
  S   S34       1.0  0.21364  0.13074  0.93290  1.0000
  Fe  Fe18      1.0  0.24979  0.12695  0.81760  1.0000
  S   S35       1.0  0.23068  0.11008  0.78342  1.0000
  S   S36       1.0  0.27611  0.14211  0.79661  1.0000
  Fe  Fe19      1.0  0.20424  0.12829  0.80601  1.0000
  S   S37       1.0  0.17902  0.13816  0.76851  1.0000
  Fe  Fe20      1.0  0.22860  0.08910  0.82702  1.0000
  S   S38       1.0  0.23657  0.05591  0.81878  1.0000
  S   S39       1.0  0.22350  0.14655  0.83799  1.0000
  S   S40       1.0  0.24961  0.10484  0.86004  1.0000
  H   H99       1.0  0.15065  0.20947  0.64108  1.0000
  Fe  Fe21      1.0  0.07548  0.42391  0.88447  1.0000
  S   S41       1.0  0.10656  0.42362  0.86467  1.0000
  S   S42       1.0  0.06522  0.41512  0.93625  1.0000
  Fe  Fe22      1.0  0.05786  0.43643  0.81657  1.0000
  S   S43       1.0  0.08766  0.43694  0.79116  1.0000
  S   S44       1.0  0.02820  0.44452  0.79197  1.0000
  Fe  Fe23      1.0  0.09522  0.40785  0.81883  1.0000
  S   S45       1.0  0.11168  0.37815  0.80218  1.0000
  Fe  Fe24      1.0  0.09600  0.45251  0.83920  1.0000
  S   S46       1.0  0.11361  0.47918  0.84975  1.0000
  S   S47       1.0  0.06483  0.40652  0.84053  1.0000
  S   S48       1.0  0.06564  0.45369  0.86242  1.0000
  C   C90       1.0  0.33339  0.01865  0.71467  1.0000
  H   H100      1.0  0.12742  0.37914  0.91507  1.0000
  H   H101      1.0  0.29565  0.15221  0.95502  1.0000
  H   H102      1.0  0.17829  0.01949  0.84793  1.0000
  H   H103      1.0  0.17365  0.24623  0.58116  1.0000
  C   C91       1.0  0.07919  0.36364  0.96868  1.0000
  C   C92       1.0  0.22341  0.03459  0.82551  1.0000
  C   C93       1.0  0.20359  0.03588  0.83640  1.0000
  H   H104      1.0  0.10319  0.33866  0.58805  1.0000
  H   H105      1.0  0.19574  0.05025  0.84139  1.0000
  C   C94       1.0  0.32209  0.06057  0.73557  1.0000
  C   C95       1.0  0.29924  0.13106  0.78055  1.0000
  C   C96       1.0  0.30890  0.14084  0.75477  1.0000
  C   C97       1.0  0.24431  0.17632  0.90407  1.0000
  C   C98       1.0  0.20650  0.03269  0.74141  1.0000
  H   H106      1.0  0.23186  0.16700  0.90985  1.0000
  C   C99       1.0  0.30913  0.11405  0.79513  1.0000
  H   H107      1.0  0.30153  0.15412  0.74353  1.0000
  C   C100      1.0  0.11010  0.30144  0.60399  1.0000
  H   H108      1.0  0.22093  0.03740  0.73514  1.0000
  H   H109      1.0  0.30208  0.10652  0.81531  1.0000
  C   C101      1.0  0.08642  0.33003  0.73444  1.0000
  C   C102      1.0  0.10499  0.32644  0.75025  1.0000
  C   C103      1.0  0.11249  0.34128  0.77089  1.0000
  C   C104      1.0  0.10149  0.35980  0.77625  1.0000
  C   C105      1.0  0.08289  0.36329  0.76062  1.0000
  C   C106      1.0  0.07550  0.34856  0.73973  1.0000
  H   H110      1.0  0.11360  0.31230  0.74651  1.0000
  H   H111      1.0  0.12690  0.33841  0.78282  1.0000
  H   H112      1.0  0.07426  0.37744  0.76433  1.0000
  H   H113      1.0  0.06117  0.35157  0.72758  1.0000
  C   C107      1.0  0.14157  0.19833  0.74814  1.0000
  C   C108      1.0  0.15549  0.19663  0.77485  1.0000
  C   C109      1.0  0.16718  0.17853  0.78124  1.0000
  C   C110      1.0  0.16511  0.16171  0.76106  1.0000
  C   C111      1.0  0.15133  0.16347  0.73410  1.0000
  C   C112      1.0  0.13972  0.18161  0.72757  1.0000
  H   H114      1.0  0.15713  0.20938  0.79101  1.0000
  H   H115      1.0  0.17762  0.17755  0.80209  1.0000
  H   H116      1.0  0.14948  0.15062  0.71830  1.0000
  H   H117      1.0  0.12910  0.18253  0.70700  1.0000
  H   H118      1.0  0.12811  0.23524  0.51478  1.0000
  C   C113      1.0  0.07978  0.41827  0.97264  1.0000
  C   C114      1.0  0.09886  0.42490  0.97092  1.0000
  C   C115      1.0  0.04309  0.20504  0.57819  1.0000
  H   H119      1.0  0.10503  0.42845  0.94672  1.0000
  C   C116      1.0  0.09059  0.27046  0.53350  1.0000
  C   C117      1.0  0.10635  0.25591  0.53907  1.0000
  H   H120      1.0  0.06218  0.24826  0.55741  1.0000
  H   H121      1.0  0.08320  0.27803  0.55474  1.0000
  C   C118      1.0  0.20550  0.01219  0.74550  1.0000
  C   C119      1.0  0.24354  0.11655  0.97813  1.0000
  C   C120      1.0  0.22436  0.12591  0.97366  1.0000
  C   C121      1.0  0.17162  0.03826  0.75636  1.0000
  H   H122      1.0  0.25236  0.11173  0.95640  1.0000
  H   H123      1.0  0.24125  0.02592  0.93594  1.0000
  C   C122      1.0  0.32263  0.05655  0.67480  1.0000
  N   N6        1.0  0.16822  0.23424  0.65046  1.0000
  H   H124      1.0  0.03568  0.43866  0.99631  1.0000
  C   C123      1.0  0.07593  0.20918  0.55796  1.0000
  C   C124      1.0  0.14241  0.31110  0.62377  1.0000
  H   H125      1.0  0.19703  0.07289  0.79448  1.0000
  C   C125      1.0  0.11911  0.33452  0.59459  1.0000
  C   C126      1.0  0.11582  0.24644  0.51092  1.0000
  H   H126      1.0  0.15821  0.04772  0.76153  1.0000
  H   H127      1.0  0.11938  0.33657  0.66256  1.0000
  C   C127      1.0  0.32876  0.10758  0.78518  1.0000
  C   C128      1.0  0.23198  0.06127  0.96830  1.0000
  H   H128      1.0  0.08114  0.20649  0.58441  1.0000
  H   H129      1.0  0.22946  0.03294  0.89699  1.0000
  H   H130      1.0  0.23351  0.17504  0.96541  1.0000
  H   H131      1.0  0.24085  0.19140  0.91526  1.0000
  H   H132      1.0  0.20905  0.09064  0.72693  1.0000
  H   H133      1.0  0.12482  0.43188  0.99931  1.0000
  H   H134      1.0  0.31736  0.02068  0.71641  1.0000
  H   H135      1.0  0.25529  0.07732  0.92370  1.0000
  H   H136      1.0  0.09608  0.32852  0.64866  1.0000
  H   H137      1.0  0.16309  0.26992  0.69709  1.0000
  H   H138      1.0  0.10592  0.33056  0.91527  1.0000
  C   C129      1.0  0.11486  0.36437  0.97536  1.0000
  H   H139      1.0  0.21845  0.08612  0.91615  1.0000
  H   H140      1.0  0.17776  0.28061  0.55000  1.0000
  H   H141      1.0  0.17828  0.23745  0.70196  1.0000
  C   C130      1.0  0.25199  0.06181  0.91745  1.0000
  C   C131      1.0  0.11229  0.32382  0.65114  1.0000
  C   C132      1.0  0.22937  0.03629  0.92460  1.0000
  C   C133      1.0  0.17085  0.01773  0.76056  1.0000
  C   C134      1.0  0.16579  0.23180  0.68738  1.0000
  N   N7        1.0  0.12126  0.31750  0.61834  1.0000
  H   H142      1.0  0.31538  0.07185  0.67069  1.0000
  C   C135      1.0  0.04779  0.21917  0.52117  1.0000
  H   H143      1.0  0.14088  0.27523  0.61420  1.0000
  C   C136      1.0  0.26464  0.16471  0.95372  1.0000
  H   H144      1.0  0.12460  0.34828  0.60532  1.0000
  H   H145      1.0  0.04929  0.20363  0.60432  1.0000
  H   H146      1.0  0.12838  0.34295  0.91871  1.0000
  H   H147      1.0  0.01991  0.20490  0.52721  1.0000
  H   H148      1.0  0.21439  0.30487  0.64532  1.0000
  C   C137      1.0  0.05355  0.23791  0.57184  1.0000
  H   H149      1.0  0.15152  0.23944  0.69645  1.0000
  H   H150      1.0  0.20021  0.22979  0.65164  1.0000
  H   H151      1.0  0.11378  0.31148  0.66986  1.0000
  H   H152      1.0  0.05947  0.23757  0.59810  1.0000
  H   H153      1.0  0.16543  0.30862  0.68350  1.0000
  H   H154      1.0  0.29469  0.17227  0.90962  1.0000
  H   H155      1.0  0.15913  0.07403  0.72664  1.0000
  N   N8        1.0  0.23240  0.05749  0.93139  1.0000
  C   C138      1.0  0.24656  0.05131  0.98969  1.0000
  N   N9        1.0  0.10124  0.36252  0.91626  1.0000
  C   C139      1.0  0.11332  0.34386  0.90701  1.0000
  C   C140      1.0  0.08236  0.36317  0.89662  1.0000
  H   H156      1.0  0.01768  0.43279  0.94353  1.0000
  C   C141      1.0  0.09828  0.36341  0.95335  1.0000
  H   H157      1.0  0.17655  0.06809  0.69303  1.0000
  H   H158      1.0  0.18598  0.09471  0.77341  1.0000
  H   H159      1.0  0.11561  0.34270  0.87913  1.0000
  H   H160      1.0  0.17569  0.31647  0.58308  1.0000
  C   C142      1.0  0.19374  0.01840  0.84029  1.0000
  H   H161      1.0  0.03785  0.24456  0.57308  1.0000
  H   H162      1.0  0.28182  0.13936  0.90644  1.0000
  H   H163      1.0  0.07793  0.19477  0.54400  1.0000
  H   H164      1.0  0.07389  0.35011  0.90202  1.0000
  H   H165      1.0  0.08514  0.36305  0.86881  1.0000
  H   H166      1.0  0.07270  0.37709  0.90201  1.0000
  H   H167      1.0  0.27811  0.19416  0.91745  1.0000
  H   H168      1.0  0.22150  0.07008  0.74883  1.0000
  C   C143      1.0  0.00880  0.23838  0.71084  1.0000
  H   H169      1.0  0.24425  0.17818  0.87611  1.0000
  H   H170      1.0  0.06566  0.36346  0.95411  1.0000
  H   H171      1.0  0.10401  0.39389  0.91446  1.0000
  H   H172      1.0  0.33084  0.05885  0.75946  1.0000
  H   H173      1.0  0.25556  0.13712  0.90924  1.0000
  C   C144      1.0  0.15132  0.28622  0.62035  1.0000
  H   H174      1.0  0.21484  0.03237  0.93481  1.0000
  C   C145      1.0  0.26694  0.14695  0.90047  1.0000
  C   C146      1.0  0.24798  0.16969  0.97508  1.0000
  H   H175      1.0  0.25245  0.06014  0.88940  1.0000
  C   C147      1.0  0.21743  0.07481  0.98408  1.0000
  H   H176      1.0  0.02234  0.23898  0.72540  1.0000
  H   H177      1.0  0.08640  0.21931  0.54716  1.0000
  H   H178      1.0  0.17498  0.09219  0.71338  1.0000
  H   H179      1.0  0.04299  0.18970  0.56772  1.0000
  N   N10       1.0  0.26371  0.16689  0.91649  1.0000
  H   H180      1.0  0.11313  0.38043  0.87731  1.0000
  C   C148      1.0  0.01004  0.43509  0.81741  1.0000
  H   H181      1.0  0.15273  0.22541  0.60547  1.0000
  H   H182      1.0  0.30940  0.05118  0.73738  1.0000
  C   C149      1.0  0.15833  0.32891  0.63369  1.0000
  H   H183      1.0  0.12981  0.36429  0.96562  1.0000
  C   C150      1.0  0.18348  0.32584  0.64087  1.0000
  C   C151      1.0  0.18971  0.28190  0.63143  1.0000
  C   C152      1.0  0.19866  0.30435  0.64010  1.0000
  H   H184      1.0  0.02749  0.21164  0.58164  1.0000
  H   H185      1.0  0.15190  0.34407  0.63662  1.0000
  H   H186      1.0  0.19059  0.33924  0.64698  1.0000
  H   H187      1.0  0.20051  0.26881  0.63135  1.0000
  H   H188      1.0  0.02984  0.42881  0.85954  1.0000
  H   H189      1.0  0.09425  0.30668  0.59883  1.0000
  H   H190      1.0  0.16528  0.21586  0.69459  1.0000
  N   N11       1.0  0.33498  0.05547  0.70586  1.0000
  H   H191      1.0  0.26446  0.05157  0.92725  1.0000
  C   C153      1.0  0.17526  0.28086  0.57703  1.0000
  H   H192      1.0  0.18923  0.22187  0.61293  1.0000
  H   H193      1.0  0.26603  0.14786  0.87237  1.0000
  C   C154      1.0  0.02960  0.21196  0.51022  1.0000
  C   C155      1.0  0.18719  0.22289  0.64072  1.0000
  C   C156      1.0  0.21685  0.06991  0.91249  1.0000
  H   H194      1.0  0.21782  0.06698  0.88482  1.0000
  H   H195      1.0  0.24868  0.01451  0.81119  1.0000
  H   H196      1.0  0.17085  0.07552  0.78552  1.0000
  C   C157      1.0  0.16851  0.25527  0.64015  1.0000
  N   N12       1.0  0.05484  0.21771  0.55665  1.0000
  C   C158      1.0  0.27945  0.17932  0.90475  1.0000
  C   C159      1.0  0.01505  0.42784  0.84962  1.0000
  H   H197      1.0  0.19839  0.13937  0.99940  1.0000
  C   C160      1.0  0.16576  0.27347  0.67101  1.0000
  C   C161      1.0  0.16723  0.29812  0.66227  1.0000
  C   C162      1.0  0.17377  0.30314  0.59804  1.0000
  H   H198      1.0  0.10954  0.28887  0.62174  1.0000
  H   H199      1.0  0.13702  0.23342  0.64003  1.0000
  H   H200      1.0  0.12721  0.33086  0.57055  1.0000
  C   C163      1.0  0.28251  0.15680  0.96961  1.0000
  H   H201      1.0  0.31065  0.04623  0.67561  1.0000
  C   C164      1.0  0.15154  0.22527  0.63344  1.0000
  H   H202      1.0  0.20159  0.06674  0.92022  1.0000
  C   C165      1.0  0.23334  0.01570  0.81952  1.0000
  H   H203      1.0  0.11676  0.29561  0.57979  1.0000
  H   H204      1.0  0.27860  0.18180  0.87691  1.0000
  C   C166      1.0  0.11193  0.37969  0.90536  1.0000
  C   C167      1.0  0.17267  0.25912  0.59758  1.0000
  H   H205      1.0  0.21344  0.06723  0.70548  1.0000
  H   H206      1.0  0.08923  0.49508  0.79276  1.0000
  H   H207      1.0  0.18792  0.20721  0.64992  1.0000
  N   N13       1.0  0.18989  0.06823  0.74243  1.0000
  C   C168      1.0  0.18571  0.07823  0.77537  1.0000
  C   C169      1.0  0.20935  0.07420  0.73032  1.0000
  C   C170      1.0  0.17448  0.07589  0.71779  1.0000
  C   C171      1.0  0.18945  0.04640  0.74644  1.0000
  C   C172      1.0  0.02062  0.43421  0.99741  1.0000
  H   H208      1.0  0.15725  0.01181  0.76895  1.0000
  C   C173      1.0  0.18774  0.00473  0.75502  1.0000
  C   C174      1.0  0.01037  0.43098  0.96761  1.0000
  H   H209      1.0  0.31544  0.07631  0.73471  1.0000
  H   H210      1.0  0.33195  0.05252  0.65210  1.0000
  H   H211      1.0  0.06526  0.50186  0.87690  1.0000
  H   H212      1.0  0.25798  0.04068  0.97962  1.0000
  H   H213      1.0  0.00514  0.41295  0.89359  1.0000
  C   C175      1.0  0.00984  0.23629  0.67570  1.0000
  H   H214      1.0  0.20589  0.08336  0.97008  1.0000
  C   C176      1.0  0.32827  0.13396  0.74403  1.0000
  C   C177      1.0  0.11002  0.42688  0.00071  1.0000
  H   H215      1.0  0.07264  0.23488  0.50300  1.0000
  Fe  Fe25      1.0  0.09503  0.64198  0.17052  1.0000
  S   S49       1.0  0.06481  0.64609  0.14618  1.0000
  S   S50       1.0  0.10904  0.67122  0.18091  1.0000
  Fe  Fe26      1.0  0.09462  0.59601  0.16999  1.0000
  S   S51       1.0  0.06433  0.59754  0.14697  1.0000
  S   S52       1.0  0.10998  0.56500  0.17966  1.0000
  Fe  Fe27      1.0  0.07512  0.62047  0.11228  1.0000
  S   S53       1.0  0.06341  0.61704  0.05912  1.0000
  Fe  Fe28      1.0  0.05707  0.62291  0.18272  1.0000
  S   S54       1.0  0.02857  0.62752  0.21166  1.0000
  S   S55       1.0  0.10626  0.61781  0.13314  1.0000
  S   S56       1.0  0.08653  0.61987  0.20924  1.0000
  Fe  Fe29      1.0  0.09796  0.76174  0.31781  1.0000
  S   S57       1.0  0.09223  0.78303  0.27506  1.0000
  S   S58       1.0  0.10111  0.72784  0.31123  1.0000
  Fe  Fe30      1.0  0.09329  0.79538  0.37137  1.0000
  S   S59       1.0  0.08686  0.81889  0.33091  1.0000
  S   S60       1.0  0.09137  0.80722  0.42599  1.0000
  Fe  Fe31      1.0  0.06731  0.79689  0.30766  1.0000
  S   S61       1.0  0.03670  0.80238  0.28286  1.0000
  Fe  Fe32      1.0  0.11248  0.80308  0.30198  1.0000
  S   S62       1.0  0.13887  0.81385  0.27155  1.0000
  S   S63       1.0  0.07212  0.77465  0.34931  1.0000
  S   S64       1.0  0.11980  0.78055  0.34359  1.0000
  Fe  Fe33      1.0  0.20010  0.90967  0.19986  1.0000
  S   S65       1.0  0.22572  0.89370  0.17119  1.0000
  S   S66       1.0  0.17424  0.89620  0.22810  1.0000
  Fe  Fe34      1.0  0.20997  0.95116  0.17143  1.0000
  S   S67       1.0  0.23569  0.93729  0.14141  1.0000
  S   S68       1.0  0.19830  0.98303  0.15787  1.0000
  Fe  Fe35      1.0  0.21620  0.91338  0.12679  1.0000
  S   S69       1.0  0.20533  0.90457  0.07431  1.0000
  Fe  Fe36      1.0  0.24329  0.91926  0.18852  1.0000
  S   S70       1.0  0.27682  0.91720  0.19982  1.0000
  S   S71       1.0  0.19000  0.92808  0.15478  1.0000
  S   S72       1.0  0.21816  0.93442  0.21953  1.0000
  C   C178      1.0  0.21588  0.90731  0.03354  1.0000
  H   H216      1.0  0.08816  0.56891  0.07442  1.0000
  C   C179      1.0  0.23617  0.90932  0.02886  1.0000
  H   H217      1.0  0.03011  0.59264  0.25960  1.0000
  H   H218      1.0  0.24593  0.90960  0.05057  1.0000
  H   H219      1.0  0.18779  0.90515  0.00812  1.0000
  H   H220      1.0  0.12484  0.51889  0.03725  1.0000
  H   H221      1.0  0.11512  0.85741  0.20380  1.0000
  H   H222      1.0  0.22663  0.98955  0.21193  1.0000
  H   H223      1.0  0.00695  0.64667  0.06958  1.0000
  C   C180      1.0  0.29120  0.91920  0.23743  1.0000
  C   C181      1.0  0.28316  0.91750  0.26976  1.0000
  C   C182      1.0  0.00557  0.52845  0.14360  1.0000
  H   H224      1.0  0.04055  0.58280  0.20179  1.0000
  C   C183      1.0  0.31165  0.92177  0.23453  1.0000
  H   H225      1.0  0.26753  0.91538  0.27247  1.0000
  N   N14       1.0  0.01984  0.56781  0.23171  1.0000
  H   H226      1.0  0.31807  0.92301  0.20970  1.0000
  C   C184      1.0  0.09622  0.79733  0.46731  1.0000
  C   C185      1.0  0.10275  0.77732  0.47300  1.0000
  H   H227      1.0  0.03236  0.54938  0.27231  1.0000
  H   H228      1.0  0.10554  0.76735  0.45173  1.0000
  C   C186      1.0  0.10022  0.51083  0.06941  1.0000
  C   C187      1.0  0.01414  0.79811  0.30352  1.0000
  H   H229      1.0  0.29951  0.90734  0.43841  1.0000
  C   C188      1.0  0.01246  0.62136  0.14950  1.0000
  H   H230      1.0  0.02694  0.79463  0.35318  1.0000
  H   H231      1.0  0.04614  0.70437  0.30129  1.0000
  C   C189      1.0  0.16526  0.87302  0.24122  1.0000
  C   C190      1.0  0.17521  0.85438  0.23377  1.0000
  C   C191      1.0  0.16704  0.83660  0.24364  1.0000
  C   C192      1.0  0.14889  0.83702  0.26145  1.0000
  C   C193      1.0  0.13909  0.85566  0.26937  1.0000
  C   C194      1.0  0.14717  0.87344  0.25920  1.0000
  H   H232      1.0  0.18924  0.85359  0.22049  1.0000
  H   H233      1.0  0.17485  0.82238  0.23732  1.0000
  H   H234      1.0  0.12517  0.85641  0.28301  1.0000
  H   H235      1.0  0.13930  0.88767  0.26534  1.0000
  C   C195      1.0  0.02197  0.74662  0.24581  1.0000
  C   C196      1.0  0.22036  0.96358  0.06495  1.0000
  H   H236      1.0  0.08804  0.82559  0.49144  1.0000
  H   H237      1.0  0.10410  0.62808  0.04883  1.0000
  C   C197      1.0  0.09136  0.55285  0.07264  1.0000
  C   C198      1.0  0.09706  0.54310  0.17830  1.0000
  C   C199      1.0  0.10781  0.52424  0.17947  1.0000
  C   C200      1.0  0.07628  0.54411  0.17662  1.0000
  H   H238      1.0  0.12389  0.52329  0.18115  1.0000
  H   H239      1.0  0.06788  0.55845  0.17599  1.0000
  C   C201      1.0  0.03628  0.55451  0.24668  1.0000
  C   C202      1.0  0.07945  0.54029  0.08962  1.0000
  H   H240      1.0  0.11687  0.55464  0.04096  1.0000
  H   H241      1.0  0.02747  0.62019  0.13991  1.0000
  H   H242      1.0  0.05018  0.56223  0.24948  1.0000
  C   C203      1.0  0.10440  0.68713  0.21660  1.0000
  C   C204      1.0  0.10671  0.70761  0.21350  1.0000
  C   C205      1.0  0.10517  0.72041  0.24188  1.0000
  C   C206      1.0  0.10156  0.71281  0.27395  1.0000
  C   C207      1.0  0.09906  0.69238  0.27698  1.0000
  C   C208      1.0  0.10032  0.67963  0.24851  1.0000
  H   H243      1.0  0.11014  0.71351  0.18904  1.0000
  H   H244      1.0  0.10729  0.73601  0.23891  1.0000
  H   H245      1.0  0.09636  0.68626  0.30159  1.0000
  H   H246      1.0  0.09875  0.66389  0.25141  1.0000
  C   C209      1.0  0.30596  0.92101  0.42951  1.0000
  H   H247      1.0  0.07426  0.51053  0.10225  1.0000
  C   C210      1.0  0.29554  0.91791  0.29861  1.0000
  C   C211      1.0  0.01342  0.79491  0.33834  1.0000
  H   H248      1.0  0.29658  0.93409  0.43967  1.0000
  H   H249      1.0  0.04030  0.54125  0.23045  1.0000
  N   N15       1.0  0.16590  0.86948  0.12725  1.0000
  C   C212      1.0  0.16629  0.86394  0.09088  1.0000
  C   C213      1.0  0.15885  0.89097  0.12951  1.0000
  C   C214      1.0  0.15337  0.85646  0.14641  1.0000
  C   C215      1.0  0.13785  0.86407  0.16842  1.0000
  C   C216      1.0  0.15702  0.83540  0.14431  1.0000
  C   C217      1.0  0.12647  0.85131  0.18636  1.0000
  C   C218      1.0  0.14562  0.82280  0.16257  1.0000
  C   C219      1.0  0.04697  0.70166  0.27445  1.0000
  H   H250      1.0  0.15094  0.86427  0.08036  1.0000
  H   H251      1.0  0.15993  0.89673  0.15585  1.0000
  H   H252      1.0  0.16809  0.90025  0.11375  1.0000
  H   H253      1.0  0.14322  0.89378  0.12056  1.0000
  H   H254      1.0  0.13459  0.87981  0.17315  1.0000
  H   H255      1.0  0.16904  0.82854  0.12914  1.0000
  C   C220      1.0  0.04562  0.79324  0.46488  1.0000
  H   H256      1.0  0.33349  0.93879  0.39597  1.0000
  N   N16       1.0  0.04143  0.73861  0.25994  1.0000
  C   C221      1.0  0.05720  0.75029  0.24620  1.0000
  C   C222      1.0  0.04083  0.74208  0.29704  1.0000
  C   C223      1.0  0.04535  0.71733  0.25035  1.0000
  C   C224      1.0  0.09733  0.62570  0.02450  1.0000
  C   C225      1.0  0.08376  0.51961  0.08813  1.0000
  H   H257      1.0  0.02182  0.74621  0.21776  1.0000
  H   H258      1.0  0.05839  0.74939  0.21830  1.0000
  C   C226      1.0  0.32850  0.92174  0.47729  1.0000
  H   H259      1.0  0.00560  0.59710  0.24358  1.0000
  C   C227      1.0  0.19677  0.99199  0.05907  1.0000
  H   H260      1.0  0.06585  0.74550  0.46983  1.0000
  C   C228      1.0  0.20350  0.90675  0.00490  1.0000
  N   N17       1.0  0.32705  0.92161  0.43994  1.0000
  C   C229      1.0  0.05004  0.68170  0.26431  1.0000
  H   H261      1.0  0.05034  0.52752  0.17441  1.0000
  C   C230      1.0  0.18650  0.86708  0.14061  1.0000
  C   C231      1.0  0.32319  0.90513  0.49619  1.0000
  H   H262      1.0  0.12197  0.82099  0.19855  1.0000
  H   H263      1.0  0.17389  0.84890  0.08621  1.0000
  C   C232      1.0  0.06638  0.52655  0.17592  1.0000
  H   H264      1.0  0.04347  0.80524  0.44671  1.0000
  N   N18       1.0  0.16000  0.74146  0.28277  1.0000
  C   C233      1.0  0.14489  0.75697  0.27012  1.0000
  C   C234      1.0  0.15740  0.74011  0.31994  1.0000
  C   C235      1.0  0.18011  0.74810  0.27665  1.0000
  C   C236      1.0  0.15782  0.72243  0.26473  1.0000
  C   C237      1.0  0.16081  0.72106  0.22925  1.0000
  C   C238      1.0  0.15237  0.70501  0.28128  1.0000
  C   C239      1.0  0.15865  0.70335  0.21157  1.0000
  C   C240      1.0  0.15035  0.68736  0.26333  1.0000
  C   C241      1.0  0.15347  0.68653  0.22860  1.0000
  H   H265      1.0  0.12958  0.75261  0.27461  1.0000
  H   H266      1.0  0.14614  0.77156  0.28295  1.0000
  H   H267      1.0  0.14634  0.75975  0.24265  1.0000
  H   H268      1.0  0.14209  0.73644  0.32657  1.0000
  H   H269      1.0  0.15947  0.75454  0.33281  1.0000
  H   H270      1.0  0.16836  0.72871  0.33124  1.0000
  H   H271      1.0  0.18252  0.75174  0.24972  1.0000
  H   H272      1.0  0.18250  0.76193  0.29113  1.0000
  H   H273      1.0  0.19194  0.73637  0.28421  1.0000
  H   H274      1.0  0.16447  0.73379  0.21479  1.0000
  H   H275      1.0  0.14897  0.70472  0.30789  1.0000
  H   H276      1.0  0.16048  0.70272  0.18438  1.0000
  H   H277      1.0  0.14559  0.67441  0.27619  1.0000
  H   H278      1.0  0.15113  0.67302  0.21463  1.0000
  H   H279      1.0  0.33241  0.88962  0.43294  1.0000
  H   H280      1.0  0.28921  0.91612  0.32335  1.0000
  C   C242      1.0  0.01620  0.58527  0.25455  1.0000
  C   C243      1.0  0.13035  0.83075  0.18349  1.0000
  H   H281      1.0  0.23094  0.95383  0.00513  1.0000
  H   H282      1.0  0.18599  0.95927  0.09209  1.0000
  H   H283      1.0  0.04604  0.72268  0.19594  1.0000
  C   C244      1.0  0.32393  0.92256  0.26338  1.0000
  H   H284      1.0  0.17468  0.87431  0.07563  1.0000
  S   S73       1.0  0.33113  0.91977  0.33280  1.0000
  H   H285      1.0  0.18694  0.87176  0.16760  1.0000
  H   H286      1.0  0.19651  0.87630  0.12632  1.0000
  H   H287      1.0  0.19316  0.85144  0.13911  1.0000
  H   H288      1.0  0.07195  0.74502  0.25692  1.0000
  H   H289      1.0  0.31763  0.89239  0.48386  1.0000
  H   H290      1.0  0.14892  0.80678  0.16116  1.0000
  H   H291      1.0  0.01134  0.52825  0.24517  1.0000
  H   H292      1.0  0.23284  0.97161  0.05508  1.0000
  H   H293      1.0  0.02850  0.73477  0.30910  1.0000
  C   C245      1.0  0.07774  0.62038  0.02276  1.0000
  H   H294      1.0  0.01827  0.76249  0.25333  1.0000
  H   H295      1.0  0.03833  0.75825  0.30329  1.0000
  C   C246      1.0  0.00796  0.50856  0.15339  1.0000
  C   C247      1.0  0.05832  0.75959  0.47790  1.0000
  C   C248      1.0  0.18554  0.95907  0.06390  1.0000
  H   H296      1.0  0.03042  0.56209  0.18107  1.0000
  C   C249      1.0  0.05432  0.77475  0.45442  1.0000
  C   C250      1.0  0.02691  0.57473  0.19875  1.0000
  H   H297      1.0  0.05441  0.76641  0.25251  1.0000
  H   H298      1.0  0.05882  0.77250  0.42831  1.0000
  H   H299      1.0  0.22383  0.94725  0.06104  1.0000
  H   H300      1.0  0.17025  0.96484  0.05638  1.0000
  H   H301      1.0  0.01578  0.58533  0.18615  1.0000
  N   N19       1.0  0.20104  0.97076  0.04921  1.0000
  H   H302      1.0  0.22013  0.96604  0.09281  1.0000
  H   H303      1.0  0.05139  0.66992  0.28296  1.0000
  H   H304      1.0  0.01003  0.58092  0.27920  1.0000
  C   C251      1.0  0.10754  0.54475  0.05383  1.0000
  C   C252      1.0  0.09789  0.50662  0.17887  1.0000
  H   H305      1.0  0.00973  0.73791  0.25482  1.0000
  H   H306      1.0  0.06706  0.54670  0.10461  1.0000
  C   C253      1.0  0.20087  0.96881  0.01190  1.0000
  H   H307      1.0  0.30441  0.92116  0.40139  1.0000
  C   C254      1.0  0.07709  0.50772  0.17702  1.0000
  H   H308      1.0  0.05522  0.73660  0.30918  1.0000
  C   C255      1.0  0.01200  0.63475  0.01972  1.0000
  C   C256      1.0  0.31600  0.92039  0.29564  1.0000
  C   C257      1.0  0.11198  0.52407  0.05204  1.0000
  C   C258      1.0  0.09285  0.81003  0.49546  1.0000
  C   C259      1.0  0.04716  0.71170  0.21578  1.0000
  H   H309      1.0  0.18770  0.94320  0.05567  1.0000
  H   H310      1.0  0.32591  0.95341  0.43181  1.0000
  H   H311      1.0  0.17033  0.98198  0.00561  1.0000
  H   H312      1.0  0.19750  0.99401  0.08702  1.0000
  C   C260      1.0  0.04075  0.79661  0.49884  1.0000
  H   H313      1.0  0.01838  0.53706  0.14218  1.0000
  H   H314      1.0  0.05230  0.68776  0.17955  1.0000
  C   C261      1.0  0.05184  0.67675  0.23021  1.0000
  H   H315      1.0  0.05450  0.66128  0.22252  1.0000
  C   C262      1.0  0.05052  0.69173  0.20602  1.0000
  H   H316      1.0  0.02804  0.63509  0.02143  1.0000
  C   C263      1.0  0.00872  0.62616  0.18342  1.0000
  H   H317      1.0  0.18163  0.99814  0.05139  1.0000
  C   C264      1.0  0.00387  0.84772  0.30743  1.0000
  H   H318      1.0  0.20775  0.00138  0.04762  1.0000
  H   H319      1.0  0.01994  0.84588  0.30455  1.0000
  C   C265      1.0  0.33463  0.93938  0.42399  1.0000
  C   C266      1.0  0.33531  0.93796  0.49593  1.0000
  H   H320      1.0  0.00485  0.83973  0.35977  1.0000
  Fe  Fe37      1.0  0.09568  0.78315  0.62996  1.0000
  S   S74       1.0  0.08027  0.81244  0.64624  1.0000
  S   S75       1.0  0.10434  0.77244  0.57604  1.0000
  Fe  Fe38      1.0  0.09296  0.76603  0.70246  1.0000
  S   S76       1.0  0.07682  0.79449  0.72291  1.0000
  S   S77       1.0  0.10431  0.73831  0.73281  1.0000
  Fe  Fe39      1.0  0.05896  0.79438  0.67434  1.0000
  S   S78       1.0  0.02626  0.80034  0.65826  1.0000
  Fe  Fe40      1.0  0.09954  0.81040  0.69347  1.0000
  S   S79       1.0  0.11379  0.83940  0.70900  1.0000
  S   S80       1.0  0.07380  0.76508  0.65619  1.0000
  S   S81       1.0  0.11640  0.78197  0.67511  1.0000
  Fe  Fe41      1.0  0.19866  0.90210  0.81725  1.0000
  S   S82       1.0  0.23068  0.89319  0.83181  1.0000
  S   S83       1.0  0.18071  0.87507  0.80382  1.0000
  Fe  Fe42      1.0  0.20525  0.94643  0.83066  1.0000
  S   S84       1.0  0.23740  0.94003  0.84472  1.0000
  S   S85       1.0  0.19024  0.97802  0.83634  1.0000
  Fe  Fe43      1.0  0.23904  0.91895  0.80042  1.0000
  S   S86       1.0  0.26419  0.91221  0.76190  1.0000
  Fe  Fe44      1.0  0.22667  0.91488  0.87524  1.0000
  S   S87       1.0  0.24252  0.91001  0.92629  1.0000
  S   S88       1.0  0.20727  0.92703  0.78365  1.0000
  S   S89       1.0  0.19425  0.92223  0.86343  1.0000
  Fe  Fe45      1.0  0.09548  0.61961  0.87953  1.0000
  S   S90       1.0  0.10502  0.62255  0.82522  1.0000
  S   S91       1.0  0.11290  0.62796  0.92535  1.0000
  Fe  Fe46      1.0  0.05625  0.60428  0.86123  1.0000
  S   S92       1.0  0.06196  0.60656  0.80598  1.0000
  S   S93       1.0  0.02943  0.58950  0.87829  1.0000
  Fe  Fe47      1.0  0.09247  0.59261  0.81850  1.0000
  S   S94       1.0  0.10174  0.56591  0.78535  1.0000
  Fe  Fe48      1.0  0.07365  0.63626  0.81713  1.0000
  S   S95       1.0  0.06091  0.66433  0.78925  1.0000
  S   S96       1.0  0.08600  0.58875  0.87330  1.0000
  S   S97       1.0  0.06499  0.63499  0.87185  1.0000
  C   C267      1.0  0.00335  0.62733  0.99084  1.0000
  H   H321      1.0  0.19935  0.82622  0.64228  1.0000
  H   H322      1.0  0.31098  0.86901  0.88453  1.0000
  C   C268      1.0  0.06486  0.54123  0.86287  1.0000
  H   H323      1.0  0.02589  0.63167  0.89474  1.0000
  C   C269      1.0  0.28746  0.92224  0.75487  1.0000
  C   C270      1.0  0.29428  0.93732  0.77516  1.0000
  C   C271      1.0  0.09690  0.50702  0.80375  1.0000
  C   C272      1.0  0.01418  0.53127  0.80661  1.0000
  C   C273      1.0  0.29966  0.91443  0.72829  1.0000
  H   H324      1.0  0.28505  0.94369  0.79542  1.0000
  H   H325      1.0  0.00861  0.78071  0.55059  1.0000
  H   H326      1.0  0.29455  0.90282  0.71236  1.0000
  H   H327      1.0  0.02546  0.64921  0.82642  1.0000
  H   H328      1.0  0.25981  0.91126  0.99261  1.0000
  H   H329      1.0  0.28878  0.92058  0.87044  1.0000
  H   H330      1.0  0.01443  0.79431  0.72881  1.0000
  N   N20       1.0  0.29498  0.89034  0.85199  1.0000
  C   C274      1.0  0.09178  0.71758  0.74660  1.0000
  C   C275      1.0  0.10320  0.70043  0.75807  1.0000
  C   C276      1.0  0.09409  0.68397  0.77101  1.0000
  C   C277      1.0  0.07332  0.68446  0.77262  1.0000
  C   C278      1.0  0.06186  0.70149  0.76069  1.0000
  C   C279      1.0  0.07100  0.71795  0.74776  1.0000
  H   H331      1.0  0.11924  0.69983  0.75650  1.0000
  H   H332      1.0  0.10315  0.67087  0.77937  1.0000
  H   H333      1.0  0.04579  0.70205  0.76161  1.0000
  H   H334      1.0  0.06201  0.73103  0.73906  1.0000
  C   C280      1.0  0.16162  0.86568  0.77774  1.0000
  C   C281      1.0  0.15794  0.84541  0.78015  1.0000
  C   C282      1.0  0.14322  0.83718  0.76003  1.0000
  C   C283      1.0  0.13178  0.84911  0.73702  1.0000
  C   C284      1.0  0.13531  0.86941  0.73485  1.0000
  C   C285      1.0  0.15013  0.87760  0.75479  1.0000
  H   H335      1.0  0.16657  0.83596  0.79781  1.0000
  H   H336      1.0  0.14079  0.82159  0.76231  1.0000
  H   H337      1.0  0.12658  0.87892  0.71741  1.0000
  H   H338      1.0  0.15255  0.89321  0.75259  1.0000
  C   C286      1.0  0.11700  0.53804  0.83160  1.0000
  C   C287      1.0  0.10451  0.54192  0.80370  1.0000
  C   C288      1.0  0.09457  0.52630  0.78969  1.0000
  H   H339      1.0  0.12494  0.54987  0.84230  1.0000
  H   H340      1.0  0.08510  0.52913  0.76784  1.0000
  H   H341      1.0  0.13308  0.64867  0.87291  1.0000
  C   C289      1.0  0.24402  0.91019  0.99591  1.0000
  C   C290      1.0  0.09812  0.55797  0.95033  1.0000
  H   H342      1.0  0.10890  0.69329  0.92269  1.0000
  H   H343      1.0  0.23128  0.98385  0.81819  1.0000
  C   C291      1.0  0.21129  0.90797  0.97198  1.0000
  C   C292      1.0  0.23167  0.90941  0.96725  1.0000
  C   C293      1.0  0.19965  0.96563  0.94027  1.0000
  H   H344      1.0  0.20159  0.90738  0.95025  1.0000
  C   C294      1.0  0.31849  0.92140  0.72221  1.0000
  H   H345      1.0  0.01377  0.80653  0.54982  1.0000
  C   C295      1.0  0.10141  0.78268  0.53451  1.0000
  C   C296      1.0  0.09558  0.80285  0.52876  1.0000
  H   H346      1.0  0.03486  0.63261  0.77021  1.0000
  H   H347      1.0  0.09323  0.81297  0.54993  1.0000
  C   C297      1.0  0.09946  0.62491  0.96291  1.0000
  C   C298      1.0  0.31317  0.94417  0.76925  1.0000
  C   C299      1.0  0.07996  0.61940  0.96138  1.0000
  H   H348      1.0  0.09188  0.57763  0.99268  1.0000
  H   H349      1.0  0.07318  0.61662  0.93729  1.0000
  H   H350      1.0  0.15119  0.82902  0.53917  1.0000
  H   H351      1.0  0.26777  0.90631  0.86910  1.0000
  C   C300      1.0  0.01171  0.65570  0.81345  1.0000
  H   H352      1.0  0.27757  0.91537  0.83064  1.0000
  C   C301      1.0  0.00895  0.60635  0.88732  1.0000
  C   C302      1.0  0.21742  0.96011  0.99318  1.0000
  H   H353      1.0  0.15853  0.68796  0.77946  1.0000
  C   C303      1.0  0.04463  0.78152  0.52353  1.0000
  C   C304      1.0  0.00404  0.51497  0.79634  1.0000
  H   H354      1.0  0.02426  0.65410  0.74952  1.0000
  H   H355      1.0  0.05563  0.57518  0.99027  1.0000
  C   C305      1.0  0.11968  0.51871  0.84510  1.0000
  H   H356      1.0  0.04592  0.80626  0.59864  1.0000
  C   C306      1.0  0.06932  0.54436  0.92318  1.0000
  H   H357      1.0  0.13268  0.70363  0.81526  1.0000
  H   H358      1.0  0.10016  0.65860  0.87739  1.0000
  H   H359      1.0  0.32772  0.91511  0.70185  1.0000
  C   C307      1.0  0.31308  0.89454  0.83311  1.0000
  H   H360      1.0  0.12325  0.63227  0.99594  1.0000
  H   H361      1.0  0.09140  0.67245  0.84097  1.0000
  C   C308      1.0  0.15292  0.67956  0.80016  1.0000
  C   C309      1.0  0.13824  0.65776  0.85286  1.0000
  C   C310      1.0  0.16048  0.65991  0.80542  1.0000
  H   H362      1.0  0.04101  0.55546  0.94693  1.0000
  C   C311      1.0  0.05075  0.80167  0.57275  1.0000
  C   C312      1.0  0.20360  0.99951  0.83360  1.0000
  H   H363      1.0  0.11398  0.55961  0.95089  1.0000
  H   H364      1.0  0.06015  0.53197  0.84145  1.0000
  C   C313      1.0  0.07128  0.51161  0.89656  1.0000
  H   H365      1.0  0.15905  0.63373  0.83590  1.0000
  C   C314      1.0  0.28326  0.87540  0.83518  1.0000
  H   H366      1.0  0.05401  0.61316  0.98955  1.0000
  H   H367      1.0  0.08348  0.68027  0.88262  1.0000
  C   C315      1.0  0.03946  0.53043  0.89874  1.0000
  C   C316      1.0  0.30045  0.88266  0.88615  1.0000
  C   C317      1.0  0.10617  0.70695  0.86079  1.0000
  H   H368      1.0  0.03914  0.77140  0.60824  1.0000
  C   C318      1.0  0.10815  0.62806  0.99455  1.0000
  H   H369      1.0  0.05802  0.75073  0.52898  1.0000
  H   H370      1.0  0.02955  0.53219  0.79911  1.0000
  C   C319      1.0  0.06911  0.61734  0.99112  1.0000
  C   C320      1.0  0.04351  0.76794  0.58160  1.0000
  H   H371      1.0  0.10038  0.53900  0.90727  1.0000
  C   C321      1.0  0.12056  0.68633  0.90545  1.0000
  C   C322      1.0  0.32621  0.90801  0.84649  1.0000
  H   H372      1.0  0.03083  0.54522  0.89590  1.0000
  H   H373      1.0  0.28708  0.87889  0.90056  1.0000
  H   H374      1.0  0.01791  0.61642  0.81434  1.0000
  H   H375      1.0  0.27732  0.88085  0.81026  1.0000
  H   H376      1.0  0.14375  0.77929  0.60337  1.0000
  N   N21       1.0  0.11358  0.68622  0.86987  1.0000
  H   H377      1.0  0.32185  0.89137  0.54520  1.0000
  H   H378      1.0  0.30752  0.89377  0.90192  1.0000
  H   H379      1.0  0.06963  0.50446  0.92155  1.0000
  C   C323      1.0  0.18311  0.97403  0.95784  1.0000
  H   H380      1.0  0.08081  0.54314  0.85902  1.0000
  C   C324      1.0  0.01775  0.79194  0.56211  1.0000
  H   H381      1.0  0.17195  0.65305  0.78894  1.0000
  H   H382      1.0  0.14101  0.79499  0.54725  1.0000
  C   C325      1.0  0.08570  0.56819  0.97380  1.0000
  C   C326      1.0  0.01123  0.62648  0.89344  1.0000
  H   H383      1.0  0.29229  0.86095  0.83141  1.0000
  N   N22       1.0  0.16872  0.83573  0.65279  1.0000
  C   C327      1.0  0.18952  0.84020  0.64628  1.0000
  C   C328      1.0  0.16136  0.82419  0.62412  1.0000
  C   C329      1.0  0.15982  0.83265  0.59129  1.0000
  C   C330      1.0  0.15558  0.80449  0.62762  1.0000
  C   C331      1.0  0.15257  0.82220  0.56393  1.0000
  C   C332      1.0  0.14844  0.79417  0.60005  1.0000
  C   C333      1.0  0.14685  0.80302  0.56835  1.0000
  C   C334      1.0  0.28178  0.90897  0.85574  1.0000
  H   H384      1.0  0.15322  0.82135  0.69209  1.0000
  H   H385      1.0  0.19074  0.84964  0.62356  1.0000
  H   H386      1.0  0.15711  0.86485  0.63470  1.0000
  H   H387      1.0  0.16404  0.84749  0.58660  1.0000
  H   H388      1.0  0.15615  0.79674  0.65145  1.0000
  H   H389      1.0  0.11008  0.75453  0.51036  1.0000
  H   H390      1.0  0.03443  0.81135  0.50578  1.0000
  H   H391      1.0  0.04925  0.81532  0.55706  1.0000
  N   N23       1.0  0.03931  0.78553  0.55935  1.0000
  H   H392      1.0  0.32319  0.91548  0.87034  1.0000
  C   C335      1.0  0.22354  0.99825  0.82361  1.0000
  H   H393      1.0  0.01310  0.79395  0.58901  1.0000
  C   C336      1.0  0.31800  0.88600  0.80095  1.0000
  H   H394      1.0  0.22942  0.95174  0.94413  1.0000
  H   H395      1.0  0.06683  0.79669  0.57454  1.0000
  H   H396      1.0  0.13406  0.69463  0.90805  1.0000
  H   H397      1.0  0.03514  0.75523  0.57347  1.0000
  N   N24       1.0  0.00508  0.64214  0.78687  1.0000
  C   C337      1.0  0.18363  0.97561  0.99310  1.0000
  C   C338      1.0  0.21675  0.95873  0.95790  1.0000
  C   C339      1.0  0.06522  0.56681  0.97232  1.0000
  C   C340      1.0  0.09645  0.67388  0.86759  1.0000
  C   C341      1.0  0.32544  0.93621  0.74287  1.0000
  H   H398      1.0  0.31838  0.95564  0.78538  1.0000
  H   H399      1.0  0.27003  0.87221  0.85042  1.0000
  H   H400      1.0  0.17344  0.83443  0.70691  1.0000
  N   N25       1.0  0.06122  0.53214  0.89602  1.0000
  C   C342      1.0  0.13793  0.68841  0.82107  1.0000
  C   C343      1.0  0.15613  0.85480  0.65663  1.0000
  C   C344      1.0  0.09013  0.54619  0.92544  1.0000
  H   H401      1.0  0.19913  0.96418  0.91294  1.0000
  C   C345      1.0  0.16852  0.82512  0.68561  1.0000
  H   H402      1.0  0.14016  0.85206  0.65966  1.0000
  H   H403      1.0  0.11810  0.71731  0.86316  1.0000
  H   H404      1.0  0.10017  0.70774  0.83449  1.0000
  H   H405      1.0  0.12440  0.67099  0.91529  1.0000
  H   H406      1.0  0.17863  0.81117  0.68547  1.0000
  H   H407      1.0  0.09379  0.71290  0.87755  1.0000
  H   H408      1.0  0.03404  0.52072  0.87846  1.0000
  C   C346      1.0  0.15321  0.64906  0.83183  1.0000
  H   H409      1.0  0.19571  0.84840  0.66787  1.0000
  C   C347      1.0  0.02055  0.63965  0.76023  1.0000
  C   C348      1.0  0.12990  0.67762  0.84786  1.0000
  H   H410      1.0  0.05690  0.55634  0.86070  1.0000
  H   H411      1.0  0.16047  0.86335  0.67923  1.0000
  H   H412      1.0  0.30857  0.87628  0.78796  1.0000
  C   C349      1.0  0.05703  0.55525  0.94728  1.0000
  H   H413      1.0  0.12969  0.51578  0.86625  1.0000
  H   H414      1.0  0.16974  0.97909  0.94393  1.0000
  H   H415      1.0  0.03563  0.52384  0.92334  1.0000
  H   H416      1.0  0.01581  0.63021  0.73906  1.0000
  H   H417      1.0  0.05974  0.76301  0.58233  1.0000
  H   H418      1.0  0.01556  0.67018  0.80309  1.0000
  H   H419      1.0  0.01238  0.55920  0.83370  1.0000
  H   H420      1.0  0.33334  0.98683  0.72176  1.0000
  C   C350      1.0  0.00356  0.62236  0.80269  1.0000
  C   C351      1.0  0.10528  0.77008  0.50636  1.0000
  H   H421      1.0  0.01274  0.62192  0.96995  1.0000
  C   C352      1.0  0.32537  0.90445  0.53132  1.0000
  H   H422      1.0  0.08747  0.51122  0.89116  1.0000
  C   C353      1.0  0.00457  0.54648  0.82609  1.0000
  C   C354      1.0  0.33516  0.89046  0.78379  1.0000
  C   C355      1.0  0.00296  0.79860  0.67838  1.0000
  H   H423      1.0  0.18724  0.98887  0.75931  1.0000
  C   C356      1.0  0.05373  0.76286  0.51203  1.0000
  C   C357      1.0  0.33249  0.92038  0.54870  1.0000
  C   C358      1.0  0.10968  0.50311  0.83128  1.0000
  H   H424      1.0  0.33479  0.91957  0.57582  1.0000
  H   H425      1.0  0.01246  0.50366  0.78154  1.0000
  H   H426      1.0  0.21875  0.00200  0.74239  1.0000
  Fe  Fe49      1.0  0.38575  0.11657  0.33277  1.0000
  S   S98       1.0  0.37437  0.09944  0.37600  1.0000
  Fe  Fe50      1.0  0.42307  0.12650  0.37191  1.0000
  S   S99       1.0  0.41420  0.11059  0.41835  1.0000
  S   S100      1.0  0.45118  0.14272  0.37684  1.0000
  Fe  Fe51      1.0  0.40594  0.08696  0.38266  1.0000
  S   S101      1.0  0.41317  0.05594  0.40141  1.0000
  Fe  Fe52      1.0  0.38344  0.12440  0.40883  1.0000
  S   S102      1.0  0.36270  0.13226  0.45240  1.0000
  S   S103      1.0  0.41713  0.10150  0.33656  1.0000
  S   S104      1.0  0.39255  0.14284  0.36507  1.0000
  Fe  Fe53      1.0  0.59453  0.08790  0.37423  1.0000
  S   S105      1.0  0.58816  0.09392  0.31966  1.0000
  S   S106      1.0  0.59670  0.05828  0.40088  1.0000
  Fe  Fe54      1.0  0.59759  0.13111  0.38986  1.0000
  S   S107      1.0  0.59121  0.14080  0.33578  1.0000
  S   S108      1.0  0.60642  0.15235  0.43053  1.0000
  Fe  Fe55      1.0  0.56720  0.11936  0.33834  1.0000
  S   S109      1.0  0.53675  0.12041  0.31254  1.0000
  Fe  Fe56      1.0  0.61273  0.11450  0.32139  1.0000
  S   S110      1.0  0.63567  0.10859  0.27891  1.0000
  S   S111      1.0  0.57215  0.11186  0.39317  1.0000
  S   S112      1.0  0.62044  0.10651  0.37502  1.0000
  C   C359      1.0  0.40007  0.00816  0.32501  1.0000
  H   H427      1.0  0.40495  0.01560  0.40950  1.0000
  C   C360      1.0  0.42491  0.14334  0.28690  1.0000
  H   H428      1.0  0.62086  0.17777  0.47930  1.0000
  H   H429      1.0  0.36515  0.05026  0.30820  1.0000
  C   C361      1.0  0.65854  0.11892  0.27012  1.0000
  C   C362      1.0  0.46597  0.05579  0.36994  1.0000
  C   C363      1.0  0.61474  0.16584  0.49298  1.0000
  H   H430      1.0  0.49265  0.17928  0.32424  1.0000
  C   C364      1.0  0.34514  0.12308  0.27225  1.0000
  S   S113      1.0  0.37117  0.11859  0.28053  1.0000
  C   C365      1.0  0.35020  0.05263  0.29799  1.0000
  H   H431      1.0  0.37791  0.06910  0.43884  1.0000
  H   H432      1.0  0.40347  0.03033  0.28686  1.0000
  C   C366      1.0  0.36835  0.07309  0.46114  1.0000
  H   H433      1.0  0.42971  0.13355  0.26525  1.0000
  H   H434      1.0  0.36230  0.08883  0.45691  1.0000
  C   C367      1.0  0.51333  0.12557  0.33236  1.0000
  C   C368      1.0  0.49644  0.11791  0.31803  1.0000
  C   C369      1.0  0.47744  0.12208  0.33246  1.0000
  C   C370      1.0  0.47505  0.13461  0.36070  1.0000
  C   C371      1.0  0.49194  0.14218  0.37513  1.0000
  C   C372      1.0  0.51104  0.13747  0.36135  1.0000
  H   H435      1.0  0.49804  0.10883  0.29542  1.0000
  H   H436      1.0  0.46459  0.11626  0.32093  1.0000
  H   H437      1.0  0.49022  0.15200  0.39682  1.0000
  H   H438      1.0  0.52388  0.14357  0.37248  1.0000
  C   C373      1.0  0.37285  0.13771  0.49210  1.0000
  C   C374      1.0  0.56703  0.02870  0.33039  1.0000
  C   C375      1.0  0.57687  0.04336  0.34710  1.0000
  C   C376      1.0  0.58554  0.03954  0.37875  1.0000
  C   C377      1.0  0.58452  0.02082  0.39359  1.0000
  H   H439      1.0  0.63309  0.11591  0.45556  1.0000
  H   H440      1.0  0.56048  0.03171  0.30575  1.0000
  H   H441      1.0  0.57760  0.05759  0.33539  1.0000
  H   H442      1.0  0.59153  0.12369  0.47975  1.0000
  H   H443      1.0  0.66752  0.09599  0.23379  1.0000
  C   C378      1.0  0.40738  0.04217  0.33702  1.0000
  C   C379      1.0  0.40799  0.03791  0.37160  1.0000
  C   C380      1.0  0.40454  0.01890  0.38281  1.0000
  H   H444      1.0  0.41001  0.05689  0.32828  1.0000
  H   H445      1.0  0.48834  0.01243  0.33911  1.0000
  C   C381      1.0  0.34048  0.03655  0.28619  1.0000
  C   C382      1.0  0.64799  0.10750  0.45278  1.0000
  C   C383      1.0  0.39689  0.08312  0.49085  1.0000
  H   H446      1.0  0.40850  0.14261  0.28934  1.0000
  C   C384      1.0  0.59824  0.13538  0.49330  1.0000
  H   H447      1.0  0.65929  0.11598  0.46567  1.0000
  H   H448      1.0  0.45474  0.02876  0.35216  1.0000
  H   H449      1.0  0.43211  0.13665  0.30996  1.0000
  H   H450      1.0  0.51804  0.02989  0.34885  1.0000
  C   C385      1.0  0.48680  0.02739  0.34956  1.0000
  H   H451      1.0  0.40744  0.07726  0.47079  1.0000
  H   H452      1.0  0.50665  0.09737  0.37897  1.0000
  H   H453      1.0  0.51064  0.16102  0.27784  1.0000
  H   H454      1.0  0.66863  0.06027  0.46386  1.0000
  H   H455      1.0  0.35549  0.06381  0.46100  1.0000
  N   N26       1.0  0.64809  0.08683  0.46588  1.0000
  C   C386      1.0  0.50376  0.03748  0.35561  1.0000
  C   C387      1.0  0.49448  0.16229  0.27826  1.0000
  C   C388      1.0  0.58753  0.03998  0.49302  1.0000
  C   C389      1.0  0.39165  0.14488  0.49514  1.0000
  H   H456      1.0  0.58017  0.01087  0.48110  1.0000
  H   H457      1.0  0.34801  0.11369  0.22023  1.0000
  H   H458      1.0  0.59131  0.01770  0.41797  1.0000
  C   C390      1.0  0.40018  0.00421  0.35962  1.0000
  N   N27       1.0  0.43026  0.16406  0.28267  1.0000
  C   C391      1.0  0.42107  0.17609  0.31105  1.0000
  C   C392      1.0  0.42118  0.17220  0.25089  1.0000
  C   C393      1.0  0.45224  0.16405  0.28121  1.0000
  C   C394      1.0  0.46351  0.17348  0.30608  1.0000
  C   C395      1.0  0.46312  0.15372  0.25485  1.0000
  C   C396      1.0  0.48430  0.17260  0.30439  1.0000
  C   C397      1.0  0.48391  0.15290  0.25350  1.0000
  C   C398      1.0  0.38653  0.03423  0.47664  1.0000
  H   H459      1.0  0.42445  0.19193  0.30950  1.0000
  H   H460      1.0  0.40455  0.17597  0.31123  1.0000
  H   H461      1.0  0.42626  0.17002  0.33600  1.0000
  H   H462      1.0  0.40459  0.17303  0.25183  1.0000
  H   H463      1.0  0.42556  0.16279  0.22857  1.0000
  H   H464      1.0  0.42563  0.18746  0.24601  1.0000
  C   C399      1.0  0.40368  0.02717  0.31363  1.0000
  H   H465      1.0  0.45565  0.14579  0.23551  1.0000
  H   H466      1.0  0.45674  0.18100  0.32784  1.0000
  H   H467      1.0  0.65153  0.10774  0.42534  1.0000
  C   C400      1.0  0.46793  0.03652  0.35680  1.0000
  N   N28       1.0  0.52050  0.06736  0.37599  1.0000
  C   C401      1.0  0.53486  0.05480  0.39698  1.0000
  C   C402      1.0  0.52994  0.07126  0.34319  1.0000
  C   C403      1.0  0.51660  0.08673  0.39387  1.0000
  C   C404      1.0  0.50232  0.05699  0.36977  1.0000
  C   C405      1.0  0.66794  0.07648  0.45840  1.0000
  C   C406      1.0  0.48280  0.06597  0.37640  1.0000
  H   H468      1.0  0.34842  0.08431  0.30555  1.0000
  H   H469      1.0  0.48002  0.08089  0.38641  1.0000
  C   C407      1.0  0.60619  0.15076  0.47518  1.0000
  H   H470      1.0  0.54024  0.04064  0.38427  1.0000
  H   H471      1.0  0.54849  0.06250  0.40269  1.0000
  H   H472      1.0  0.52805  0.05090  0.42135  1.0000
  H   H473      1.0  0.53442  0.05733  0.32905  1.0000
  H   H474      1.0  0.54359  0.07932  0.34644  1.0000
  H   H475      1.0  0.51961  0.08059  0.32659  1.0000
  H   H476      1.0  0.50969  0.08486  0.41900  1.0000
  H   H477      1.0  0.53052  0.09422  0.39793  1.0000
  H   H478      1.0  0.49198  0.14451  0.23368  1.0000
  H   H479      1.0  0.65393  0.14403  0.30378  1.0000
  H   H480      1.0  0.39196  0.09887  0.48449  1.0000
  H   H481      1.0  0.58728  0.04444  0.46671  1.0000
  H   H482      1.0  0.38054  0.03663  0.45151  1.0000
  H   H483      1.0  0.61766  0.08467  0.45052  1.0000
  H   H484      1.0  0.45124  0.06293  0.37517  1.0000
  H   H485      1.0  0.40027  0.14724  0.47272  1.0000
  C   C408      1.0  0.33779  0.11942  0.23967  1.0000
  C   C409      1.0  0.39382  0.01470  0.48449  1.0000
  C   C410      1.0  0.58336  0.02065  0.50175  1.0000
  C   C411      1.0  0.63276  0.07681  0.44694  1.0000
  H   H486      1.0  0.63584  0.07630  0.41934  1.0000
  C   C412      1.0  0.56582  0.01013  0.34533  1.0000
  C   C413      1.0  0.38729  0.04997  0.50060  1.0000
  C   C414      1.0  0.66381  0.13647  0.28544  1.0000
  H   H487      1.0  0.33707  0.13340  0.32227  1.0000
  H   H488      1.0  0.34802  0.02164  0.28726  1.0000
  H   H489      1.0  0.63189  0.06106  0.45450  1.0000
  H   H490      1.0  0.65714  0.16527  0.04247  1.0000
  H   H491      1.0  0.66173  0.16222  0.10309  1.0000
  N   N29       1.0  0.37977  0.07083  0.49327  1.0000
  C   C415      1.0  0.34070  0.07181  0.29657  1.0000
  C   C416      1.0  0.57466  0.00611  0.37688  1.0000
  H   H492      1.0  0.39288  0.00285  0.46602  1.0000
  Fe  Fe57      1.0  0.39400  0.12951  0.63492  1.0000
  S   S114      1.0  0.40815  0.12856  0.68684  1.0000
  S   S115      1.0  0.39660  0.15364  0.59637  1.0000
  Fe  Fe58      1.0  0.38365  0.08718  0.63798  1.0000
  S   S116      1.0  0.39767  0.08239  0.68892  1.0000
  S   S117      1.0  0.36833  0.06316  0.61178  1.0000
  Fe  Fe59      1.0  0.38137  0.11211  0.70171  1.0000
  Fe  Fe60      1.0  0.42293  0.09893  0.66968  1.0000
  S   S118      1.0  0.45528  0.08515  0.67138  1.0000
  S   S119      1.0  0.36628  0.11588  0.65116  1.0000
  S   S120      1.0  0.40996  0.10088  0.61739  1.0000
  Fe  Fe61      1.0  0.56842  0.11731  0.67772  1.0000
  S   S121      1.0  0.57896  0.10704  0.62600  1.0000
  S   S122      1.0  0.53644  0.12581  0.69461  1.0000
  Fe  Fe62      1.0  0.61155  0.12055  0.70479  1.0000
  S   S123      1.0  0.62513  0.11073  0.65534  1.0000
  S   S124      1.0  0.62878  0.12843  0.75222  1.0000
  Fe  Fe63      1.0  0.60070  0.13030  0.63050  1.0000
  S   S125      1.0  0.60950  0.15209  0.59123  1.0000
  Fe  Fe64      1.0  0.60242  0.08836  0.65495  1.0000
  S   S126      1.0  0.61311  0.05697  0.64194  1.0000
  S   S127      1.0  0.58864  0.14220  0.68022  1.0000
  S   S128      1.0  0.59032  0.09655  0.70635  1.0000
  C   C417      1.0  0.65502  0.12659  0.75872  1.0000
  H   H493      1.0  0.39059  0.00807  0.70626  1.0000
  C   C418      1.0  0.64040  0.06579  0.55354  1.0000
  H   H494      1.0  0.46915  0.01100  0.70439  1.0000
  H   H495      1.0  0.65237  0.13493  0.81126  1.0000
  C   C419      1.0  0.47960  0.13764  0.59985  1.0000
  C   C420      1.0  0.44854  0.14064  0.63060  1.0000
  C   C421      1.0  0.55978  0.03489  0.65303  1.0000
  C   C422      1.0  0.57450  0.04799  0.64752  1.0000
  C   C423      1.0  0.59463  0.04112  0.65034  1.0000
  C   C424      1.0  0.60004  0.02129  0.65890  1.0000
  C   C425      1.0  0.41432  0.02453  0.63855  1.0000
  S   S129      1.0  0.36415  0.11036  0.75134  1.0000
  H   H496      1.0  0.57030  0.06328  0.64049  1.0000
  C   C426      1.0  0.66842  0.12158  0.73253  1.0000
  C   C427      1.0  0.49049  0.12065  0.58539  1.0000
  C   C428      1.0  0.38289  0.04102  0.62009  1.0000
  C   C429      1.0  0.40263  0.04194  0.63021  1.0000
  C   C430      1.0  0.37488  0.02259  0.61766  1.0000
  H   H497      1.0  0.40903  0.05608  0.63148  1.0000
  H   H498      1.0  0.35959  0.02187  0.60975  1.0000
  C   C431      1.0  0.47761  0.09714  0.67636  1.0000
  C   C432      1.0  0.49576  0.08735  0.66531  1.0000
  C   C433      1.0  0.51393  0.09596  0.67021  1.0000
  C   C434      1.0  0.51410  0.11440  0.68657  1.0000
  C   C435      1.0  0.49598  0.12409  0.69781  1.0000
  C   C436      1.0  0.47784  0.11556  0.69273  1.0000
  H   H499      1.0  0.49579  0.07297  0.65306  1.0000
  H   H500      1.0  0.52774  0.08829  0.66153  1.0000
  H   H501      1.0  0.49598  0.13828  0.71071  1.0000
  H   H502      1.0  0.46410  0.12305  0.70213  1.0000
  H   H503      1.0  0.63408  0.08190  0.59968  1.0000
  C   C437      1.0  0.60748  0.15071  0.54665  1.0000
  C   C438      1.0  0.59882  0.13540  0.52916  1.0000
  C   C439      1.0  0.33855  0.11759  0.75982  1.0000
  H   H504      1.0  0.59261  0.12367  0.54316  1.0000
  H   H505      1.0  0.51923  0.10447  0.57808  1.0000
  C   C440      1.0  0.38774  0.14689  0.55636  1.0000
  H   H506      1.0  0.33663  0.09506  0.79787  1.0000
  C   C441      1.0  0.34488  0.03505  0.70922  1.0000
  H   H507      1.0  0.45662  0.17370  0.59919  1.0000
  C   C442      1.0  0.36931  0.13901  0.55333  1.0000
  H   H508      1.0  0.63997  0.18696  0.62268  1.0000
  H   H509      1.0  0.57304  0.06048  0.73131  1.0000
  C   C443      1.0  0.39888  0.14988  0.52718  1.0000
  H   H510      1.0  0.45093  0.12541  0.64134  1.0000
  H   H511      1.0  0.54421  0.04010  0.65038  1.0000
  N   N30       1.0  0.65221  0.17015  0.66529  1.0000
  H   H512      1.0  0.43220  0.14451  0.62960  1.0000
  H   H513      1.0  0.34703  0.12964  0.51903  1.0000
  H   H514      1.0  0.45450  0.12682  0.54864  1.0000
  N   N31       1.0  0.45770  0.14146  0.59671  1.0000
  H   H515      1.0  0.37454  0.08139  0.54473  1.0000
  C   C444      1.0  0.55728  0.05703  0.72825  1.0000
  C   C445      1.0  0.58344  0.01446  0.53609  1.0000
  C   C446      1.0  0.36169  0.13491  0.52126  1.0000
  C   C447      1.0  0.48841  0.06779  0.74501  1.0000
  C   C448      1.0  0.44847  0.12682  0.57478  1.0000
  H   H516      1.0  0.45457  0.15111  0.64890  1.0000
  H   H517      1.0  0.64678  0.14958  0.62495  1.0000
  H   H518      1.0  0.45867  0.00678  0.66351  1.0000
  C   C449      1.0  0.61540  0.16580  0.52826  1.0000
  H   H519      1.0  0.35929  0.07078  0.72572  1.0000
  C   C450      1.0  0.59249  0.04789  0.55169  1.0000
  H   H520      1.0  0.46975  0.04392  0.73788  1.0000
  C   C451      1.0  0.51136  0.14779  0.62172  1.0000
  H   H521      1.0  0.46005  0.16317  0.55752  1.0000
  H   H522      1.0  0.65995  0.13864  0.66063  1.0000
  H   H523      1.0  0.42951  0.02549  0.64661  1.0000
  C   C452      1.0  0.39633  0.04499  0.53224  1.0000
  C   C453      1.0  0.36642  0.07890  0.52083  1.0000
  H   H524      1.0  0.51950  0.15790  0.63674  1.0000
  C   C454      1.0  0.65129  0.18791  0.64316  1.0000
  H   H525      1.0  0.48338  0.10939  0.57158  1.0000
  H   H526      1.0  0.61561  0.01598  0.66115  1.0000
  H   H527      1.0  0.62203  0.17771  0.54136  1.0000
  C   C455      1.0  0.63679  0.08301  0.57286  1.0000
  H   H528      1.0  0.56236  0.08867  0.76702  1.0000
  H   H529      1.0  0.63125  0.15474  0.69411  1.0000
  C   C456      1.0  0.66261  0.13104  0.79079  1.0000
  H   H530      1.0  0.35873  0.09366  0.51423  1.0000
  C   C457      1.0  0.37461  0.01115  0.70904  1.0000
  H   H531      1.0  0.39774  0.05618  0.55155  1.0000
  N   N32       1.0  0.54495  0.06362  0.75781  1.0000
  C   C458      1.0  0.55337  0.05330  0.78835  1.0000
  C   C459      1.0  0.51120  0.11760  0.58890  1.0000
  C   C460      1.0  0.54667  0.08529  0.76261  1.0000
  C   C461      1.0  0.52424  0.05855  0.75223  1.0000
  C   C462      1.0  0.56523  0.01513  0.66223  1.0000
  C   C463      1.0  0.52007  0.03832  0.74863  1.0000
  C   C464      1.0  0.49070  0.15102  0.61836  1.0000
  C   C465      1.0  0.58534  0.00837  0.66530  1.0000
  H   H532      1.0  0.41306  0.15614  0.52926  1.0000
  H   H533      1.0  0.56859  0.05762  0.79427  1.0000
  H   H534      1.0  0.54379  0.05696  0.81079  1.0000
  H   H535      1.0  0.55489  0.03682  0.78532  1.0000
  C   C466      1.0  0.52159  0.13117  0.60692  1.0000
  C   C467      1.0  0.50777  0.07321  0.74995  1.0000
  H   H536      1.0  0.35480  0.06864  0.52656  1.0000
  H   H537      1.0  0.53186  0.02636  0.74921  1.0000
  H   H538      1.0  0.54162  0.09389  0.73977  1.0000
  C   C468      1.0  0.64012  0.10315  0.52304  1.0000
  H   H539      1.0  0.55773  0.04069  0.72388  1.0000
  C   C469      1.0  0.65813  0.15218  0.64460  1.0000
  C   C470      1.0  0.63175  0.16817  0.67792  1.0000
  C   C471      1.0  0.40628  0.00611  0.63703  1.0000
  H   H540      1.0  0.53783  0.09132  0.78464  1.0000
  C   C472      1.0  0.59202  0.05358  0.51791  1.0000
  C   C473      1.0  0.50064  0.03310  0.74387  1.0000
  C   C474      1.0  0.58839  0.02862  0.56066  1.0000
  H   H541      1.0  0.50939  0.08901  0.75133  1.0000
  H   H542      1.0  0.45063  0.11148  0.58533  1.0000
  H   H543      1.0  0.40535  0.08339  0.51495  1.0000
  H   H544      1.0  0.64032  0.05137  0.56564  1.0000
  H   H545      1.0  0.36054  0.13684  0.57565  1.0000
  C   C475      1.0  0.34917  0.07105  0.70342  1.0000
  H   H546      1.0  0.47607  0.07922  0.74287  1.0000
  H   H547      1.0  0.43205  0.13033  0.57264  1.0000
  H   H548      1.0  0.63351  0.11499  0.57282  1.0000
  H   H549      1.0  0.43616  0.16445  0.57791  1.0000
  H   H550      1.0  0.62585  0.18151  0.69259  1.0000
  H   H551      1.0  0.66285  0.11775  0.70799  1.0000
  H   H552      1.0  0.58921  0.02484  0.58711  1.0000
  H   H553      1.0  0.62103  0.16657  0.65682  1.0000
  H   H554      1.0  0.41031  0.02199  0.56418  1.0000
  H   H555      1.0  0.55137  0.06455  0.70483  1.0000
  C   C476      1.0  0.40368  0.02546  0.53971  1.0000
  C   C477      1.0  0.45252  0.16154  0.58221  1.0000
  H   H556      1.0  0.48344  0.16392  0.63094  1.0000
  C   C478      1.0  0.48483  0.04783  0.74198  1.0000
  C   C479      1.0  0.63660  0.10162  0.55768  1.0000
  H   H557      1.0  0.37582  0.04197  0.70079  1.0000
  H   H558      1.0  0.64720  0.20178  0.65789  1.0000
  C   C480      1.0  0.36584  0.03067  0.70606  1.0000
  H   H559      1.0  0.35822  0.06929  0.68007  1.0000
  H   H560      1.0  0.53757  0.12858  0.61026  1.0000
  H   H561      1.0  0.64670  0.17204  0.73618  1.0000
  H   H562      1.0  0.59611  0.05842  0.57115  1.0000
  H   H563      1.0  0.66572  0.18964  0.63049  1.0000
  H   H564      1.0  0.34144  0.08634  0.70228  1.0000
  H   H565      1.0  0.33563  0.14198  0.72479  1.0000
  C   C481      1.0  0.66697  0.17218  0.69261  1.0000
  H   H566      1.0  0.59519  0.06855  0.51102  1.0000
  C   C482      1.0  0.66175  0.17306  0.72742  1.0000
  H   H567      1.0  0.63949  0.11808  0.51297  1.0000
  H   H568      1.0  0.49789  0.01754  0.74161  1.0000
  C   C483      1.0  0.38659  0.00507  0.62632  1.0000
  C   C484      1.0  0.64398  0.06712  0.51889  1.0000
  C   C485      1.0  0.40239  0.01035  0.51593  1.0000
  H   H569      1.0  0.64667  0.05332  0.50497  1.0000
  H   H570      1.0  0.66795  0.01747  0.78083  1.0000
  H   H571      1.0  0.54905  0.00420  0.56138  1.0000
  H   H572      1.0  0.50242  0.00352  0.67643  1.0000
  H   H573      1.0  0.56664  0.00283  0.59549  1.0000
  C   C486      1.0  0.64403  0.08587  0.50255  1.0000
  Fe  Fe65      1.0  0.36269  0.92956  0.33891  1.0000
  S   S130      1.0  0.36439  0.96046  0.35996  1.0000
  H   H574      1.0  0.45523  0.93000  0.23792  1.0000
  Fe  Fe66      1.0  0.40845  0.92085  0.34360  1.0000
  S   S131      1.0  0.41295  0.95071  0.36480  1.0000
  S   S132      1.0  0.43556  0.89912  0.33509  1.0000
  Fe  Fe67      1.0  0.38646  0.94645  0.39715  1.0000
  S   S133      1.0  0.38716  0.95833  0.45055  1.0000
  Fe  Fe68      1.0  0.39058  0.96180  0.32581  1.0000
  S   S134      1.0  0.39583  0.98915  0.29621  1.0000
  S   S135      1.0  0.38334  0.91533  0.37905  1.0000
  S   S136      1.0  0.38763  0.93199  0.30169  1.0000
  Fe  Fe69      1.0  0.58458  0.93923  0.40059  1.0000
  S   S137      1.0  0.58473  0.91041  0.37211  1.0000
  S   S138      1.0  0.60082  0.94191  0.45036  1.0000
  Fe  Fe70      1.0  0.56507  0.96217  0.34243  1.0000
  S   S139      1.0  0.56440  0.93525  0.30895  1.0000
  H   H575      1.0  0.47299  0.99331  0.26627  1.0000
  Fe  Fe71      1.0  0.55348  0.92126  0.35608  1.0000
  S   S140      1.0  0.52943  0.89957  0.35551  1.0000
  Fe  Fe72      1.0  0.59572  0.92730  0.32783  1.0000
  S   S141      1.0  0.62197  0.91242  0.29758  1.0000
  S   S142      1.0  0.55255  0.94872  0.38858  1.0000
  S   S143      1.0  0.59706  0.95558  0.35726  1.0000
  H   H576      1.0  0.42400  0.95167  0.28364  1.0000
  C   C487      1.0  0.44984  0.94559  0.23139  1.0000
  H   H577      1.0  0.43502  0.91296  0.40470  1.0000
  C   C488      1.0  0.65836  0.90981  0.26542  1.0000
  H   H578      1.0  0.43019  0.95131  0.44205  1.0000
  C   C489      1.0  0.38424  0.92258  0.48360  1.0000
  C   C490      1.0  0.44149  0.92227  0.48804  1.0000
  H   H579      1.0  0.45467  0.95348  0.45715  1.0000
  C   C491      1.0  0.44062  0.97893  0.25042  1.0000
  H   H580      1.0  0.38315  0.91576  0.45903  1.0000
  H   H581      1.0  0.41656  0.92108  0.43513  1.0000
  H   H582      1.0  0.33963  0.92436  0.26056  1.0000
  H   H583      1.0  0.63597  0.95262  0.29863  1.0000
  H   H584      1.0  0.43040  0.89758  0.44069  1.0000
  C   C492      1.0  0.64711  0.94258  0.28632  1.0000
  H   H585      1.0  0.44562  0.93630  0.29601  1.0000
  C   C493      1.0  0.46148  0.90143  0.34015  1.0000
  C   C494      1.0  0.46965  0.91885  0.35138  1.0000
  C   C495      1.0  0.49060  0.91907  0.35534  1.0000
  C   C496      1.0  0.50331  0.90185  0.34813  1.0000
  C   C497      1.0  0.49492  0.88475  0.33685  1.0000
  C   C498      1.0  0.47431  0.88456  0.33278  1.0000
  H   H586      1.0  0.45992  0.93200  0.35719  1.0000
  H   H587      1.0  0.49688  0.93229  0.36459  1.0000
  H   H588      1.0  0.50447  0.87134  0.33149  1.0000
  H   H589      1.0  0.46827  0.87105  0.32415  1.0000
  H   H590      1.0  0.42491  0.97734  0.24267  1.0000
  C   C499      1.0  0.64377  0.92251  0.28202  1.0000
  C   C500      1.0  0.57092  0.92609  0.48610  1.0000
  H   H591      1.0  0.66283  0.90354  0.44326  1.0000
  H   H592      1.0  0.64532  0.92486  0.44687  1.0000
  C   C501      1.0  0.48387  0.92231  0.46164  1.0000
  C   C502      1.0  0.50442  0.94410  0.28770  1.0000
  C   C503      1.0  0.48111  0.97919  0.27186  1.0000
  H   H593      1.0  0.33990  0.95119  0.48399  1.0000
  N   N33       1.0  0.65324  0.91672  0.39556  1.0000
  H   H594      1.0  0.51586  0.92123  0.46714  1.0000
  H   H595      1.0  0.66747  0.96518  0.27860  1.0000
  C   C504      1.0  0.58962  0.93356  0.48716  1.0000
  N   N34       1.0  0.44689  0.92300  0.45181  1.0000
  H   H596      1.0  0.64032  0.93645  0.35722  1.0000
  H   H597      1.0  0.58517  0.97846  0.49944  1.0000
  H   H598      1.0  0.51352  0.93053  0.29418  1.0000
  C   C505      1.0  0.46739  0.91356  0.44710  1.0000
  C   C506      1.0  0.51271  0.96230  0.28893  1.0000
  C   C507      1.0  0.44017  0.95184  0.28927  1.0000
  C   C508      1.0  0.50342  0.91402  0.45675  1.0000
  H   H599      1.0  0.35061  0.94050  0.43016  1.0000
  H   H600      1.0  0.63189  0.94248  0.39904  1.0000
  C   C509      1.0  0.63704  0.90329  0.39195  1.0000
  H   H601      1.0  0.49425  0.87390  0.40908  1.0000
  H   H602      1.0  0.45100  0.94536  0.41447  1.0000
  H   H603      1.0  0.57369  0.99175  0.38857  1.0000
  C   C510      1.0  0.50708  0.89661  0.43787  1.0000
  H   H604      1.0  0.44800  0.98560  0.22864  1.0000
  H   H605      1.0  0.48180  0.93577  0.47658  1.0000
  H   H606      1.0  0.47864  0.92883  0.27875  1.0000
  C   C511      1.0  0.66498  0.94969  0.27473  1.0000
  H   H607      1.0  0.65593  0.89427  0.26187  1.0000
  H   H608      1.0  0.62329  0.90937  0.40534  1.0000
  S   S144      1.0  0.55283  0.99226  0.32475  1.0000
  C   C512      1.0  0.44573  0.94415  0.44094  1.0000
  H   H609      1.0  0.52818  0.96289  0.29607  1.0000
  N   N35       1.0  0.45110  0.95949  0.26037  1.0000
  C   C513      1.0  0.49124  0.88726  0.42429  1.0000
  H   H610      1.0  0.50782  0.99385  0.28228  1.0000
  C   C514      1.0  0.43164  0.91315  0.43222  1.0000
  C   C515      1.0  0.47220  0.96080  0.27006  1.0000
  H   H611      1.0  0.43956  0.98971  0.27192  1.0000
  C   C516      1.0  0.48444  0.94330  0.27862  1.0000
  H   H612      1.0  0.52226  0.89052  0.43309  1.0000
  C   C517      1.0  0.47166  0.89554  0.42862  1.0000
  H   H613      1.0  0.56334  0.92478  0.46217  1.0000
  H   H614      1.0  0.46024  0.88778  0.41635  1.0000
  C   C518      1.0  0.64519  0.93680  0.38412  1.0000
  H   H615      1.0  0.43418  0.94496  0.22259  1.0000
  H   H616      1.0  0.63311  0.90126  0.36486  1.0000
  H   H617      1.0  0.45882  0.95019  0.20968  1.0000
  C   C519      1.0  0.38618  0.94303  0.48634  1.0000
  H   H618      1.0  0.39676  0.98988  0.36877  1.0000
  C   C520      1.0  0.50111  0.97979  0.28113  1.0000
  H   H619      1.0  0.64096  0.88828  0.40265  1.0000
  H   H620      1.0  0.44156  0.96137  0.31205  1.0000
  C   C521      1.0  0.65832  0.91829  0.43189  1.0000
  H   H621      1.0  0.33918  0.90386  0.39797  1.0000
  H   H622      1.0  0.35437  0.90279  0.43535  1.0000
  H   H623      1.0  0.65624  0.94800  0.38715  1.0000
  H   H624      1.0  0.42614  0.92923  0.49267  1.0000
  C   C522      1.0  0.33874  0.90372  0.42610  1.0000
  H   H625      1.0  0.44204  0.90661  0.49714  1.0000
  Fe  Fe73      1.0  0.38963  0.92079  0.63060  1.0000
  S   S145      1.0  0.38735  0.90650  0.68176  1.0000
  S   S146      1.0  0.38318  0.90518  0.58160  1.0000
  Fe  Fe74      1.0  0.40539  0.95763  0.65945  1.0000
  S   S147      1.0  0.40419  0.94681  0.71267  1.0000
  S   S148      1.0  0.42126  0.98485  0.64913  1.0000
  Fe  Fe75      1.0  0.41746  0.91781  0.69150  1.0000
  S   S149      1.0  0.44243  0.89941  0.71843  1.0000
  Fe  Fe76      1.0  0.37407  0.93677  0.69873  1.0000
  S   S150      1.0  0.34949  0.94489  0.73769  1.0000
  S   S151      1.0  0.42065  0.92929  0.63917  1.0000
  S   S152      1.0  0.37436  0.95035  0.64670  1.0000
  Fe  Fe77      1.0  0.56106  0.96754  0.67396  1.0000
  S   S153      1.0  0.57194  0.95395  0.72290  1.0000
  H   H626      1.0  0.58964  0.99322  0.67294  1.0000
  Fe  Fe78      1.0  0.56842  0.92890  0.63417  1.0000
  S   S154      1.0  0.58017  0.91194  0.67990  1.0000
  S   S155      1.0  0.55983  0.91518  0.58454  1.0000
  Fe  Fe79      1.0  0.55428  0.92852  0.70689  1.0000
  S   S156      1.0  0.53371  0.91344  0.74174  1.0000
  Fe  Fe80      1.0  0.59700  0.93880  0.69188  1.0000
  S   S157      1.0  0.63061  0.93936  0.70186  1.0000
  S   S158      1.0  0.54167  0.94348  0.66069  1.0000
  S   S159      1.0  0.58689  0.95445  0.64331  1.0000
  C   C523      1.0  0.47261  0.96558  0.73532  1.0000
  C   C524      1.0  0.64696  0.93527  0.73735  1.0000
  H   H627      1.0  0.33838  0.88423  0.75889  1.0000
  C   C525      1.0  0.46720  0.90559  0.72469  1.0000
  C   C526      1.0  0.47806  0.89623  0.75121  1.0000
  C   C527      1.0  0.49812  0.89936  0.75636  1.0000
  C   C528      1.0  0.50794  0.91146  0.73452  1.0000
  C   C529      1.0  0.49720  0.92093  0.70772  1.0000
  C   C530      1.0  0.47676  0.91819  0.70308  1.0000
  H   H628      1.0  0.47088  0.88641  0.76795  1.0000
  H   H629      1.0  0.50618  0.89197  0.77710  1.0000
  H   H630      1.0  0.50457  0.93035  0.69071  1.0000
  H   H631      1.0  0.46855  0.92521  0.68225  1.0000
  H   H632      1.0  0.48268  0.95507  0.65458  1.0000
  H   H633      1.0  0.54886  0.88067  0.67519  1.0000
  C   C531      1.0  0.38349  0.91096  0.51295  1.0000
  S   S160      1.0  0.54689  0.99880  0.66878  1.0000
  C   C532      1.0  0.33717  0.93719  0.53111  1.0000
  C   C533      1.0  0.50371  0.88403  0.63531  1.0000
  H   H634      1.0  0.55834  0.98055  0.57901  1.0000
  H   H635      1.0  0.45734  0.91246  0.59147  1.0000
  C   C534      1.0  0.57161  0.92216  0.54733  1.0000
  H   H636      1.0  0.40812  0.99526  0.52189  1.0000
  H   H637      1.0  0.56890  0.96682  0.52698  1.0000
  C   C535      1.0  0.38771  0.95168  0.51838  1.0000
  H   H638      1.0  0.51964  0.84748  0.61970  1.0000
  C   C536      1.0  0.38497  0.91969  0.54505  1.0000
  C   C537      1.0  0.38733  0.94004  0.54763  1.0000
  H   H639      1.0  0.45029  0.99403  0.69908  1.0000
  H   H640      1.0  0.38842  0.94692  0.57223  1.0000
  C   C538      1.0  0.51258  0.96325  0.75462  1.0000
  C   C539      1.0  0.64047  0.92899  0.76881  1.0000
  H   H641      1.0  0.54758  0.91439  0.51520  1.0000
  H   H642      1.0  0.60977  0.98270  0.54470  1.0000
  H   H643      1.0  0.59803  0.93058  0.57226  1.0000
  H   H644      1.0  0.36055  0.90770  0.78358  1.0000
  H   H645      1.0  0.62497  0.92653  0.77224  1.0000
  H   H646      1.0  0.50992  0.87363  0.70187  1.0000
  H   H647      1.0  0.38159  0.89521  0.51090  1.0000
  C   C540      1.0  0.59695  0.98388  0.56248  1.0000
  H   H648      1.0  0.60161  0.99164  0.58569  1.0000
  H   H649      1.0  0.64892  0.92059  0.81982  1.0000
  H   H650      1.0  0.45158  0.93035  0.50432  1.0000
  C   C541      1.0  0.48640  0.97400  0.71370  1.0000
  H   H651      1.0  0.66163  0.91218  0.93373  1.0000
  H   H652      1.0  0.51830  0.97835  0.70959  1.0000
  H   H653      1.0  0.52952  0.90057  0.67369  1.0000
  C   C542      1.0  0.48399  0.88241  0.64711  1.0000
  H   H654      1.0  0.61393  0.94072  0.51920  1.0000
  C   C543      1.0  0.59037  0.92949  0.54835  1.0000
  C   C544      1.0  0.49869  0.95496  0.77502  1.0000
  H   H655      1.0  0.35276  0.92321  0.83910  1.0000
  H   H656      1.0  0.45705  0.96557  0.72854  1.0000
  C   C545      1.0  0.46757  0.89257  0.63130  1.0000
  C   C546      1.0  0.56201  0.92026  0.51613  1.0000
  C   C547      1.0  0.47874  0.95618  0.76546  1.0000
  C   C548      1.0  0.50664  0.97269  0.72441  1.0000
  H   H657      1.0  0.54380  0.84966  0.63834  1.0000
  H   H658      1.0  0.34300  0.94942  0.54477  1.0000
  H   H659      1.0  0.50355  0.94693  0.79767  1.0000
  C   C549      1.0  0.48927  0.90634  0.59097  1.0000
  H   H660      1.0  0.52032  0.89798  0.59591  1.0000
  C   C550      1.0  0.51692  0.86296  0.68292  1.0000
  H   H661      1.0  0.38899  0.96749  0.52069  1.0000
  H   H662      1.0  0.53061  0.85574  0.69505  1.0000
  H   H663      1.0  0.50686  0.85098  0.67839  1.0000
  H   H664      1.0  0.54345  0.89338  0.63666  1.0000
  H   H665      1.0  0.38036  0.99086  0.62486  1.0000
  H   H666      1.0  0.48075  0.87377  0.66905  1.0000
  H   H667      1.0  0.49134  0.91562  0.56920  1.0000
  C   C551      1.0  0.53642  0.88756  0.65944  1.0000
  H   H668      1.0  0.52820  0.96161  0.76166  1.0000
  H   H669      1.0  0.55956  0.98861  0.50476  1.0000
  N   N36       1.0  0.57900  0.99422  0.54655  1.0000
  C   C552      1.0  0.49568  0.99162  0.66185  1.0000
  H   H670      1.0  0.45272  0.89139  0.64130  1.0000
  C   C553      1.0  0.50581  0.89620  0.60655  1.0000
  C   C554      1.0  0.53052  0.85824  0.62718  1.0000
  H   H671      1.0  0.59428  0.96852  0.57037  1.0000
  H   H672      1.0  0.53566  0.86517  0.60363  1.0000
  C   C555      1.0  0.47135  0.96776  0.65954  1.0000
  C   C556      1.0  0.34769  0.90372  0.79766  1.0000
  N   N37       1.0  0.52147  0.87334  0.65118  1.0000
  C   C557      1.0  0.47018  0.90455  0.60337  1.0000
  C   C558      1.0  0.65414  0.92563  0.79580  1.0000
  N   N38       1.0  0.47961  0.98308  0.68121  1.0000
  C   C559      1.0  0.34321  0.91251  0.82890  1.0000
  H   H673      1.0  0.65788  0.93885  0.93743  1.0000
  H   H674      1.0  0.45821  0.96158  0.67118  1.0000
  C   C560      1.0  0.59939  0.93509  0.51829  1.0000
  H   H675      1.0  0.36973  0.98037  0.71689  1.0000
  H   H676      1.0  0.50773  0.97999  0.65480  1.0000
  H   H677      1.0  0.46601  0.97401  0.63481  1.0000
  C   C561      1.0  0.56255  0.99556  0.57157  1.0000
  C   C562      1.0  0.36290  0.99549  0.71481  1.0000
  H   H678      1.0  0.46807  0.94913  0.78083  1.0000
  C   C563      1.0  0.46382  0.99941  0.68745  1.0000
  C   C564      1.0  0.57291  0.98161  0.51809  1.0000
  H   H679      1.0  0.66583  0.92718  0.89811  1.0000
  C   C565      1.0  0.66759  0.92635  0.92616  1.0000
  H   H680      1.0  0.49002  0.99854  0.63781  1.0000
  C   C566      1.0  0.34234  0.99921  0.71755  1.0000
  C   C567      1.0  0.66727  0.93830  0.73354  1.0000
  Fe  Fe81      1.0  0.77568  0.09724  0.20946  1.0000
  S   S161      1.0  0.74657  0.10455  0.18303  1.0000
  S   S162      1.0  0.78287  0.06714  0.23486  1.0000
  Fe  Fe82      1.0  0.78856  0.14001  0.20238  1.0000
  S   S163      1.0  0.75998  0.15012  0.17470  1.0000
  S   S164      1.0  0.81442  0.16039  0.20866  1.0000
  Fe  Fe83      1.0  0.74440  0.13266  0.21381  1.0000
  S   S165      1.0  0.71633  0.14663  0.24020  1.0000
  Fe  Fe84      1.0  0.76408  0.12127  0.14542  1.0000
  S   S166      1.0  0.75588  0.11467  0.09007  1.0000
  S   S167      1.0  0.77261  0.12450  0.24314  1.0000
  S   S168      1.0  0.79363  0.11193  0.17028  1.0000
  Fe  Fe85      1.0  0.87823  0.23392  0.33242  1.0000
  S   S169      1.0  0.87292  0.26631  0.34939  1.0000
  S   S170      1.0  0.85324  0.21278  0.32459  1.0000
  Fe  Fe86      1.0  0.92370  0.23458  0.33926  1.0000
  S   S171      1.0  0.92128  0.26642  0.35542  1.0000
  S   S172      1.0  0.95334  0.21572  0.34153  1.0000
  Fe  Fe87      1.0  0.89647  0.25853  0.38949  1.0000
  S   S173      1.0  0.90105  0.27084  0.44306  1.0000
  Fe  Fe88      1.0  0.89841  0.27174  0.31450  1.0000
  S   S174      1.0  0.90477  0.29540  0.27563  1.0000
  S   S175      1.0  0.90003  0.22621  0.37504  1.0000
  S   S176      1.0  0.90246  0.23988  0.29566  1.0000
  Fe  Fe89      1.0  0.88704  0.44560  0.16981  1.0000
  S   S177      1.0  0.91585  0.43933  0.14239  1.0000
  S   S178      1.0  0.86916  0.47506  0.16053  1.0000
  Fe  Fe90      1.0  0.89072  0.40473  0.20528  1.0000
  S   S179      1.0  0.92019  0.39570  0.18104  1.0000
  S   S180      1.0  0.87421  0.38556  0.24119  1.0000
  Fe  Fe91      1.0  0.92698  0.42710  0.19197  1.0000
  S   S181      1.0  0.95551  0.43742  0.21098  1.0000
  Fe  Fe92      1.0  0.90608  0.40882  0.13366  1.0000
  S   S182      1.0  0.91036  0.39228  0.08422  1.0000
  S   S183      1.0  0.89883  0.43536  0.22037  1.0000
  S   S184      1.0  0.87598  0.41585  0.15692  1.0000
  C   C568      1.0  0.90144  0.40608  0.04886  1.0000
  H   H681      1.0  0.99462  0.20514  0.35835  1.0000
  C   C569      1.0  0.89339  0.42582  0.05234  1.0000
  C   C570      1.0  0.80844  0.12125  0.02842  1.0000
  H   H682      1.0  0.89190  0.43260  0.07711  1.0000
  C   C571      1.0  0.89709  0.26059  0.48370  1.0000
  H   H683      1.0  0.67808  0.02807  0.24368  1.0000
  H   H684      1.0  0.88116  0.45223  0.02640  1.0000
  C   C572      1.0  0.69471  0.13502  0.25242  1.0000
  H   H685      1.0  0.87771  0.23875  0.46710  1.0000
  C   C573      1.0  0.89670  0.32095  0.26918  1.0000
  C   C574      1.0  0.90732  0.33186  0.24625  1.0000
  C   C575      1.0  0.90098  0.35178  0.23841  1.0000
  C   C576      1.0  0.88356  0.36096  0.25271  1.0000
  C   C577      1.0  0.87297  0.35014  0.27588  1.0000
  C   C578      1.0  0.87959  0.33029  0.28436  1.0000
  H   H686      1.0  0.92055  0.32478  0.23435  1.0000
  H   H687      1.0  0.90951  0.35994  0.22109  1.0000
  H   H688      1.0  0.85949  0.35706  0.28718  1.0000
  H   H689      1.0  0.87119  0.32205  0.30188  1.0000
  C   C579      1.0  0.75710  0.12553  0.04907  1.0000
  C   C580      1.0  0.75091  0.11474  0.02095  1.0000
  C   C581      1.0  0.76377  0.14437  0.04363  1.0000
  H   H690      1.0  0.74536  0.10036  0.02490  1.0000
  H   H691      1.0  0.76845  0.15297  0.06489  1.0000
  C   C582      1.0  0.82416  0.17574  0.24097  1.0000
  C   C583      1.0  0.81673  0.17681  0.27401  1.0000
  C   C584      1.0  0.82565  0.18836  0.29890  1.0000
  C   C585      1.0  0.84207  0.19920  0.29132  1.0000
  C   C586      1.0  0.84928  0.19842  0.25812  1.0000
  C   C587      1.0  0.84046  0.18673  0.23332  1.0000
  H   H692      1.0  0.80424  0.16852  0.28051  1.0000
  H   H693      1.0  0.81981  0.18882  0.32433  1.0000
  H   H694      1.0  0.86166  0.20678  0.25145  1.0000
  H   H695      1.0  0.84637  0.18614  0.20793  1.0000
  H   H696      1.0  0.89781  0.27884  0.16473  1.0000
  H   H697      1.0  0.90153  0.48252  0.20599  1.0000
  H   H698      1.0  0.89344  0.48118  0.30373  1.0000
  C   C588      1.0  0.97452  0.43034  0.18243  1.0000
  C   C589      1.0  0.88061  0.48278  0.28708  1.0000
  C   C590      1.0  0.99219  0.42572  0.02983  1.0000
  C   C591      1.0  0.71045  0.15431  0.07840  1.0000
  C   C592      1.0  0.97172  0.41627  0.15715  1.0000
  C   C593      1.0  0.72637  0.03820  0.23058  1.0000
  H   H699      1.0  0.85734  0.31333  0.22938  1.0000
  C   C594      1.0  0.88731  0.43693  0.02360  1.0000
  H   H700      1.0  0.95771  0.40971  0.15503  1.0000
  C   C595      1.0  0.97550  0.22654  0.33038  1.0000
  C   C596      1.0  0.97491  0.24334  0.30970  1.0000
  H   H701      1.0  0.86764  0.15965  0.33755  1.0000
  C   C597      1.0  0.99151  0.49730  0.15472  1.0000
  H   H702      1.0  0.72359  0.13264  0.13382  1.0000
  H   H703      1.0  0.77653  0.05508  0.01520  1.0000
  H   H704      1.0  0.96077  0.25000  0.30037  1.0000
  C   C598      1.0  0.95180  0.48672  0.18188  1.0000
  C   C599      1.0  0.95932  0.47522  0.12521  1.0000
  C   C600      1.0  0.70851  0.13450  0.14526  1.0000
  H   H705      1.0  0.90304  0.35554  0.16057  1.0000
  C   C601      1.0  0.77455  0.02339  0.16593  1.0000
  C   C602      1.0  0.77628  0.04223  0.18071  1.0000
  C   C603      1.0  0.78019  0.04381  0.21526  1.0000
  C   C604      1.0  0.78197  0.02639  0.23494  1.0000
  C   C605      1.0  0.67967  0.15617  0.15919  1.0000
  H   H706      1.0  0.77189  0.02231  0.13906  1.0000
  H   H707      1.0  0.77491  0.05551  0.16529  1.0000
  H   H708      1.0  0.78504  0.02748  0.26169  1.0000
  H   H709      1.0  0.81041  0.44405  0.25849  1.0000
  C   C606      1.0  0.68959  0.11731  0.23747  1.0000
  H   H710      1.0  0.99212  0.26377  0.28304  1.0000
  C   C607      1.0  0.98763  0.26891  0.42374  1.0000
  N   N39       1.0  0.84070  0.45123  0.25145  1.0000
  H   H711      1.0  0.89008  0.35470  0.08531  1.0000
  H   H712      1.0  0.87902  0.36575  0.17473  1.0000
  H   H713      1.0  0.83358  0.45958  0.19958  1.0000
  C   C608      1.0  0.98742  0.41004  0.13535  1.0000
  H   H714      1.0  0.89871  0.30659  0.12608  1.0000
  H   H715      1.0  0.96494  0.47764  0.19233  1.0000
  C   C609      1.0  0.96021  0.39826  0.02357  1.0000
  C   C610      1.0  0.79871  0.08748  0.02944  1.0000
  H   H716      1.0  0.85810  0.34210  0.19249  1.0000
  C   C611      1.0  0.70970  0.02670  0.22942  1.0000
  H   H717      1.0  0.81218  0.13449  0.04181  1.0000
  H   H718      1.0  0.85024  0.34073  0.11019  1.0000
  H   H719      1.0  0.69937  0.10979  0.21897  1.0000
  H   H720      1.0  0.85821  0.36540  0.10502  1.0000
  C   C612      1.0  0.72504  0.05736  0.24450  1.0000
  N   N40       1.0  0.90303  0.16968  0.30603  1.0000
  C   C613      1.0  0.90054  0.17522  0.34225  1.0000
  C   C614      1.0  0.92224  0.15729  0.30272  1.0000
  C   C615      1.0  0.90431  0.18837  0.28685  1.0000
  C   C616      1.0  0.88662  0.15874  0.29232  1.0000
  H   H721      1.0  0.94786  0.44659  0.00228  1.0000
  H   H722      1.0  0.79529  0.07520  0.04518  1.0000
  H   H723      1.0  0.67978  0.08295  0.47351  1.0000
  H   H724      1.0  0.87185  0.13764  0.21810  1.0000
  H   H725      1.0  0.70346  0.18513  0.14465  1.0000
  H   H726      1.0  0.89979  0.16186  0.35843  1.0000
  H   H727      1.0  0.91319  0.18333  0.35176  1.0000
  H   H728      1.0  0.88682  0.18544  0.34632  1.0000
  H   H729      1.0  0.85614  0.44418  0.20511  1.0000
  H   H730      1.0  0.93480  0.16486  0.31399  1.0000
  H   H731      1.0  0.99860  0.34826  0.22706  1.0000
  H   H732      1.0  0.89009  0.19804  0.28875  1.0000
  H   H733      1.0  0.91649  0.19703  0.29661  1.0000
  H   H734      1.0  0.90729  0.18569  0.25958  1.0000
  C   C617      1.0  0.69156  0.03561  0.24322  1.0000
  H   H735      1.0  0.98558  0.39849  0.11681  1.0000
  H   H736      1.0  0.96318  0.47940  0.09903  1.0000
  H   H737      1.0  0.95920  0.29894  0.42712  1.0000
  H   H738      1.0  0.97181  0.46502  0.13514  1.0000
  H   H739      1.0  0.68537  0.15837  0.28783  1.0000
  C   C618      1.0  0.70708  0.06568  0.25774  1.0000
  H   H740      1.0  0.84893  0.35823  0.14468  1.0000
  H   H741      1.0  0.88424  0.32926  0.08583  1.0000
  C   C619      1.0  0.86954  0.46649  0.28089  1.0000
  H   H742      1.0  0.97089  0.38594  0.01419  1.0000
  C   C620      1.0  0.67491  0.16042  0.08757  1.0000
  H   H743      1.0  0.89909  0.15511  0.24156  1.0000
  N   N41       1.0  0.95504  0.49318  0.14674  1.0000
  H   H744      1.0  0.99679  0.26962  0.47708  1.0000
  C   C621      1.0  0.89625  0.49645  0.19420  1.0000
  H   H745      1.0  0.87739  0.28190  0.21646  1.0000
  C   C622      1.0  0.87164  0.14197  0.24451  1.0000
  N   N42       1.0  0.71170  0.00639  0.21456  1.0000
  H   H746      1.0  0.70613  0.08055  0.26859  1.0000
  H   H747      1.0  0.94513  0.39270  0.02410  1.0000
  H   H748      1.0  0.71388  0.16895  0.17737  1.0000
  H   H749      1.0  0.90631  0.33689  0.10702  1.0000
  N   N43       1.0  0.96608  0.26714  0.42879  1.0000
  C   C623      1.0  0.96001  0.24931  0.41066  1.0000
  C   C624      1.0  0.96031  0.26525  0.46475  1.0000
  C   C625      1.0  0.95460  0.28512  0.41503  1.0000
  C   C626      1.0  0.71073  0.16998  0.14972  1.0000
  H   H750      1.0  0.98590  0.42390  0.05460  1.0000
  H   H751      1.0  0.81276  0.46952  0.24830  1.0000
  H   H752      1.0  0.85853  0.30051  0.46658  1.0000
  C   C627      1.0  0.84796  0.43245  0.26885  1.0000
  C   C628      1.0  0.88705  0.15211  0.25819  1.0000
  H   H753      1.0  0.87455  0.45278  0.29351  1.0000
  H   H754      1.0  0.88895  0.37426  0.13620  1.0000
  H   H755      1.0  0.94416  0.24671  0.41565  1.0000
  C   C629      1.0  0.71893  0.00724  0.17924  1.0000
  H   H756      1.0  0.94404  0.26363  0.46732  1.0000
  H   H757      1.0  0.71068  0.13203  0.17283  1.0000
  C   C630      1.0  0.99273  0.25114  0.29991  1.0000
  H   H758      1.0  0.93829  0.28471  0.41921  1.0000
  H   H759      1.0  0.73809  0.06579  0.24502  1.0000
  H   H760      1.0  0.83884  0.41992  0.26239  1.0000
  H   H761      1.0  0.70002  0.12229  0.13529  1.0000
  H   H762      1.0  0.94857  0.49971  0.19896  1.0000
  H   H763      1.0  0.74063  0.03241  0.22075  1.0000
  H   H764      1.0  0.87004  0.33301  0.48311  1.0000
  H   H765      1.0  0.86345  0.42732  0.26121  1.0000
  H   H766      1.0  0.95207  0.43602  0.04365  1.0000
  H   H767      1.0  0.84320  0.13074  0.25336  1.0000
  C   C631      1.0  0.80438  0.10436  0.04640  1.0000
  C   C632      1.0  0.68167  0.14457  0.27630  1.0000
  N   N44       1.0  0.87858  0.34500  0.13290  1.0000
  C   C633      1.0  0.88776  0.36081  0.15195  1.0000
  C   C634      1.0  0.89030  0.34113  0.10143  1.0000
  C   C635      1.0  0.85810  0.35261  0.12281  1.0000
  C   C636      1.0  0.87796  0.32727  0.15475  1.0000
  C   C637      1.0  0.86639  0.32838  0.18474  1.0000
  C   C638      1.0  0.88921  0.30884  0.14789  1.0000
  C   C639      1.0  0.86590  0.31202  0.20620  1.0000
  C   C640      1.0  0.88880  0.29265  0.16985  1.0000
  C   C641      1.0  0.87720  0.29426  0.19894  1.0000
  H   H768      1.0  0.83268  0.43368  0.20834  1.0000
  H   H769      1.0  0.72563  0.15118  0.08708  1.0000
  C   C642      1.0  0.69431  0.15637  0.10152  1.0000
  H   H770      1.0  0.99467  0.45006  0.20400  1.0000
  C   C643      1.0  0.69037  0.05487  0.25703  1.0000
  H   H771      1.0  0.94634  0.46611  0.12379  1.0000
  H   H772      1.0  0.80487  0.10462  0.07381  1.0000
  H   H773      1.0  0.67188  0.07773  0.43120  1.0000
  H   H774      1.0  0.96943  0.23561  0.41795  1.0000
  C   C644      1.0  0.86061  0.30403  0.49307  1.0000
  C   C645      1.0  0.77622  0.00599  0.18560  1.0000
  H   H775      1.0  0.93907  0.47726  0.18361  1.0000
  H   H776      1.0  0.92160  0.14271  0.31563  1.0000
  C   C646      1.0  0.84810  0.48688  0.24315  1.0000
  H   H777      1.0  0.84157  0.14170  0.31287  1.0000
  C   C647      1.0  0.70740  0.15607  0.04358  1.0000
  H   H778      1.0  0.96390  0.40114  0.05042  1.0000
  H   H779      1.0  0.72544  0.16884  0.13694  1.0000
  H   H780      1.0  0.83599  0.48914  0.22528  1.0000
  N   N45       1.0  0.96067  0.41623  0.00207  1.0000
  C   C648      1.0  0.88063  0.49693  0.17083  1.0000
  H   H781      1.0  0.90894  0.38203  0.01382  1.0000
  N   N46       1.0  0.69803  0.15433  0.13828  1.0000
  H   H782      1.0  0.98605  0.26915  0.36855  1.0000
  C   C649      1.0  0.67204  0.16220  0.05264  1.0000
  H   H783      1.0  0.68108  0.00538  0.19894  1.0000
  C   C650      1.0  0.94761  0.43269  0.01733  1.0000
  C   C651      1.0  0.86980  0.15455  0.31185  1.0000
  C   C652      1.0  0.85289  0.46806  0.25858  1.0000
  H   H784      1.0  0.92634  0.15420  0.27593  1.0000
  C   C653      1.0  0.99257  0.43898  0.18475  1.0000
  C   C654      1.0  0.99546  0.26996  0.39059  1.0000
  C   C655      1.0  0.85548  0.13797  0.26439  1.0000
  H   H785      1.0  0.95662  0.28660  0.38730  1.0000
  C   C656      1.0  0.84068  0.44700  0.21464  1.0000
  C   C657      1.0  0.81991  0.45659  0.26248  1.0000
  C   C658      1.0  0.99403  0.21812  0.34229  1.0000
  C   C659      1.0  0.85460  0.14418  0.29797  1.0000
  C   C660      1.0  0.68824  0.16002  0.03072  1.0000
  H   H786      1.0  0.96115  0.25076  0.38286  1.0000
  H   H787      1.0  0.92353  0.49393  0.13539  1.0000
  H   H788      1.0  0.96324  0.27872  0.47966  1.0000
  H   H789      1.0  0.84748  0.43413  0.29680  1.0000
  H   H790      1.0  0.81937  0.46059  0.28981  1.0000
  H   H791      1.0  0.00177  0.38149  0.22991  1.0000
  H   H792      1.0  0.72001  0.15428  0.02649  1.0000
  H   H793      1.0  0.96820  0.25182  0.47654  1.0000
  C   C661      1.0  0.76450  0.15207  0.01048  1.0000
  H   H794      1.0  0.76971  0.16663  0.00662  1.0000
  H   H795      1.0  0.99417  0.48194  0.16263  1.0000
  C   C662      1.0  0.90301  0.39739  0.01664  1.0000
  H   H796      1.0  0.68599  0.16136  0.00367  1.0000
  H   H797      1.0  0.93184  0.42900  0.01842  1.0000
  H   H798      1.0  0.99866  0.31404  0.24619  1.0000
  H   H799      1.0  0.73420  0.01216  0.17768  1.0000
  C   C663      1.0  0.00129  0.27022  0.45100  1.0000
  H   H800      1.0  0.68320  0.15446  0.18667  1.0000
  H   H801      1.0  0.80272  0.04718  0.00987  1.0000
  C   C664      1.0  0.88468  0.24526  0.48865  1.0000
  H   H802      1.0  0.67136  0.17108  0.15649  1.0000
  C   C665      1.0  0.77985  0.00756  0.22027  1.0000
  H   H803      1.0  0.70898  0.01771  0.16384  1.0000
  H   H804      1.0  0.67638  0.06153  0.26726  1.0000
  H   H805      1.0  0.66968  0.14437  0.15283  1.0000
  C   C666      1.0  0.87544  0.50101  0.27155  1.0000
  C   C667      1.0  0.67152  0.10946  0.24602  1.0000
  Fe  Fe93      1.0  0.89140  0.24885  0.64466  1.0000
  S   S185      1.0  0.89829  0.22472  0.68363  1.0000
  S   S186      1.0  0.88226  0.23975  0.59130  1.0000
  Fe  Fe94      1.0  0.89106  0.28236  0.69828  1.0000
  S   S187      1.0  0.89709  0.26066  0.74062  1.0000
  S   S188      1.0  0.89043  0.31640  0.70016  1.0000
  Fe  Fe95      1.0  0.91981  0.24533  0.70537  1.0000
  S   S189      1.0  0.94960  0.23680  0.73071  1.0000
  Fe  Fe96      1.0  0.87508  0.24158  0.71593  1.0000
  S   S190      1.0  0.84944  0.22862  0.74494  1.0000
  S   S191      1.0  0.91491  0.26786  0.66401  1.0000
  S   S192      1.0  0.86711  0.26484  0.67597  1.0000
  Fe  Fe97      1.0  0.76277  0.13600  0.88874  1.0000
  S   S193      1.0  0.79239  0.11988  0.87590  1.0000
  S   S194      1.0  0.76012  0.15132  0.94087  1.0000
  Fe  Fe98      1.0  0.74546  0.12713  0.81839  1.0000
  S   S195      1.0  0.77433  0.11021  0.80237  1.0000
  S   S196      1.0  0.72292  0.12708  0.77471  1.0000
  Fe  Fe99      1.0  0.77437  0.09630  0.85375  1.0000
  S   S197      1.0  0.77957  0.06417  0.87229  1.0000
  Fe  Fe100     1.0  0.78980  0.13561  0.82539  1.0000
  S   S198      1.0  0.81725  0.14677  0.79804  1.0000
  S   S199      1.0  0.74476  0.11174  0.86882  1.0000
  S   S200      1.0  0.76094  0.15316  0.83915  1.0000
  Fe  Fe101     1.0  0.90408  0.45003  0.83675  1.0000
  S   S201      1.0  0.92014  0.44880  0.88629  1.0000
  S   S202      1.0  0.90080  0.47914  0.80696  1.0000
  Fe  Fe102     1.0  0.89422  0.40597  0.84105  1.0000
  S   S203      1.0  0.90915  0.40240  0.89189  1.0000
  S   S204      1.0  0.88130  0.37689  0.82546  1.0000
  Fe  Fe103     1.0  0.89474  0.43256  0.90496  1.0000
  S   S205      1.0  0.88253  0.44306  0.95568  1.0000
  Fe  Fe104     1.0  0.93295  0.41883  0.86884  1.0000
  S   S206      1.0  0.96410  0.40761  0.88217  1.0000
  S   S207      1.0  0.87750  0.43535  0.85626  1.0000
  S   S208      1.0  0.91929  0.42084  0.81712  1.0000
  C   C668      1.0  0.88897  0.33257  0.73598  1.0000
  C   C669      1.0  0.88087  0.32704  0.76667  1.0000
  C   C670      1.0  0.87872  0.34080  0.79367  1.0000
  C   C671      1.0  0.88498  0.36012  0.79068  1.0000
  C   C672      1.0  0.89361  0.36548  0.76030  1.0000
  C   C673      1.0  0.89538  0.35185  0.73303  1.0000
  H   H806      1.0  0.87572  0.31236  0.76932  1.0000
  H   H807      1.0  0.87197  0.33651  0.81699  1.0000
  H   H808      1.0  0.89838  0.38030  0.75750  1.0000
  H   H809      1.0  0.90162  0.35633  0.70941  1.0000
  C   C674      1.0  0.84108  0.20563  0.75996  1.0000
  C   C675      1.0  0.85180  0.18710  0.75472  1.0000
  C   C676      1.0  0.84430  0.16941  0.76666  1.0000
  C   C677      1.0  0.82595  0.16981  0.78389  1.0000
  C   C678      1.0  0.81520  0.18834  0.78888  1.0000
  C   C679      1.0  0.82272  0.20603  0.77705  1.0000
  H   H810      1.0  0.86586  0.18631  0.74153  1.0000
  H   H811      1.0  0.85279  0.15523  0.76250  1.0000
  H   H812      1.0  0.80108  0.18904  0.80196  1.0000
  H   H813      1.0  0.81417  0.22018  0.78124  1.0000
  C   C680      1.0  0.69668  0.12658  0.76993  1.0000
  H   H814      1.0  0.79633  0.14352  0.67391  1.0000
  H   H815      1.0  0.69925  0.11852  0.71726  1.0000
  C   C681      1.0  0.81643  0.17762  0.62391  1.0000
  C   C682      1.0  0.99054  0.43450  0.80547  1.0000
  C   C683      1.0  0.77137  0.02499  0.86963  1.0000
  C   C684      1.0  0.77595  0.04162  0.85075  1.0000
  C   C685      1.0  0.77827  0.03961  0.81577  1.0000
  C   C686      1.0  0.77585  0.02119  0.79988  1.0000
  C   C687      1.0  0.75889  0.14098  0.98226  1.0000
  H   H816      1.0  0.76974  0.02630  0.89674  1.0000
  H   H817      1.0  0.78224  0.05216  0.80104  1.0000
  H   H818      1.0  0.77774  0.01975  0.77282  1.0000
  H   H819      1.0  0.98718  0.49191  0.74617  1.0000
  C   C688      1.0  0.85297  0.20658  0.65391  1.0000
  C   C689      1.0  0.98145  0.41869  0.85740  1.0000
  C   C690      1.0  0.97612  0.42670  0.82579  1.0000
  H   H820      1.0  0.93305  0.35298  0.84746  1.0000
  C   C691      1.0  0.82194  0.19148  0.64874  1.0000
  H   H821      1.0  0.97019  0.34247  0.85165  1.0000
  H   H822      1.0  0.96110  0.42637  0.81652  1.0000
  C   C692      1.0  0.87074  0.32654  0.53652  1.0000
  C   C693      1.0  0.90595  0.26887  0.51216  1.0000
  H   H823      1.0  0.67699  0.05186  0.77870  1.0000
  C   C694      1.0  0.69616  0.17493  0.74390  1.0000
  C   C695      1.0  0.97250  0.23771  0.70887  1.0000
  C   C696      1.0  0.97350  0.23629  0.67364  1.0000
  H   H824      1.0  0.89030  0.15246  0.86219  1.0000
  H   H825      1.0  0.82115  0.06058  0.95997  1.0000
  H   H826      1.0  0.97291  0.36879  0.85233  1.0000
  H   H827      1.0  0.96001  0.23529  0.65911  1.0000
  H   H828      1.0  0.86154  0.21941  0.64735  1.0000
  C   C697      1.0  0.78863  0.05196  0.99630  1.0000
  H   H829      1.0  0.96131  0.39927  0.95559  1.0000
  H   H830      1.0  0.71803  0.06193  0.74154  1.0000
  H   H831      1.0  0.89817  0.40172  0.96318  1.0000
  C   C698      1.0  0.80332  0.15680  0.66684  1.0000
  C   C699      1.0  0.90233  0.26209  0.54510  1.0000
  C   C700      1.0  0.88924  0.24736  0.55016  1.0000
  H   H832      1.0  0.69249  0.17276  0.65886  1.0000
  H   H833      1.0  0.90948  0.26843  0.56653  1.0000
  C   C701      1.0  0.96795  0.48472  0.82378  1.0000
  H   H834      1.0  0.87301  0.47744  0.90867  1.0000
  C   C702      1.0  0.95411  0.34040  0.79022  1.0000
  N   N47       1.0  0.83242  0.20926  0.64037  1.0000
  H   H835      1.0  0.74681  0.11400  0.96658  1.0000
  C   C703      1.0  0.83381  0.21295  0.60348  1.0000
  H   H836      1.0  0.82291  0.22731  0.68400  1.0000
  H   H837      1.0  0.80697  0.07495  0.92862  1.0000
  N   N48       1.0  0.91144  0.20668  0.80147  1.0000
  C   C704      1.0  0.91175  0.22756  0.81357  1.0000
  C   C705      1.0  0.93214  0.19717  0.80399  1.0000
  C   C706      1.0  0.90574  0.20693  0.76534  1.0000
  C   C707      1.0  0.89669  0.19622  0.82070  1.0000
  C   C708      1.0  0.90130  0.17717  0.83559  1.0000
  C   C709      1.0  0.87661  0.20447  0.82308  1.0000
  C   C710      1.0  0.88661  0.16711  0.85149  1.0000
  C   C711      1.0  0.86212  0.19433  0.83924  1.0000
  C   C712      1.0  0.93633  0.33055  0.78754  1.0000
  H   H838      1.0  0.89750  0.23667  0.80873  1.0000
  H   H839      1.0  0.91479  0.22806  0.84119  1.0000
  H   H840      1.0  0.92339  0.23544  0.80041  1.0000
  H   H841      1.0  0.93727  0.19620  0.83072  1.0000
  H   H842      1.0  0.94288  0.20584  0.79003  1.0000
  H   H843      1.0  0.93356  0.18202  0.79245  1.0000
  H   H844      1.0  0.89099  0.21529  0.76104  1.0000
  H   H845      1.0  0.91677  0.21410  0.74966  1.0000
  H   H846      1.0  0.90476  0.19156  0.75542  1.0000
  H   H847      1.0  0.91606  0.16958  0.83486  1.0000
  H   H848      1.0  0.87172  0.21853  0.81138  1.0000
  C   C713      1.0  0.93713  0.36489  0.83005  1.0000
  C   C714      1.0  0.95946  0.37546  0.78819  1.0000
  H   H849      1.0  0.97383  0.37275  0.77454  1.0000
  C   C715      1.0  0.88066  0.23884  0.52168  1.0000
  N   N49       1.0  0.87278  0.31566  0.59814  1.0000
  C   C716      1.0  0.87859  0.33602  0.60558  1.0000
  C   C717      1.0  0.85557  0.31233  0.62012  1.0000
  C   C718      1.0  0.88977  0.30130  0.60753  1.0000
  C   C719      1.0  0.81773  0.18709  0.68287  1.0000
  C   C720      1.0  0.80719  0.16060  0.63302  1.0000
  H   H850      1.0  0.88173  0.33803  0.63306  1.0000
  H   H851      1.0  0.89251  0.33904  0.59222  1.0000
  H   H852      1.0  0.86649  0.34762  0.59874  1.0000
  H   H853      1.0  0.84216  0.32215  0.61266  1.0000
  H   H854      1.0  0.85880  0.31546  0.64721  1.0000
  H   H855      1.0  0.85162  0.29668  0.61935  1.0000
  H   H856      1.0  0.90265  0.30252  0.59036  1.0000
  H   H857      1.0  0.89504  0.30397  0.63363  1.0000
  H   H858      1.0  0.88583  0.28561  0.60652  1.0000
  C   C721      1.0  0.00092  0.41918  0.86923  1.0000
  H   H859      1.0  0.93890  0.37831  0.84593  1.0000
  H   H860      1.0  0.98672  0.43965  0.78030  1.0000
  H   H861      1.0  0.85239  0.27572  0.51013  1.0000
  H   H862      1.0  0.92427  0.36898  0.81304  1.0000
  C   C722      1.0  0.99023  0.23882  0.72735  1.0000
  H   H863      1.0  0.93686  0.40641  0.97104  1.0000
  H   H864      1.0  0.73538  0.03164  0.81874  1.0000
  H   H865      1.0  0.76658  0.06208  0.94291  1.0000
  C   C723      1.0  0.68332  0.13089  0.79648  1.0000
  C   C724      1.0  0.89702  0.40855  0.98790  1.0000
  H   H866      1.0  0.84679  0.20075  0.84003  1.0000
  C   C725      1.0  0.86704  0.17561  0.85312  1.0000
  H   H867      1.0  0.98964  0.23985  0.75460  1.0000
  H   H868      1.0  0.96026  0.38958  0.80273  1.0000
  C   C726      1.0  0.97002  0.31456  0.75262  1.0000
  C   C727      1.0  0.70175  0.17434  0.71007  1.0000
  C   C728      1.0  0.97208  0.35561  0.83540  1.0000
  H   H869      1.0  0.99273  0.23361  0.63008  1.0000
  H   H870      1.0  0.92269  0.33597  0.80002  1.0000
  N   N50       1.0  0.79095  0.06957  0.97465  1.0000
  H   H871      1.0  0.73760  0.08409  0.80136  1.0000
  H   H872      1.0  0.91552  0.28077  0.50872  1.0000
  C   C729      1.0  0.99209  0.23532  0.65723  1.0000
  H   H873      1.0  0.70064  0.07396  0.84366  1.0000
  C   C730      1.0  0.86725  0.32227  0.50248  1.0000
  H   H874      1.0  0.85883  0.28227  0.56952  1.0000
  H   H875      1.0  0.81882  0.21477  0.59150  1.0000
  C   C731      1.0  0.82207  0.22742  0.65593  1.0000
  C   C732      1.0  0.86076  0.29406  0.55170  1.0000
  H   H876      1.0  0.77233  0.08729  0.93947  1.0000
  H   H877      1.0  0.82891  0.24118  0.64824  1.0000
  H   H878      1.0  0.92182  0.49095  0.86762  1.0000
  H   H879      1.0  0.82170  0.19673  0.70313  1.0000
  H   H880      1.0  0.85323  0.20527  0.68192  1.0000
  C   C733      1.0  0.98299  0.48354  0.76886  1.0000
  H   H881      1.0  0.85556  0.16758  0.86467  1.0000
  H   H882      1.0  0.86123  0.19289  0.64347  1.0000
  N   N51       1.0  0.71283  0.06603  0.79482  1.0000
  C   C734      1.0  0.73384  0.06840  0.80433  1.0000
  C   C735      1.0  0.71013  0.07276  0.75931  1.0000
  C   C736      1.0  0.69992  0.07933  0.81709  1.0000
  C   C737      1.0  0.70726  0.04532  0.79781  1.0000
  C   C738      1.0  0.95243  0.30518  0.75081  1.0000
  N   N52       1.0  0.95551  0.35871  0.81068  1.0000
  H   H883      1.0  0.79925  0.10582  0.94909  1.0000
  H   H884      1.0  0.80606  0.22911  0.64866  1.0000
  C   C739      1.0  0.68908  0.12188  0.73799  1.0000
  H   H885      1.0  0.68406  0.08049  0.80898  1.0000
  H   H886      1.0  0.73690  0.06451  0.83128  1.0000
  C   C740      1.0  0.80671  0.12142  0.99337  1.0000
  H   H887      1.0  0.71617  0.08741  0.75514  1.0000
  H   H888      1.0  0.98480  0.33879  0.77206  1.0000
  C   C741      1.0  0.99094  0.42518  0.96864  1.0000
  H   H889      1.0  0.69421  0.07477  0.75164  1.0000
  H   H890      1.0  0.70460  0.09479  0.81723  1.0000
  H   H891      1.0  0.87062  0.22734  0.52513  1.0000
  H   H892      1.0  0.98305  0.30830  0.73896  1.0000
  H   H893      1.0  0.84123  0.22677  0.59811  1.0000
  C   C742      1.0  0.86772  0.31241  0.56222  1.0000
  C   C743      1.0  0.68799  0.04050  0.78784  1.0000
  H   H894      1.0  0.87613  0.34083  0.54191  1.0000
  H   H895      1.0  0.80577  0.16693  0.71812  1.0000
  H   H896      1.0  0.80315  0.15017  0.61376  1.0000
  H   H897      1.0  0.99672  0.47563  0.77976  1.0000
  C   C744      1.0  0.76873  0.00664  0.85372  1.0000
  C   C745      1.0  0.80859  0.17002  0.69172  1.0000
  H   H898      1.0  0.95047  0.42470  0.95181  1.0000
  H   H899      1.0  0.84310  0.20077  0.59043  1.0000
  H   H900      1.0  0.95177  0.29170  0.73584  1.0000
  H   H901      1.0  0.81920  0.17949  0.59733  1.0000
  H   H902      1.0  0.80246  0.04977  0.93479  1.0000
  H   H903      1.0  0.70738  0.17523  0.76356  1.0000
  H   H904      1.0  0.68889  0.13463  0.82115  1.0000
  C   C746      1.0  0.67619  0.17454  0.75251  1.0000
  C   C747      1.0  0.97088  0.33196  0.77182  1.0000
  H   H905      1.0  0.74437  0.05912  0.78796  1.0000
  C   C748      1.0  0.93562  0.31322  0.76808  1.0000
  H   H906      1.0  0.94743  0.37809  0.76894  1.0000
  C   C749      1.0  0.80103  0.10466  0.97616  1.0000
  C   C750      1.0  0.77159  0.07484  0.95769  1.0000
  H   H907      1.0  0.98689  0.35331  0.82308  1.0000
  H   H908      1.0  0.71736  0.17445  0.70361  1.0000
  C   C751      1.0  0.75185  0.12235  0.98783  1.0000
  C   C752      1.0  0.88935  0.42842  0.99127  1.0000
  H   H909      1.0  0.95900  0.47215  0.81672  1.0000
  C   C753      1.0  0.80608  0.06347  0.94855  1.0000
  H   H910      1.0  0.87617  0.49342  0.96427  1.0000
  C   C754      1.0  0.72057  0.02943  0.81004  1.0000
  H   H911      1.0  0.92185  0.30606  0.76609  1.0000
  H   H912      1.0  0.78452  0.03893  0.98117  1.0000
  H   H913      1.0  0.97369  0.47169  0.75990  1.0000
  C   C755      1.0  0.95207  0.41146  0.96869  1.0000
  H   H914      1.0  0.94438  0.49237  0.76906  1.0000
  C   C756      1.0  0.85715  0.29007  0.51767  1.0000
  H   H915      1.0  0.67196  0.17462  0.77892  1.0000
  H   H916      1.0  0.75980  0.07943  0.97640  1.0000
  H   H917      1.0  0.98195  0.47816  0.83589  1.0000
  H   H918      1.0  0.98390  0.42301  0.94451  1.0000
  C   C757      1.0  0.77099  0.00465  0.81873  1.0000
  H   H919      1.0  0.80899  0.13489  0.97951  1.0000
  H   H920      1.0  0.95927  0.49362  0.84329  1.0000
  C   C758      1.0  0.68741  0.17318  0.68471  1.0000
  C   C759      1.0  0.68264  0.02089  0.78906  1.0000
  C   C760      1.0  0.87231  0.49357  0.91057  1.0000
  N   N53       1.0  0.97228  0.49690  0.79403  1.0000
  C   C761      1.0  0.79701  0.08708  0.99360  1.0000
  H   H921      1.0  0.67231  0.15331  0.63087  1.0000
  H   H922      1.0  0.86847  0.49794  0.85727  1.0000
  C   C762      1.0  0.71511  0.00988  0.81104  1.0000
  C   C763      1.0  0.98127  0.42224  0.99993  1.0000
  C   C764      1.0  0.69623  0.00559  0.80044  1.0000
  Fe  Fe105     1.0  0.88510  0.61488  0.12498  1.0000
  S   S209      1.0  0.87766  0.60802  0.17905  1.0000
  S   S210      1.0  0.85962  0.62124  0.08839  1.0000
  Fe  Fe106     1.0  0.92873  0.61277  0.13935  1.0000
  S   S211      1.0  0.92497  0.60621  0.19418  1.0000
  S   S212      1.0  0.95798  0.61322  0.11295  1.0000
  Fe  Fe107     1.0  0.90359  0.58463  0.17606  1.0000
  S   S213      1.0  0.90909  0.55405  0.20054  1.0000
  Fe  Fe108     1.0  0.89962  0.63026  0.19259  1.0000
  S   S214      1.0  0.89305  0.65109  0.23799  1.0000
  S   S215      1.0  0.90909  0.58979  0.12104  1.0000
  S   S216      1.0  0.90528  0.63851  0.13864  1.0000
  Fe  Fe109     1.0  0.77105  0.91012  0.21233  1.0000
  S   S217      1.0  0.74022  0.90360  0.19481  1.0000
  S   S218      1.0  0.78821  0.88170  0.23468  1.0000
  Fe  Fe110     1.0  0.76445  0.95321  0.18432  1.0000
  S   S219      1.0  0.73382  0.94854  0.16513  1.0000
  S   S220      1.0  0.77419  0.98273  0.16526  1.0000
  Fe  Fe111     1.0  0.72934  0.93386  0.21520  1.0000
  S   S221      1.0  0.70234  0.94662  0.24619  1.0000
  Fe  Fe112     1.0  0.74732  0.91903  0.14624  1.0000
  S   S222      1.0  0.74131  0.90462  0.09502  1.0000
  S   S223      1.0  0.75965  0.93985  0.23559  1.0000
  S   S224      1.0  0.77835  0.92420  0.16262  1.0000
  Fe  Fe113     1.0  0.88467  0.78067  0.37499  1.0000
  S   S225      1.0  0.89942  0.80870  0.36654  1.0000
  S   S226      1.0  0.87133  0.77266  0.42584  1.0000
  Fe  Fe114     1.0  0.89165  0.76688  0.30134  1.0000
  S   S227      1.0  0.90715  0.79440  0.28875  1.0000
  S   S228      1.0  0.88859  0.74586  0.25633  1.0000
  Fe  Fe115     1.0  0.92285  0.78937  0.33857  1.0000
  S   S229      1.0  0.95445  0.79250  0.35756  1.0000
  Fe  Fe116     1.0  0.88224  0.81155  0.31743  1.0000
  S   S230      1.0  0.86973  0.84345  0.30318  1.0000
  S   S231      1.0  0.90889  0.76088  0.34949  1.0000
  S   S232      1.0  0.86586  0.78444  0.32749  1.0000
  C   C765      1.0  0.87807  0.77899  0.46798  1.0000
  C   C766      1.0  0.89199  0.79271  0.47489  1.0000
  H   H923      1.0  0.93917  0.76273  0.40018  1.0000
  H   H924      1.0  0.89899  0.79993  0.45432  1.0000
  C   C767      1.0  0.69678  0.91133  0.33323  1.0000
  C   C768      1.0  0.74530  0.91532  0.05476  1.0000
  C   C769      1.0  0.93844  0.76651  0.42753  1.0000
  C   C770      1.0  0.75150  0.93449  0.05145  1.0000
  H   H925      1.0  0.98429  0.58468  0.20617  1.0000
  H   H926      1.0  0.75415  0.94317  0.07384  1.0000
  C   C771      1.0  0.67962  0.93695  0.25831  1.0000
  C   C772      1.0  0.83953  0.82610  0.49373  1.0000
  C   C773      1.0  0.98669  0.53727  0.13561  1.0000
  H   H927      1.0  0.95826  0.62697  0.18249  1.0000
  H   H928      1.0  0.84276  0.66937  0.24937  1.0000
  C   C774      1.0  0.74207  0.90426  0.02525  1.0000
  C   C775      1.0  0.92172  0.73723  0.43776  1.0000
  H   H929      1.0  0.80812  0.86017  0.17484  1.0000
  C   C776      1.0  0.69471  0.92571  0.04519  1.0000
  C   C777      1.0  0.81113  0.87150  0.25355  1.0000
  C   C778      1.0  0.81365  0.85091  0.26063  1.0000
  C   C779      1.0  0.83141  0.84204  0.27542  1.0000
  C   C780      1.0  0.84701  0.85365  0.28363  1.0000
  C   C781      1.0  0.84448  0.87423  0.27663  1.0000
  C   C782      1.0  0.82678  0.88308  0.26161  1.0000
  H   H930      1.0  0.80174  0.84171  0.25455  1.0000
  H   H931      1.0  0.83300  0.82621  0.28042  1.0000
  H   H932      1.0  0.85633  0.88348  0.28282  1.0000
  H   H933      1.0  0.82520  0.89890  0.25648  1.0000
  C   C783      1.0  0.86157  0.62135  0.04377  1.0000
  C   C784      1.0  0.99177  0.85278  0.27971  1.0000
  C   C785      1.0  0.99910  0.53796  0.23538  1.0000
  H   H934      1.0  0.82970  0.62508  0.03841  1.0000
  H   H935      1.0  0.89356  0.61767  0.04053  1.0000
  C   C786      1.0  0.89764  0.53243  0.18867  1.0000
  C   C787      1.0  0.88227  0.53288  0.16483  1.0000
  C   C788      1.0  0.87362  0.51521  0.15630  1.0000
  H   H936      1.0  0.85990  0.65009  0.14178  1.0000
  C   C789      1.0  0.80074  0.88551  0.09946  1.0000
  C   C790      1.0  0.90444  0.51418  0.20352  1.0000
  H   H937      1.0  0.87688  0.54686  0.15329  1.0000
  H   H938      1.0  0.94996  0.53497  0.21730  1.0000
  C   C791      1.0  0.84307  0.72039  0.20496  1.0000
  H   H939      1.0  0.91608  0.51378  0.22241  1.0000
  C   C792      1.0  0.89400  0.67736  0.24277  1.0000
  C   C793      1.0  0.89189  0.68587  0.27528  1.0000
  C   C794      1.0  0.89115  0.70671  0.28017  1.0000
  C   C795      1.0  0.89216  0.71939  0.25243  1.0000
  C   C796      1.0  0.89457  0.71087  0.21998  1.0000
  C   C797      1.0  0.89573  0.69001  0.21518  1.0000
  H   H940      1.0  0.89054  0.67626  0.29682  1.0000
  H   H941      1.0  0.88915  0.71299  0.30524  1.0000
  H   H942      1.0  0.89535  0.72050  0.19833  1.0000
  H   H943      1.0  0.89765  0.68382  0.19007  1.0000
  H   H944      1.0  0.78526  0.89887  0.01928  1.0000
  C   C798      1.0  0.97723  0.79364  0.33551  1.0000
  C   C799      1.0  0.97802  0.79616  0.30050  1.0000
  H   H945      1.0  0.70912  0.95272  0.04065  1.0000
  H   H946      1.0  0.96451  0.79661  0.28566  1.0000
  C   C800      1.0  0.97722  0.61914  0.13992  1.0000
  H   H947      1.0  0.94050  0.66066  0.03847  1.0000
  C   C801      1.0  0.97335  0.62497  0.17338  1.0000
  C   C802      1.0  0.81014  0.87218  0.15621  1.0000
  H   H948      1.0  0.83858  0.63446  0.18042  1.0000
  C   C803      1.0  0.70154  0.94148  0.02727  1.0000
  H   H949      1.0  0.84220  0.70512  0.15802  1.0000
  H   H950      1.0  0.87274  0.66197  0.17501  1.0000
  C   C804      1.0  0.97013  0.52612  0.13673  1.0000
  H   H951      1.0  0.82485  0.68092  0.13651  1.0000
  H   H952      1.0  0.80438  0.92756  0.03200  1.0000
  C   C805      1.0  0.97937  0.64088  0.04509  1.0000
  C   C806      1.0  0.85923  0.50305  0.24963  1.0000
  H   H953      1.0  0.75866  0.95754  0.01697  1.0000
  H   H954      1.0  0.90723  0.74619  0.44189  1.0000
  C   C807      1.0  0.79121  0.88478  0.06751  1.0000
  C   C808      1.0  0.84143  0.68418  0.19988  1.0000
  H   H955      1.0  0.82574  0.64853  0.21345  1.0000
  C   C809      1.0  0.79296  0.89956  0.04329  1.0000
  C   C810      1.0  0.00005  0.64142  0.04680  1.0000
  N   N54       1.0  0.94815  0.63257  0.01346  1.0000
  H   H956      1.0  0.81205  0.86305  0.43108  1.0000
  H   H957      1.0  0.85264  0.64405  0.21394  1.0000
  N   N55       1.0  0.93976  0.85247  0.31706  1.0000
  C   C811      1.0  0.93183  0.83724  0.29489  1.0000
  C   C812      1.0  0.93244  0.84925  0.35181  1.0000
  C   C813      1.0  0.93125  0.87249  0.30611  1.0000
  C   C814      1.0  0.96178  0.85102  0.31444  1.0000
  H   H958      1.0  0.95129  0.77540  0.43230  1.0000
  H   H959      1.0  0.92236  0.73358  0.41029  1.0000
  H   H960      1.0  0.92038  0.64486  0.03574  1.0000
  C   C815      1.0  0.99638  0.79857  0.28466  1.0000
  H   H961      1.0  0.97088  0.74361  0.44572  1.0000
  H   H962      1.0  0.93812  0.82203  0.30219  1.0000
  H   H963      1.0  0.91528  0.83766  0.29643  1.0000
  H   H964      1.0  0.93547  0.83928  0.26785  1.0000
  H   H965      1.0  0.93729  0.83396  0.36095  1.0000
  H   H966      1.0  0.91585  0.85066  0.35291  1.0000
  H   H967      1.0  0.93774  0.86031  0.36992  1.0000
  H   H968      1.0  0.93414  0.87534  0.27904  1.0000
  H   H969      1.0  0.91473  0.87424  0.30904  1.0000
  H   H970      1.0  0.93758  0.88444  0.32118  1.0000
  H   H971      1.0  0.96906  0.84212  0.36676  1.0000
  C   C816      1.0  0.67999  0.91949  0.35074  1.0000
  H   H972      1.0  0.96502  0.76995  0.48344  1.0000
  H   H973      1.0  0.73729  0.88941  0.02748  1.0000
  H   H974      1.0  0.67419  0.93424  0.34319  1.0000
  N   N56       1.0  0.83081  0.82892  0.39875  1.0000
  C   C817      1.0  0.85186  0.82750  0.38770  1.0000
  C   C818      1.0  0.82283  0.80931  0.39311  1.0000
  C   C819      1.0  0.82981  0.83419  0.43512  1.0000
  C   C820      1.0  0.68002  0.88920  0.38347  1.0000
  H   H975      1.0  0.70313  0.86616  0.37102  1.0000
  H   H976      1.0  0.82551  0.85854  0.37796  1.0000
  H   H977      1.0  0.86107  0.81552  0.40118  1.0000
  H   H978      1.0  0.85324  0.82410  0.36024  1.0000
  H   H979      1.0  0.85869  0.84175  0.39223  1.0000
  H   H980      1.0  0.83203  0.79688  0.40555  1.0000
  H   H981      1.0  0.82256  0.80532  0.36578  1.0000
  H   H982      1.0  0.92773  0.60976  0.01687  1.0000
  H   H983      1.0  0.95796  0.73048  0.41462  1.0000
  C   C821      1.0  0.93678  0.64490  0.03934  1.0000
  C   C822      1.0  0.98913  0.62825  0.19527  1.0000
  H   H984      1.0  0.98615  0.63226  0.22137  1.0000
  C   C823      1.0  0.83934  0.64758  0.19750  1.0000
  H   H985      1.0  0.86136  0.67640  0.14115  1.0000
  C   C824      1.0  0.81201  0.90208  0.10567  1.0000
  C   C825      1.0  0.69277  0.99661  0.21384  1.0000
  H   H986      1.0  0.72810  0.97803  0.22428  1.0000
  C   C826      1.0  0.85950  0.66362  0.15812  1.0000
  H   H987      1.0  0.79599  0.84584  0.08856  1.0000
  N   N57       1.0  0.84095  0.66624  0.17819  1.0000
  C   C827      1.0  0.84199  0.70330  0.18510  1.0000
  H   H988      1.0  0.95282  0.56965  0.20040  1.0000
  H   H989      1.0  0.82270  0.65491  0.13886  1.0000
  H   H990      1.0  0.84420  0.73476  0.19322  1.0000
  H   H991      1.0  0.92461  0.77644  0.43179  1.0000
  H   H992      1.0  0.82058  0.83916  0.34942  1.0000
  C   C828      1.0  0.82374  0.66855  0.15466  1.0000
  H   H993      1.0  0.92149  0.72283  0.45134  1.0000
  H   H994      1.0  0.82638  0.87193  0.15112  1.0000
  H   H995      1.0  0.96231  0.85808  0.26065  1.0000
  H   H996      1.0  0.80951  0.67146  0.16875  1.0000
  H   H997      1.0  0.80481  0.83782  0.12910  1.0000
  H   H998      1.0  0.85566  0.51709  0.23670  1.0000
  C   C829      1.0  0.96581  0.56084  0.21012  1.0000
  C   C830      1.0  0.95315  0.76518  0.49887  1.0000
  C   C831      1.0  0.84214  0.68326  0.23576  1.0000
  H   H999      1.0  0.97958  0.51432  0.23885  1.0000
  C   C832      1.0  0.98085  0.52969  0.23178  1.0000
  H   H1000     1.0  0.86150  0.51570  0.13827  1.0000
  H   H1001     1.0  0.78181  0.87308  0.06133  1.0000
  C   C833      1.0  0.87981  0.61952  0.02636  1.0000
  H   H1002     1.0  0.77502  0.85850  0.15443  1.0000
  H   H1003     1.0  0.80338  0.84526  0.38300  1.0000
  H   H1004     1.0  0.76760  0.86621  0.11259  1.0000
  C   C834      1.0  0.80538  0.84994  0.11016  1.0000
  N   N58       1.0  0.93876  0.74835  0.44865  1.0000
  C   C835      1.0  0.93821  0.75393  0.48490  1.0000
  C   C836      1.0  0.84383  0.62367  0.02531  1.0000
  C   C837      1.0  0.81950  0.84366  0.37656  1.0000
  C   C838      1.0  0.81979  0.85689  0.48202  1.0000
  C   C839      1.0  0.95734  0.73560  0.44145  1.0000
  C   C840      1.0  0.75410  0.94259  0.01910  1.0000
  C   C841      1.0  0.99676  0.61755  0.12792  1.0000
  H   H1005     1.0  0.98483  0.55289  0.12856  1.0000
  H   H1006     1.0  0.82100  0.84977  0.10099  1.0000
  C   C842      1.0  0.97104  0.85445  0.28305  1.0000
  H   H1007     1.0  0.94951  0.60587  0.04313  1.0000
  C   C843      1.0  0.81327  0.91702  0.08151  1.0000
  H   H1008     1.0  0.71983  0.99235  0.16676  1.0000
  H   H1009     1.0  0.84745  0.80734  0.45190  1.0000
  C   C844      1.0  0.77727  0.86958  0.13430  1.0000
  H   H1010     1.0  0.81215  0.87074  0.49102  1.0000
  C   C845      1.0  0.84355  0.71899  0.24001  1.0000
  H   H1011     1.0  0.70322  0.91984  0.31344  1.0000
  H   H1012     1.0  0.88425  0.51351  0.27588  1.0000
  C   C846      1.0  0.96421  0.54118  0.21952  1.0000
  H   H1013     1.0  0.93732  0.50864  0.10789  1.0000
  H   H1014     1.0  0.72155  0.99255  0.26128  1.0000
  C   C847      1.0  0.00109  0.55819  0.22683  1.0000
  H   H1015     1.0  0.78144  0.99428  0.23562  1.0000
  C   C848      1.0  0.72632  0.99351  0.23448  1.0000
  H   H1016     1.0  0.80517  0.88634  0.16944  1.0000
  C   C849      1.0  0.69671  0.88112  0.36558  1.0000
  H   H1017     1.0  0.68723  0.90694  0.24104  1.0000
  H   H1018     1.0  0.81955  0.90419  0.12933  1.0000
  C   C850      1.0  0.80375  0.91577  0.05042  1.0000
  H   H1019     1.0  0.99461  0.79097  0.38134  1.0000
  H   H1020     1.0  0.84429  0.69938  0.28260  1.0000
  C   C851      1.0  0.70504  0.89216  0.34044  1.0000
  H   H1021     1.0  0.84517  0.73216  0.25529  1.0000
  N   N59       1.0  0.79853  0.86968  0.12474  1.0000
  H   H1022     1.0  0.85779  0.75980  0.49039  1.0000
  H   H1023     1.0  0.80739  0.80931  0.40303  1.0000
  C   C852      1.0  0.84306  0.70049  0.25536  1.0000
  H   H1024     1.0  0.95596  0.53399  0.13042  1.0000
  H   H1025     1.0  0.77133  0.88436  0.14416  1.0000
  H   H1026     1.0  0.97113  0.64570  0.06744  1.0000
  C   C853      1.0  0.96998  0.63382  0.01570  1.0000
  H   H1027     1.0  0.71783  0.88585  0.32628  1.0000
  C   C854      1.0  0.67100  0.90859  0.37639  1.0000
  C   C855      1.0  0.99531  0.84426  0.33857  1.0000
  H   H1028     1.0  0.82136  0.92986  0.08720  1.0000
  H   H1029     1.0  0.99678  0.80107  0.25771  1.0000
  H   H1030     1.0  0.69480  0.98150  0.20204  1.0000
  C   C856      1.0  0.99504  0.79287  0.35424  1.0000
  H   H1031     1.0  0.93139  0.51689  0.15047  1.0000
  H   H1032     1.0  0.93964  0.63912  0.06530  1.0000
  C   C857      1.0  0.97460  0.84573  0.34219  1.0000
  H   H1033     1.0  0.69697  0.92476  0.07231  1.0000
  C   C858      1.0  0.81983  0.85224  0.44750  1.0000
  C   C859      1.0  0.83955  0.82127  0.45937  1.0000
  H   H1034     1.0  0.68063  0.89843  0.04215  1.0000
  C   C860      1.0  0.86871  0.77031  0.49532  1.0000
  H   H1035     1.0  0.67076  0.92792  0.43566  1.0000
  H   H1036     1.0  0.67409  0.88008  0.40272  1.0000
  C   C861      1.0  0.98393  0.56927  0.21359  1.0000
  H   H1037     1.0  0.95855  0.72213  0.45780  1.0000
  H   H1038     1.0  0.68713  0.99420  0.23979  1.0000
  C   C862      1.0  0.97211  0.50562  0.14591  1.0000
  H   H1039     1.0  0.74137  0.99898  0.23433  1.0000
  C   C863      1.0  0.94397  0.61154  0.01812  1.0000
  C   C864      1.0  0.67613  0.91696  0.25349  1.0000
  C   C865      1.0  0.68564  0.91082  0.02807  1.0000
  H   H1040     1.0  0.99983  0.61310  0.10203  1.0000
  H   H1041     1.0  0.91106  0.74005  0.49919  1.0000
  C   C866      1.0  0.93608  0.50367  0.13450  1.0000
  H   H1042     1.0  0.99855  0.85502  0.25538  1.0000
  Fe  Fe117     1.0  0.88852  0.79006  0.63460  1.0000
  S   S233      1.0  0.89486  0.81748  0.66454  1.0000
  S   S234      1.0  0.89493  0.79445  0.57800  1.0000
  Fe  Fe118     1.0  0.87935  0.76732  0.69998  1.0000
  S   S235      1.0  0.88520  0.79363  0.73253  1.0000
  S   S236      1.0  0.86826  0.74331  0.73445  1.0000
  Fe  Fe119     1.0  0.86741  0.81268  0.69504  1.0000
  S   S237      1.0  0.84159  0.83708  0.70409  1.0000
  Fe  Fe120     1.0  0.91198  0.79600  0.69947  1.0000
  S   S238      1.0  0.94117  0.79812  0.72778  1.0000
  S   S239      1.0  0.86012  0.78631  0.66326  1.0000
  S   S240      1.0  0.90717  0.76874  0.66878  1.0000
  Fe  Fe121     1.0  0.75181  0.93455  0.89353  1.0000
  S   S241      1.0  0.77864  0.93604  0.86013  1.0000
  S   S242      1.0  0.75357  0.94319  0.94959  1.0000
  Fe  Fe122     1.0  0.72448  0.92766  0.83260  1.0000
  S   S243      1.0  0.74953  0.92821  0.79483  1.0000
  S   S244      1.0  0.69107  0.92380  0.82688  1.0000
  Fe  Fe123     1.0  0.76838  0.90949  0.83213  1.0000
  S   S245      1.0  0.79226  0.88317  0.82408  1.0000
  Fe  Fe124     1.0  0.75846  0.95457  0.82522  1.0000
  S   S246      1.0  0.76791  0.98182  0.79770  1.0000
  S   S247      1.0  0.74265  0.90687  0.86811  1.0000
  S   S248      1.0  0.73237  0.95521  0.86016  1.0000
  Fe  Fe125     1.0  0.88629  0.62486  0.89151  1.0000
  S   S249      1.0  0.88466  0.60996  0.84049  1.0000
  S   S250      1.0  0.86064  0.62338  0.92766  1.0000
  Fe  Fe126     1.0  0.92824  0.63517  0.88029  1.0000
  S   S251      1.0  0.93047  0.62025  0.82982  1.0000
  S   S252      1.0  0.95434  0.65021  0.89970  1.0000
  Fe  Fe127     1.0  0.90009  0.63634  0.82103  1.0000
  S   S253      1.0  0.89683  0.65253  0.77009  1.0000
  Fe  Fe128     1.0  0.91501  0.59548  0.85376  1.0000
  S   S254      1.0  0.92706  0.56277  0.85825  1.0000
  S   S255      1.0  0.89881  0.65232  0.87096  1.0000
  S   S256      1.0  0.91566  0.60944  0.90542  1.0000
  C   C867      1.0  0.91698  0.54031  0.84606  1.0000
  C   C868      1.0  0.92264  0.52287  0.86435  1.0000
  H   H1043     1.0  0.95141  0.60166  0.99850  1.0000
  C   C869      1.0  0.94041  0.63939  0.97989  1.0000
  C   C870      1.0  0.90011  0.52014  0.80572  1.0000
  C   C871      1.0  0.90534  0.53891  0.81698  1.0000
  H   H1044     1.0  0.93168  0.52376  0.88684  1.0000
  H   H1045     1.0  0.85123  0.58143  0.94364  1.0000
  H   H1046     1.0  0.89161  0.51912  0.78263  1.0000
  H   H1047     1.0  0.90108  0.55215  0.80237  1.0000
  C   C872      1.0  0.87769  0.71848  0.74460  1.0000
  C   C873      1.0  0.87321  0.71066  0.77636  1.0000
  C   C874      1.0  0.87945  0.69075  0.78499  1.0000
  C   C875      1.0  0.88975  0.67816  0.76151  1.0000
  C   C876      1.0  0.89419  0.68598  0.72972  1.0000
  C   C877      1.0  0.88851  0.70607  0.72149  1.0000
  H   H1048     1.0  0.86473  0.72001  0.79441  1.0000
  H   H1049     1.0  0.87576  0.68498  0.80942  1.0000
  H   H1050     1.0  0.90177  0.67632  0.71108  1.0000
  H   H1051     1.0  0.89176  0.71169  0.69674  1.0000
  C   C878      1.0  0.82871  0.85037  0.73796  1.0000
  C   C879      1.0  0.83372  0.84718  0.77197  1.0000
  C   C880      1.0  0.82239  0.85734  0.79773  1.0000
  C   C881      1.0  0.80609  0.87113  0.79007  1.0000
  C   C882      1.0  0.80144  0.87483  0.75607  1.0000
  C   C883      1.0  0.81261  0.86445  0.73029  1.0000
  H   H1052     1.0  0.84632  0.83690  0.77854  1.0000
  H   H1053     1.0  0.82629  0.85445  0.82388  1.0000
  H   H1054     1.0  0.78894  0.88530  0.74961  1.0000
  H   H1055     1.0  0.80857  0.86714  0.70414  1.0000
  H   H1056     1.0  0.86734  0.53392  0.86025  1.0000
  C   C884      1.0  0.83147  0.94618  0.87617  1.0000
  C   C885      1.0  0.95289  0.77075  0.53296  1.0000
  C   C886      1.0  0.91714  0.50419  0.85341  1.0000
  C   C887      1.0  0.98618  0.65077  0.77175  1.0000
  C   C888      1.0  0.93801  0.76502  0.55420  1.0000
  H   H1057     1.0  0.82974  0.84759  0.53174  1.0000
  H   H1058     1.0  0.69644  0.93734  0.75698  1.0000
  C   C889      1.0  0.97314  0.61312  0.89072  1.0000
  C   C890      1.0  0.97537  0.63331  0.89620  1.0000
  N   N60       1.0  0.68866  0.92737  0.93649  1.0000
  H   H1059     1.0  0.95849  0.60784  0.88943  1.0000
  H   H1060     1.0  0.82534  0.95733  0.74893  1.0000
  H   H1061     1.0  0.88832  0.58028  0.93596  1.0000
  C   C891      1.0  0.96480  0.79782  0.70803  1.0000
  C   C892      1.0  0.96661  0.80010  0.67315  1.0000
  H   H1062     1.0  0.98093  0.79388  0.75500  1.0000
  H   H1063     1.0  0.95337  0.80199  0.65757  1.0000
  C   C893      1.0  0.82389  0.96608  0.87638  1.0000
  C   C894      1.0  0.88751  0.78855  0.53603  1.0000
  C   C895      1.0  0.87337  0.77504  0.52910  1.0000
  H   H1064     1.0  0.98815  0.58404  0.88241  1.0000
  H   H1065     1.0  0.86614  0.76811  0.54978  1.0000
  H   H1066     1.0  0.83013  0.62603  0.97627  1.0000
  H   H1067     1.0  0.97685  0.62030  0.96628  1.0000
  C   C896      1.0  0.88007  0.62022  0.99054  1.0000
  H   H1068     1.0  0.74252  0.90352  0.97055  1.0000
  C   C897      1.0  0.98486  0.54530  0.83576  1.0000
  H   H1069     1.0  0.67251  0.94312  0.70938  1.0000
  C   C898      1.0  0.86206  0.62266  0.97233  1.0000
  H   H1070     1.0  0.00000  0.65874  0.83302  1.0000
  H   H1071     1.0  0.83764  0.91965  0.84808  1.0000
  C   C899      1.0  0.81686  0.97504  0.84655  1.0000
  H   H1072     1.0  0.95948  0.52888  0.83437  1.0000
  C   C900      1.0  0.98993  0.59962  0.88674  1.0000
  C   C901      1.0  0.75074  0.93163  0.98957  1.0000
  C   C902      1.0  0.83498  0.91209  0.78522  1.0000
  H   H1073     1.0  0.96747  0.69210  0.72767  1.0000
  H   H1074     1.0  0.83525  0.93414  0.73198  1.0000
  H   H1075     1.0  0.69217  0.99034  0.80095  1.0000
  C   C903      1.0  0.92341  0.75361  0.54152  1.0000
  C   C904      1.0  0.82966  0.84388  0.50505  1.0000
  C   C905      1.0  0.82490  0.94379  0.81521  1.0000
  H   H1076     1.0  0.98071  0.69615  0.83755  1.0000
  C   C906      1.0  0.81726  0.96410  0.81645  1.0000
  C   C907      1.0  0.68347  0.91159  0.99294  1.0000
  H   H1077     1.0  0.79596  0.92186  0.79338  1.0000
  C   C908      1.0  0.97465  0.52909  0.82576  1.0000
  C   C909      1.0  0.86967  0.50518  0.88167  1.0000
  H   H1078     1.0  0.99616  0.65554  0.90306  1.0000
  C   C910      1.0  0.86898  0.52597  0.88384  1.0000
  C   C911      1.0  0.83399  0.94311  0.75571  1.0000
  H   H1079     1.0  0.85234  0.56505  0.87401  1.0000
  H   H1080     1.0  0.81091  0.97159  0.79434  1.0000
  H   H1081     1.0  0.69388  0.94506  0.89249  1.0000
  H   H1082     1.0  0.93742  0.76984  0.58040  1.0000
  N   N61       1.0  0.94172  0.74250  0.77272  1.0000
  C   C912      1.0  0.92175  0.74591  0.75667  1.0000
  C   C913      1.0  0.94374  0.75904  0.79704  1.0000
  C   C914      1.0  0.95681  0.74348  0.74567  1.0000
  C   C915      1.0  0.94497  0.72320  0.79053  1.0000
  C   C916      1.0  0.93024  0.70936  0.79233  1.0000
  C   C917      1.0  0.96335  0.71784  0.80717  1.0000
  C   C918      1.0  0.93374  0.69141  0.80986  1.0000
  C   C919      1.0  0.96668  0.69985  0.82465  1.0000
  C   C920      1.0  0.95191  0.68665  0.82591  1.0000
  H   H1083     1.0  0.90953  0.74605  0.77558  1.0000
  H   H1084     1.0  0.69560  0.89549  0.93166  1.0000
  H   H1085     1.0  0.91985  0.76061  0.74370  1.0000
  H   H1086     1.0  0.93332  0.75818  0.81865  1.0000
  H   H1087     1.0  0.94037  0.77388  0.78502  1.0000
  H   H1088     1.0  0.95907  0.75908  0.80737  1.0000
  H   H1089     1.0  0.95635  0.73078  0.72774  1.0000
  H   H1090     1.0  0.95424  0.75741  0.73064  1.0000
  H   H1091     1.0  0.97221  0.74345  0.75576  1.0000
  H   H1092     1.0  0.91584  0.71204  0.78052  1.0000
  H   H1093     1.0  0.97522  0.72764  0.80701  1.0000
  H   H1094     1.0  0.92230  0.68102  0.81091  1.0000
  C   C921      1.0  0.98557  0.80067  0.65850  1.0000
  H   H1095     1.0  0.85513  0.55926  0.96786  1.0000
  H   H1096     1.0  0.91156  0.74971  0.55807  1.0000
  H   H1097     1.0  0.90769  0.80780  0.51363  1.0000
  C   C922      1.0  0.83200  0.93509  0.84615  1.0000
  H   H1098     1.0  0.86539  0.58496  0.89008  1.0000
  C   C923      1.0  0.67447  0.92856  0.79190  1.0000
  H   H1099     1.0  0.89403  0.61885  0.97707  1.0000
  C   C924      1.0  0.70068  0.90976  0.92258  1.0000
  C   C925      1.0  0.98269  0.62667  0.98889  1.0000
  H   H1100     1.0  0.79463  0.94484  0.77067  1.0000
  H   H1101     1.0  0.95565  0.51454  0.75656  1.0000
  H   H1102     1.0  0.90146  0.55843  0.91770  1.0000
  H   H1103     1.0  0.98670  0.80304  0.63163  1.0000
  C   C926      1.0  0.99442  0.63996  0.89827  1.0000
  H   H1104     1.0  0.94311  0.51326  0.79619  1.0000
  C   C927      1.0  0.98217  0.79554  0.72795  1.0000
  C   C928      1.0  0.96780  0.67778  0.74004  1.0000
  N   N62       1.0  0.82447  0.93239  0.78315  1.0000
  H   H1105     1.0  0.84926  0.94659  0.76316  1.0000
  C   C929      1.0  0.69041  0.92737  0.97381  1.0000
  H   H1106     1.0  0.76508  0.99401  0.86856  1.0000
  H   H1107     1.0  0.83858  0.55996  0.93214  1.0000
  H   H1108     1.0  0.82315  0.97451  0.89979  1.0000
  H   H1109     1.0  0.69989  0.90928  0.89447  1.0000
  H   H1110     1.0  0.80234  0.92184  0.74953  1.0000
  N   N63       1.0  0.86964  0.55779  0.91897  1.0000
  C   C930      1.0  0.86648  0.56849  0.88640  1.0000
  C   C931      1.0  0.85294  0.56483  0.94164  1.0000
  C   C932      1.0  0.96841  0.64083  0.77199  1.0000
  H   H1111     1.0  0.83660  0.93916  0.89958  1.0000
  C   C933      1.0  0.87330  0.52346  0.94449  1.0000
  H   H1112     1.0  0.97723  0.55707  0.85088  1.0000
  H   H1113     1.0  0.89128  0.55772  0.95951  1.0000
  H   H1114     1.0  0.85091  0.91266  0.79226  1.0000
  H   H1115     1.0  0.93707  0.67396  0.72886  1.0000
  C   C934      1.0  0.98530  0.66957  0.75546  1.0000
  H   H1116     1.0  0.87911  0.56483  0.86867  1.0000
  H   H1117     1.0  0.94564  0.65412  0.97326  1.0000
  H   H1118     1.0  0.82784  0.90271  0.80391  1.0000
  H   H1119     1.0  0.83453  0.90387  0.76077  1.0000
  H   H1120     1.0  0.72572  0.99792  0.81974  1.0000
  C   C935      1.0  0.74491  0.91228  0.99286  1.0000
  C   C936      1.0  0.84407  0.62420  0.99000  1.0000
  H   H1121     1.0  0.96407  0.77982  0.54297  1.0000
  H   H1122     1.0  0.99239  0.62327  0.82342  1.0000
  H   H1123     1.0  0.87474  0.52981  0.96938  1.0000
  C   C937      1.0  0.87065  0.53580  0.91550  1.0000
  C   C938      1.0  0.80348  0.93020  0.77367  1.0000
  C   C939      1.0  0.95070  0.66757  0.74054  1.0000
  N   N64       1.0  0.81806  0.78668  0.75758  1.0000
  C   C940      1.0  0.81292  0.76780  0.77320  1.0000
  C   C941      1.0  0.81968  0.78317  0.72058  1.0000
  C   C942      1.0  0.83794  0.79119  0.76994  1.0000
  C   C943      1.0  0.80313  0.80323  0.76693  1.0000
  C   C944      1.0  0.79920  0.80783  0.80147  1.0000
  C   C945      1.0  0.79252  0.81552  0.74259  1.0000
  C   C946      1.0  0.78555  0.82368  0.81099  1.0000
  C   C947      1.0  0.77876  0.83121  0.75244  1.0000
  C   C948      1.0  0.77532  0.83531  0.78652  1.0000
  H   H1124     1.0  0.82343  0.75491  0.76517  1.0000
  H   H1125     1.0  0.81373  0.76822  0.80120  1.0000
  H   H1126     1.0  0.79761  0.76441  0.76592  1.0000
  H   H1127     1.0  0.80527  0.77947  0.70950  1.0000
  H   H1128     1.0  0.83091  0.77051  0.71448  1.0000
  H   H1129     1.0  0.82468  0.79642  0.70732  1.0000
  H   H1130     1.0  0.83829  0.79376  0.79763  1.0000
  H   H1131     1.0  0.84946  0.77875  0.76444  1.0000
  H   H1132     1.0  0.84271  0.80475  0.75749  1.0000
  H   H1133     1.0  0.80700  0.79949  0.82140  1.0000
  H   H1134     1.0  0.79494  0.81372  0.71578  1.0000
  H   H1135     1.0  0.78321  0.82735  0.83745  1.0000
  H   H1136     1.0  0.77120  0.84071  0.73352  1.0000
  H   H1137     1.0  0.76519  0.84796  0.79402  1.0000
  C   C949      1.0  0.89674  0.79733  0.50863  1.0000
  C   C950      1.0  0.88849  0.56375  0.93373  1.0000
  H   H1138     1.0  0.91935  0.73445  0.73709  1.0000
  H   H1139     1.0  0.92384  0.64091  0.97881  1.0000
  C   C951      1.0  0.68092  0.93503  0.76056  1.0000
  C   C952      1.0  0.98371  0.51363  0.80504  1.0000
  H   H1140     1.0  0.95449  0.67268  0.83932  1.0000
  H   H1141     1.0  0.94506  0.62878  0.95927  1.0000
  C   C953      1.0  0.95102  0.64919  0.75649  1.0000
  H   H1142     1.0  0.93762  0.64135  0.75692  1.0000
  C   C954      1.0  0.92329  0.74824  0.50737  1.0000
  H   H1143     1.0  0.71192  0.94639  0.92523  1.0000
  H   H1144     1.0  0.67668  0.89948  0.98079  1.0000
  C   C955      1.0  0.69575  0.94535  0.92048  1.0000
  H   H1145     1.0  0.71662  0.91004  0.92981  1.0000
  H   H1146     1.0  0.96747  0.62656  0.78392  1.0000
  H   H1147     1.0  0.68733  0.95923  0.92975  1.0000
  C   C956      1.0  0.00120  0.79578  0.71319  1.0000
  H   H1148     1.0  0.99957  0.61105  0.78387  1.0000
  C   C957      1.0  0.95313  0.50463  0.77827  1.0000
  H   H1149     1.0  0.99823  0.67798  0.75437  1.0000
  H   H1150     1.0  0.70601  0.95457  0.97989  1.0000
  H   H1151     1.0  0.81060  0.99043  0.84682  1.0000
  H   H1152     1.0  0.84735  0.81601  0.51162  1.0000
  C   C958      1.0  0.69960  0.94235  0.99212  1.0000
  C   C959      1.0  0.90616  0.50264  0.82365  1.0000
  C   C960      1.0  0.87413  0.50267  0.94192  1.0000
