data_image0
_chemical_formula_structural       H3CFeSH2CH2FeHC2HS2CHSFeSFeS2H2C2HC2H2FeC6H4CH4SH2C3H4C6HCSCH4NHC2HC5H3CHC2H3CHFeH2CNHCHC3HNSHCH3FeC2H5SCH2SCFeSH2SHSHCHCS2C2SCH4CH3FeHSHC2SH2C3NCH2SHCHC6H3C2FeH3CFeH2SHC6H5C2FeCH2SC2HCHFeSCHCH2SH2C2HFeNCHC2HCSC2HCH3C2SHCHCH2C2HCHSHCH2SHCH2CHSFeH4NHCSH3SCH2C3HCHC2H2CHCH3C2SC3S6FeSFeSFeSH2FeSHSFeSFeS2CFeHCH3FeHCH2CH3C6H6FeSCSC7H3CHC2HC3H2NSHC3H3CHCH6C2HFeC4HCSHCHCHCNC9H5FeH2CH7CNC2HC2HCFeHCH6CH3NC2HC3HCH4C3HC2H2NH6SH3SC2HCH2CH3C2HCH2C4SCSHFeS2FeSFeS3H2FeSHFeSHCSNC2H2CH3C4SH3NHC3HCH2CHC2H3SNHC4H2C6H7CH2SC2H2CHCH3CHCH5C2NH2CH2CFeHC4H2CFeCH2CNC9H4CHC3H2CH2C2HSCHCSH3CNHCHCH3S2HCHSFeHFeC2H3SHCFeH2C2H3FeHC4H2C3H2SH2SHSFeS2FeSCFeSFeS3CH3C5H2C6H5SH3C4HSC7H4CSCNHC6HCHC2HCSH2C2HCHNC9H17CHCHNHFe2CHC2SH3SFeCHCHC4HCH4CHSH4CSHNHCSH2CHCHC2H2SHCSH4C3H3C2H2CHCHFeHFeS3FeSFeS2CHSCFeSCFeSFeSHFeS2FeS2FeSHCS2FeS2FeS2FeSFeS3H3C4H3CH4CH3C6H4SHC2HC3HCH2C6H5C2H2C4H2C6H6CHFeH4NC9H15CH2CH3CH2C2FeH2C2H2SH3NHC9HS2CFeCHCNH3CH3N2HSHC2H2C2NCHC2HNHCH8CH4C3HCH2C4H4C2H2CH4CHNC4HCFeCH5CHCFeHC3H3CH3SH2C3FeCH3CH2FeSH2SH6C2FeSCSFeS2HCSH3SFeS2FeS2FeSFeS3HC2H2C2H2CHSHC6H7C3H2CHC6H5C6H4C2H3CH3C2HNHCNC2HC3HCH6FeCH5C2NC3FeHCH2FeH5CH3CHFeH2NC6HC3HSCH2C3H2C2HSCNCH2C2HCHSH3CSH4SCH2C2H2C3SH3C2HCHCH6C3HCNSHFeSHFeS2FeSFeS3H2SHCHCH3C2H2CH2C6H2C3SC2SCHFeC6H5FeH6SHSHFeHCH2SH4CHCSHCH2SHCH2SC3HC2H2C8HCHC2HCHNCH5C3HCH3CHCH2CHFeH2NH2C2H2C5SC3H2CFeCH4SFeSFeS3CFeCSH2SFeHSFeHSC2NS2C3H3C3H5C6H2CH5C3SN2CH6C2HCH2CH5C3H4CSH2Fe2HCH3CHSHC3HFeH2C3HCFeC2H2CHC2H3CNHFeHC3HC5H2C3SHCSHCH5CHCH2C2HSHSHCHNHCHC2H2CHCNFeCHCHCH2S2H2CNH2CSHFeSH2CFeS2CH2FeSHCFeS3H2SFeHSNCHCS2C6H7CHSC2H4FeCH2SH4C4NH3CNCH3C6H4C2H2CSCH2C2HFeH2NHC8H3C2H2CH4SHCHC3H3CHCH5CH2C3H2NC4HC2H2CHSCHCSHSH2C4H3C2SFeH2CH2CH3SCSFeSFeS2H5CSHFeS2HFeSFeSHFeCS2HCS2CSC7H4C6H4C4HC2H2CFeHSCHC3HSH5CH3C4H2CN2CHCHC3HCH6C2H2NHC2H4C2HCHSHCFeCH2CHCNCH6CHSHCSHNHC2HSCH2CH9C2HC7H5CHC2SHC2SCHFeHCHC2H5CFeCH2C2HCHCHC3NC3H2SHFeHSH2C7H4C6H2CSH2SCHC2FeS2H3C2HC2HC2HC3HC2SHCH5CNH2C6H3SH4CHCH2CHFeH2CH3FeC2H2CH2SCSHCH3C2NHSHNH7NC2HCH2CHFeC3HCNCH6CH2CFe
_chemical_formula_sum              "H1080 C900 Fe120 S240 N60"
_cell_length_a       57.8453
_cell_length_b       58.3226
_cell_length_c       55.1843
_cell_angle_alpha    78.4494
_cell_angle_beta     82.2806
_cell_angle_gamma    81.0164

_space_group_name_H-M_alt    "P 1"
_space_group_IT_number       1

loop_
  _space_group_symop_operation_xyz
  'x, y, z'

loop_
  _atom_site_type_symbol
  _atom_site_label
  _atom_site_symmetry_multiplicity
  _atom_site_fract_x
  _atom_site_fract_y
  _atom_site_fract_z
  _atom_site_occupancy
  H   H1        1.0  0.09083  0.24191  0.32533  1.0000
  H   H2        1.0  0.06330  0.31186  0.36492  1.0000
  H   H3        1.0  0.10193  0.24131  0.36616  1.0000
  C   C1        1.0  0.23759  0.07494  0.45111  1.0000
  Fe  Fe1       1.0  0.99809  0.30798  0.35841  1.0000
  S   S1        1.0  0.27388  0.39366  0.00429  1.0000
  H   H4        1.0  0.12392  0.25525  0.39214  1.0000
  H   H5        1.0  0.21729  0.11825  0.40425  1.0000
  C   C2        1.0  0.23513  0.08619  0.42610  1.0000
  H   H6        1.0  0.25425  0.08020  0.36544  1.0000
  H   H7        1.0  0.05147  0.22445  0.39237  1.0000
  Fe  Fe2       1.0  0.08323  0.19551  0.45265  1.0000
  H   H8        1.0  0.19506  0.37021  0.03974  1.0000
  C   C3        1.0  0.24520  0.08958  0.38053  1.0000
  C   C4        1.0  0.00789  0.14052  0.45157  1.0000
  H   H9        1.0  0.01694  0.24002  0.31212  1.0000
  S   S2        1.0  0.16521  0.46497  0.07917  1.0000
  S   S3        1.0  0.07839  0.13744  0.43099  1.0000
  C   C5        1.0  0.10509  0.07381  0.46421  1.0000
  H   H10       1.0  0.00023  0.39101  0.32271  1.0000
  S   S4        1.0  0.10413  0.18558  0.41799  1.0000
  Fe  Fe3       1.0  0.07078  0.17464  0.41066  1.0000
  S   S5        1.0  0.05918  0.18117  0.37234  1.0000
  Fe  Fe4       1.0  0.11066  0.14897  0.44078  1.0000
  S   S6        1.0  0.14543  0.12680  0.43153  1.0000
  S   S7        1.0  0.04926  0.18761  0.44317  1.0000
  H   H11       1.0  0.11714  0.30018  0.38010  1.0000
  H   H12       1.0  0.10706  0.29947  0.41260  1.0000
  C   C6        1.0  0.04560  0.20973  0.36129  1.0000
  C   C7        1.0  0.04376  0.22779  0.37498  1.0000
  H   H13       1.0  0.05301  0.31134  0.32362  1.0000
  C   C8        1.0  0.03606  0.21430  0.33854  1.0000
  C   C9        1.0  0.18766  0.40932  0.00578  1.0000
  H   H14       1.0  0.06661  0.27669  0.30356  1.0000
  H   H15       1.0  0.03747  0.20035  0.32790  1.0000
  Fe  Fe5       1.0  0.01491  0.33539  0.39190  1.0000
  C   C10       1.0  0.26657  0.41219  0.02634  1.0000
  C   C11       1.0  0.26222  0.40184  0.05135  1.0000
  C   C12       1.0  0.25294  0.41583  0.06911  1.0000
  C   C13       1.0  0.24702  0.44017  0.06185  1.0000
  C   C14       1.0  0.25163  0.45077  0.03686  1.0000
  C   C15       1.0  0.26179  0.43678  0.01908  1.0000
  H   H16       1.0  0.26575  0.38287  0.05698  1.0000
  H   H17       1.0  0.24955  0.40763  0.08842  1.0000
  H   H18       1.0  0.11187  0.25808  0.42326  1.0000
  H   H19       1.0  0.26471  0.44478  0.99965  1.0000
  C   C16       1.0  0.10148  0.29909  0.39419  1.0000
  H   H20       1.0  0.20116  0.42769  0.05625  1.0000
  H   H21       1.0  0.21750  0.42757  0.02631  1.0000
  H   H22       1.0  0.23709  0.04536  0.38946  1.0000
  H   H23       1.0  0.25451  0.10501  0.38008  1.0000
  S   S8        1.0  0.01056  0.34352  0.35117  1.0000
  H   H24       1.0  0.15417  0.39610  0.04396  1.0000
  H   H25       1.0  0.09933  0.24016  0.40757  1.0000
  C   C17       1.0  0.15609  0.10060  0.45117  1.0000
  C   C18       1.0  0.17064  0.08280  0.44050  1.0000
  C   C19       1.0  0.02084  0.33416  0.45281  1.0000
  H   H26       1.0  0.22706  0.09603  0.37533  1.0000
  H   H27       1.0  0.17389  0.08485  0.42047  1.0000
  H   H28       1.0  0.19276  0.04917  0.44727  1.0000
  H   H29       1.0  0.06006  0.26199  0.41339  1.0000
  C   C20       1.0  0.23068  0.05494  0.40515  1.0000
  C   C21       1.0  0.07203  0.27701  0.32153  1.0000
  C   C22       1.0  0.06435  0.29651  0.33290  1.0000
  C   C23       1.0  0.03213  0.25030  0.36600  1.0000
  C   C24       1.0  0.09190  0.25734  0.35749  1.0000
  C   C25       1.0  0.08454  0.27710  0.36953  1.0000
  H   H30       1.0  0.05573  0.29366  0.40666  1.0000
  C   C26       1.0  0.08569  0.25744  0.33383  1.0000
  S   S9        1.0  0.04637  0.34276  0.40706  1.0000
  C   C27       1.0  0.10722  0.25688  0.40465  1.0000
  H   H31       1.0  0.13355  0.04818  0.45587  1.0000
  H   H32       1.0  0.02468  0.14074  0.44029  1.0000
  H   H33       1.0  0.01822  0.41708  0.28640  1.0000
  H   H34       1.0  0.01385  0.32079  0.44598  1.0000
  N   N1        1.0  0.09052  0.27759  0.39467  1.0000
  H   H35       1.0  0.28670  0.46502  0.07061  1.0000
  C   C28       1.0  0.02441  0.23673  0.32964  1.0000
  C   C29       1.0  0.06874  0.27800  0.41220  1.0000
  H   H36       1.0  0.01440  0.16179  0.36829  1.0000
  C   C30       1.0  0.02227  0.25478  0.34338  1.0000
  C   C31       1.0  0.21076  0.11930  0.44256  1.0000
  C   C32       1.0  0.07033  0.29658  0.35659  1.0000
  C   C33       1.0  0.20164  0.38570  0.04412  1.0000
  C   C34       1.0  0.21383  0.10787  0.46683  1.0000
  H   H37       1.0  0.16514  0.40791  0.06724  1.0000
  H   H38       1.0  0.20061  0.38367  0.06473  1.0000
  H   H39       1.0  0.24716  0.46965  0.03132  1.0000
  C   C35       1.0  0.22117  0.10873  0.42242  1.0000
  H   H40       1.0  0.15384  0.42756  0.04153  1.0000
  C   C36       1.0  0.26977  0.06288  0.40831  1.0000
  C   C37       1.0  0.03756  0.34710  0.43763  1.0000
  H   H41       1.0  0.22079  0.38462  0.03772  1.0000
  H   H42       1.0  0.07238  0.27865  0.43134  1.0000
  H   H43       1.0  0.18973  0.44537  0.02873  1.0000
  C   C38       1.0  0.30411  0.00476  0.36933  1.0000
  H   H44       1.0  0.21190  0.06223  0.40343  1.0000
  Fe  Fe6       1.0  0.25165  0.98801  0.44545  1.0000
  H   H45       1.0  0.27111  0.04790  0.42430  1.0000
  H   H46       1.0  0.03149  0.26424  0.37623  1.0000
  C   C39       1.0  0.18141  0.06269  0.45557  1.0000
  N   N2        1.0  0.18803  0.40820  0.03280  1.0000
  H   H47       1.0  0.00754  0.18755  0.39829  1.0000
  C   C40       1.0  0.31713  0.45819  0.03407  1.0000
  H   H48       1.0  0.99852  0.47082  0.30918  1.0000
  C   C41       1.0  0.16423  0.40992  0.04687  1.0000
  C   C42       1.0  0.16690  0.41706  0.99361  1.0000
  C   C43       1.0  0.19957  0.42804  0.03627  1.0000
  H   H49       1.0  0.05929  0.37451  0.43475  1.0000
  N   N3        1.0  0.24506  0.07380  0.40529  1.0000
  S   S10       1.0  0.26764  0.00345  0.40678  1.0000
  H   H50       1.0  0.23131  0.04142  0.42253  1.0000
  C   C44       1.0  0.20882  0.40397  0.99047  1.0000
  H   H51       1.0  0.32093  0.44591  0.05172  1.0000
  H   H52       1.0  0.11720  0.29035  0.45850  1.0000
  H   H53       1.0  0.22551  0.39894  0.99808  1.0000
  Fe  Fe7       1.0  0.06022  0.15155  0.46446  1.0000
  C   C45       1.0  0.29459  0.99169  0.39169  1.0000
  C   C46       1.0  0.99847  0.17439  0.36845  1.0000
  H   H54       1.0  0.10943  0.08612  0.44723  1.0000
  H   H55       1.0  0.08913  0.31561  0.38977  1.0000
  H   H56       1.0  0.00681  0.22065  0.47147  1.0000
  H   H57       1.0  0.15018  0.42261  0.00344  1.0000
  H   H58       1.0  0.28078  0.07606  0.41087  1.0000
  S   S11       1.0  0.23347  0.45668  0.08440  1.0000
  C   C47       1.0  0.04656  0.36433  0.44654  1.0000
  H   H59       1.0  0.27809  0.05486  0.39199  1.0000
  H   H60       1.0  0.00467  0.22415  0.40963  1.0000
  S   S12       1.0  0.00580  0.29878  0.39801  1.0000
  C   C48       1.0  0.03815  0.36933  0.47018  1.0000
  Fe  Fe8       1.0  0.30661  0.39944  0.97834  1.0000
  S   S13       1.0  0.00721  0.28267  0.33172  1.0000
  H   H61       1.0  0.14117  0.00709  0.46111  1.0000
  H   H62       1.0  0.24667  0.05727  0.45557  1.0000
  S   S14       1.0  0.21193  0.99170  0.45253  1.0000
  H   H63       1.0  0.29851  0.45830  0.03111  1.0000
  S   S15       1.0  0.14936  0.47355  0.01174  1.0000
  H   H64       1.0  0.19934  0.13601  0.43939  1.0000
  C   C49       1.0  0.99431  0.18956  0.38568  1.0000
  H   H65       1.0  0.29505  0.02184  0.36181  1.0000
  C   C50       1.0  0.99950  0.42030  0.29190  1.0000
  S   S16       1.0  0.08144  0.23184  0.46154  1.0000
  S   S17       1.0  0.99974  0.45733  0.25285  1.0000
  C   C51       1.0  0.11887  0.05179  0.46947  1.0000
  C   C52       1.0  0.22727  0.08576  0.47109  1.0000
  S   S18       1.0  0.20176  0.44898  0.87778  1.0000
  C   C53       1.0  0.10085  0.27125  0.52936  1.0000
  H   H66       1.0  0.99788  0.35017  0.68027  1.0000
  H   H67       1.0  0.27957  0.45797  0.92314  1.0000
  H   H68       1.0  0.00335  0.23319  0.53937  1.0000
  H   H69       1.0  0.06706  0.29195  0.56279  1.0000
  C   C54       1.0  0.16296  0.07794  0.49214  1.0000
  H   H70       1.0  0.10016  0.32025  0.48337  1.0000
  H   H71       1.0  0.17361  0.41004  0.82961  1.0000
  H   H72       1.0  0.01420  0.19422  0.49378  1.0000
  Fe  Fe9       1.0  0.01359  0.45240  0.68894  1.0000
  H   H73       1.0  0.15138  0.42490  0.95899  1.0000
  S   S19       1.0  0.01156  0.43419  0.65600  1.0000
  H   H74       1.0  0.20500  0.11573  0.48238  1.0000
  C   C55       1.0  0.99820  0.20729  0.57176  1.0000
  C   C56       1.0  0.99948  0.36505  0.66518  1.0000
  S   S20       1.0  0.02603  0.43852  0.72683  1.0000
  H   H75       1.0  0.28434  0.46110  0.85142  1.0000
  H   H76       1.0  0.27474  0.00824  0.53297  1.0000
  C   C57       1.0  0.15184  0.09787  0.47706  1.0000
  C   C58       1.0  0.99584  0.36280  0.64105  1.0000
  C   C59       1.0  0.11397  0.03563  0.49192  1.0000
  N   N4        1.0  0.08659  0.31405  0.53369  1.0000
  C   C60       1.0  0.10299  0.30207  0.49277  1.0000
  H   H77       1.0  0.18877  0.41469  0.93353  1.0000
  H   H78       1.0  0.00012  0.32868  0.48846  1.0000
  S   S21       1.0  0.03915  0.25259  0.56813  1.0000
  H   H79       1.0  0.16059  0.02017  0.47578  1.0000
  C   C61       1.0  0.17811  0.06053  0.48143  1.0000
  H   H80       1.0  0.12851  0.47160  0.74154  1.0000
  C   C62       1.0  0.06727  0.23652  0.49079  1.0000
  C   C63       1.0  0.06823  0.21850  0.51174  1.0000
  C   C64       1.0  0.05926  0.22348  0.53539  1.0000
  C   C65       1.0  0.04874  0.24631  0.53812  1.0000
  C   C66       1.0  0.04678  0.26399  0.51696  1.0000
  C   C67       1.0  0.05629  0.25921  0.49344  1.0000
  H   H81       1.0  0.07671  0.20094  0.50988  1.0000
  H   H82       1.0  0.06068  0.20966  0.55165  1.0000
  H   H83       1.0  0.03879  0.28159  0.51876  1.0000
  C   C68       1.0  0.26282  0.46829  0.92661  1.0000
  C   C69       1.0  0.00633  0.40611  0.65090  1.0000
  Fe  Fe10      1.0  0.99350  0.46088  0.74104  1.0000
  H   H84       1.0  0.15242  0.99584  0.52588  1.0000
  H   H85       1.0  0.16018  0.07627  0.51217  1.0000
  H   H86       1.0  0.14437  0.44932  0.87038  1.0000
  C   C70       1.0  0.09665  0.29567  0.51877  1.0000
  Fe  Fe11      1.0  0.32315  0.41424  0.92389  1.0000
  H   H87       1.0  0.14804  0.02747  0.52037  1.0000
  H   H88       1.0  0.22873  0.07639  0.49003  1.0000
  S   S22       1.0  0.19298  0.03654  0.50085  1.0000
  H   H89       1.0  0.12391  0.24814  0.47805  1.0000
  C   C71       1.0  0.23246  0.44289  0.87949  1.0000
  C   C72       1.0  0.24798  0.45635  0.86312  1.0000
  C   C73       1.0  0.27240  0.45091  0.86445  1.0000
  C   C74       1.0  0.28139  0.43280  0.88294  1.0000
  C   C75       1.0  0.26589  0.41933  0.89934  1.0000
  C   C76       1.0  0.24155  0.42403  0.89719  1.0000
  H   H90       1.0  0.15715  0.46781  0.96087  1.0000
  H   H91       1.0  0.15839  0.98955  0.48451  1.0000
  H   H92       1.0  0.27265  0.40514  0.91350  1.0000
  H   H93       1.0  0.00438  0.41866  0.61163  1.0000
  H   H94       1.0  0.01935  0.22228  0.49887  1.0000
  C   C77       1.0  0.28899  0.00031  0.54407  1.0000
  C   C78       1.0  0.29779  0.01365  0.55865  1.0000
  Fe  Fe12      1.0  0.01219  0.28484  0.57027  1.0000
  C   C79       1.0  0.09457  0.04296  0.50860  1.0000
  H   H95       1.0  0.25771  0.99375  0.59450  1.0000
  H   H96       1.0  0.32061  0.98787  0.63926  1.0000
  S   S23       1.0  0.31200  0.42766  0.88529  1.0000
  C   C80       1.0  0.10607  0.44336  0.81801  1.0000
  C   C81       1.0  0.14788  0.00717  0.47905  1.0000
  H   H97       1.0  0.09593  0.26443  0.54875  1.0000
  C   C82       1.0  0.10389  0.33067  0.53231  1.0000
  H   H98       1.0  0.06807  0.33701  0.50429  1.0000
  Fe  Fe13      1.0  0.21664  0.00677  0.48555  1.0000
  S   S24       1.0  0.09302  0.16010  0.47642  1.0000
  C   C83       1.0  0.13251  0.44788  0.85655  1.0000
  H   H99       1.0  0.09962  0.99435  0.51858  1.0000
  C   C84       1.0  0.08091  0.06499  0.50311  1.0000
  H   H100      1.0  0.10783  0.34040  0.51307  1.0000
  H   H101      1.0  0.17098  0.41843  0.85902  1.0000
  S   S25       1.0  0.31554  0.37953  0.94685  1.0000
  H   H102      1.0  0.24118  0.47071  0.84913  1.0000
  H   H103      1.0  0.15166  0.47385  0.81560  1.0000
  C   C85       1.0  0.02140  0.35650  0.48537  1.0000
  C   C86       1.0  0.31592  0.00358  0.57371  1.0000
  H   H104      1.0  0.14922  0.40231  0.85215  1.0000
  Fe  Fe14      1.0  0.99808  0.33459  0.54383  1.0000
  N   N5        1.0  0.14592  0.43896  0.83464  1.0000
  C   C87       1.0  0.16184  0.45636  0.82216  1.0000
  H   H105      1.0  0.00802  0.38758  0.68858  1.0000
  C   C88       1.0  0.16046  0.41643  0.84419  1.0000
  C   C89       1.0  0.13068  0.43536  0.81654  1.0000
  H   H106      1.0  0.30073  0.47649  0.88964  1.0000
  C   C90       1.0  0.14051  0.42426  0.79611  1.0000
  S   S26       1.0  0.08141  0.47232  0.72977  1.0000
  C   C91       1.0  0.12650  0.42069  0.77878  1.0000
  C   C92       1.0  0.00314  0.40371  0.62669  1.0000
  H   H107      1.0  0.12295  0.46598  0.85113  1.0000
  C   C93       1.0  0.18842  0.41294  0.95353  1.0000
  H   H108      1.0  0.09166  0.42610  0.76721  1.0000
  H   H109      1.0  0.20831  0.45817  0.95462  1.0000
  H   H110      1.0  0.00685  0.21617  0.58279  1.0000
  C   C94       1.0  0.13903  0.01166  0.52177  1.0000
  C   C95       1.0  0.00681  0.21330  0.49165  1.0000
  S   S27       1.0  0.99262  0.29938  0.53721  1.0000
  H   H111      1.0  0.13438  0.41249  0.76311  1.0000
  C   C96       1.0  0.10239  0.42826  0.78109  1.0000
  H   H112      1.0  0.15920  0.41867  0.79309  1.0000
  C   C97       1.0  0.00491  0.38642  0.67005  1.0000
  H   H113      1.0  0.11323  0.23589  0.52306  1.0000
  H   H114      1.0  0.07362  0.44635  0.80163  1.0000
  C   C98       1.0  0.24509  0.45620  0.94091  1.0000
  C   C99       1.0  0.06488  0.32752  0.52371  1.0000
  H   H115      1.0  0.09723  0.34432  0.54402  1.0000
  C   C100      1.0  0.11345  0.99321  0.50266  1.0000
  H   H116      1.0  0.22970  0.41325  0.90948  1.0000
  S   S28       1.0  0.25567  0.00634  0.47659  1.0000
  H   H117      1.0  0.17288  0.45079  0.80572  1.0000
  C   C101      1.0  0.09224  0.43965  0.80058  1.0000
  H   H118      1.0  0.07263  0.31849  0.57112  1.0000
  H   H119      1.0  0.29018  0.03184  0.55854  1.0000
  S   S29       1.0  0.02056  0.31993  0.57478  1.0000
  H   H120      1.0  0.22557  0.40120  0.95378  1.0000
  C   C102      1.0  0.08040  0.30434  0.56040  1.0000
  H   H121      1.0  0.06627  0.07042  0.51614  1.0000
  H   H122      1.0  0.05553  0.27329  0.47737  1.0000
  C   C103      1.0  0.11088  0.25449  0.51475  1.0000
  H   H123      1.0  0.09712  0.45301  0.83209  1.0000
  S   S30       1.0  0.31138  0.43455  0.95481  1.0000
  Fe  Fe15      1.0  0.04350  0.47159  0.72185  1.0000
  H   H124      1.0  0.09001  0.03184  0.52621  1.0000
  H   H125      1.0  0.09610  0.29483  0.56949  1.0000
  H   H126      1.0  0.99528  0.38093  0.60310  1.0000
  H   H127      1.0  0.12573  0.01141  0.53829  1.0000
  N   N6        1.0  0.12844  0.01239  0.49852  1.0000
  H   H128      1.0  0.05147  0.31573  0.52394  1.0000
  C   C104      1.0  0.11685  0.26138  0.48933  1.0000
  S   S31       1.0  0.03265  0.13507  0.49178  1.0000
  H   H129      1.0  0.28290  0.99346  0.62613  1.0000
  H   H130      1.0  0.17408  0.45902  0.83498  1.0000
  H   H131      1.0  0.05659  0.34127  0.53477  1.0000
  S   S32       1.0  0.01078  0.36380  0.51452  1.0000
  C   C105      1.0  0.99806  0.38224  0.62175  1.0000
  H   H132      1.0  0.12081  0.32113  0.53883  1.0000
  H   H133      1.0  0.24899  0.43759  0.94870  1.0000
  C   C106      1.0  0.11288  0.28512  0.47834  1.0000
  C   C107      1.0  0.22224  0.46768  0.94420  1.0000
  C   C108      1.0  0.00684  0.13784  0.47746  1.0000
  H   H134      1.0  0.11964  0.43592  0.86637  1.0000
  C   C109      1.0  0.08618  0.08039  0.48098  1.0000
  H   H135      1.0  0.29655  0.98740  0.66385  1.0000
  C   C110      1.0  0.16738  0.41864  0.96790  1.0000
  C   C111      1.0  0.20909  0.40552  0.96486  1.0000
  H   H136      1.0  0.10446  0.99382  0.48588  1.0000
  H   H137      1.0  0.04451  0.38329  0.47665  1.0000
  C   C112      1.0  0.99589  0.21706  0.54680  1.0000
  H   H138      1.0  0.14066  0.11151  0.48544  1.0000
  C   C113      1.0  0.01309  0.33857  0.47688  1.0000
  H   H139      1.0  0.99126  0.17874  0.60188  1.0000
  H   H140      1.0  0.07569  0.09757  0.47699  1.0000
  H   H141      1.0  0.00774  0.70554  0.26912  1.0000
  C   C114      1.0  0.09052  0.65637  0.46463  1.0000
  C   C115      1.0  0.08387  0.55507  0.16156  1.0000
  S   S33       1.0  0.01741  0.53438  0.14400  1.0000
  C   C116      1.0  0.99714  0.48428  0.32131  1.0000
  C   C117      1.0  0.05775  0.50678  0.16009  1.0000
  C   C118      1.0  0.14089  0.51820  0.98442  1.0000
  S   S34       1.0  0.29577  0.56338  0.00735  1.0000
  S   S35       1.0  0.00390  0.52031  0.21939  1.0000
  S   S36       1.0  0.18658  0.56638  0.04350  1.0000
  S   S37       1.0  0.14140  0.51976  0.05872  1.0000
  S   S38       1.0  0.00310  0.67948  0.38564  1.0000
  S   S39       1.0  0.03683  0.63602  0.36296  1.0000
  Fe  Fe16      1.0  0.15980  0.48859  0.04241  1.0000
  S   S40       1.0  0.02413  0.68577  0.32582  1.0000
  Fe  Fe17      1.0  0.01868  0.64775  0.32799  1.0000
  S   S41       1.0  0.02742  0.62839  0.29483  1.0000
  Fe  Fe18      1.0  0.03818  0.67453  0.36309  1.0000
  S   S42       1.0  0.06848  0.68593  0.37833  1.0000
  H   H142      1.0  0.25612  0.60038  0.99794  1.0000
  H   H143      1.0  0.19453  0.88625  0.41399  1.0000
  Fe  Fe19      1.0  0.07372  0.83802  0.44642  1.0000
  S   S43       1.0  0.09572  0.84391  0.40974  1.0000
  H   H144      1.0  0.01461  0.48296  0.32822  1.0000
  S   S44       1.0  0.12977  0.79609  0.43027  1.0000
  Fe  Fe20      1.0  0.12652  0.83490  0.43268  1.0000
  S   S45       1.0  0.15752  0.85670  0.42562  1.0000
  Fe  Fe21      1.0  0.09641  0.80476  0.41137  1.0000
  S   S46       1.0  0.08641  0.79134  0.37857  1.0000
  S   S47       1.0  0.07203  0.80000  0.44659  1.0000
  C   C119      1.0  0.01835  0.85771  0.44104  1.0000
  Fe  Fe22      1.0  0.17791  0.52934  0.05670  1.0000
  H   H145      1.0  0.01679  0.67561  0.26606  1.0000
  C   C120      1.0  0.02311  0.85061  0.41791  1.0000
  H   H146      1.0  0.03482  0.73523  0.42284  1.0000
  H   H147      1.0  0.04109  0.84758  0.40960  1.0000
  H   H148      1.0  0.18524  0.78298  0.46932  1.0000
  Fe  Fe23      1.0  0.99490  0.52397  0.18036  1.0000
  H   H149      1.0  0.13702  0.52426  0.00199  1.0000
  C   C121      1.0  0.09533  0.50352  0.13402  1.0000
  H   H150      1.0  0.08294  0.60368  0.10251  1.0000
  H   H151      1.0  0.10443  0.90146  0.45518  1.0000
  C   C122      1.0  0.29877  0.52716  0.07604  1.0000
  H   H152      1.0  0.05676  0.67703  0.43402  1.0000
  H   H153      1.0  0.01558  0.54729  0.30105  1.0000
  H   H154      1.0  0.19513  0.52058  0.97509  1.0000
  C   C123      1.0  0.07172  0.71558  0.37919  1.0000
  C   C124      1.0  0.08431  0.72006  0.39748  1.0000
  C   C125      1.0  0.08845  0.74319  0.39792  1.0000
  C   C126      1.0  0.08066  0.76203  0.37957  1.0000
  C   C127      1.0  0.06798  0.75754  0.36134  1.0000
  C   C128      1.0  0.06321  0.73453  0.36136  1.0000
  H   H155      1.0  0.09114  0.70556  0.41127  1.0000
  H   H156      1.0  0.09832  0.74631  0.41196  1.0000
  H   H157      1.0  0.06191  0.77196  0.34703  1.0000
  H   H158      1.0  0.05370  0.73135  0.34702  1.0000
  H   H159      1.0  0.04757  0.50250  0.17794  1.0000
  H   H160      1.0  0.13893  0.60076  0.12183  1.0000
  Fe  Fe24      1.0  0.10500  0.79344  0.46544  1.0000
  S   S48       1.0  0.19544  0.50027  0.03692  1.0000
  C   C129      1.0  0.07457  0.63972  0.46643  1.0000
  S   S49       1.0  0.18479  0.50925  0.09460  1.0000
  C   C130      1.0  0.26530  0.56470  0.01688  1.0000
  C   C131      1.0  0.24959  0.58503  0.00965  1.0000
  C   C132      1.0  0.22546  0.58568  0.01816  1.0000
  C   C133      1.0  0.21690  0.56583  0.03340  1.0000
  C   C134      1.0  0.23258  0.54545  0.04025  1.0000
  C   C135      1.0  0.25666  0.54497  0.03216  1.0000
  C   C136      1.0  0.07989  0.63561  0.42300  1.0000
  H   H161      1.0  0.00132  0.52995  0.27287  1.0000
  H   H162      1.0  0.22628  0.53010  0.05214  1.0000
  H   H163      1.0  0.26852  0.52908  0.03751  1.0000
  C   C137      1.0  0.04712  0.52155  0.14028  1.0000
  H   H164      1.0  0.05803  0.60201  0.45374  1.0000
  C   C138      1.0  0.06055  0.52688  0.11718  1.0000
  C   C139      1.0  0.00932  0.61102  0.28431  1.0000
  H   H165      1.0  0.05241  0.53826  0.10177  1.0000
  C   C140      1.0  0.08454  0.51774  0.11399  1.0000
  C   C141      1.0  0.01896  0.59771  0.26581  1.0000
  C   C142      1.0  0.18025  0.91077  0.46620  1.0000
  H   H166      1.0  0.03729  0.59788  0.25861  1.0000
  H   H167      1.0  0.26394  0.48502  0.10203  1.0000
  N   N7        1.0  0.06238  0.63894  0.44470  1.0000
  S   S50       1.0  0.04143  0.86239  0.45629  1.0000
  H   H168      1.0  0.09474  0.52192  0.09619  1.0000
  C   C143      1.0  0.16552  0.87773  0.44157  1.0000
  C   C144      1.0  0.19222  0.90617  0.44353  1.0000
  C   C145      1.0  0.18492  0.88975  0.43138  1.0000
  H   H169      1.0  0.20725  0.91511  0.43543  1.0000
  H   H170      1.0  0.18663  0.57392  0.99260  1.0000
  H   H171      1.0  0.16131  0.55888  0.09628  1.0000
  C   C146      1.0  0.28151  0.51599  0.09206  1.0000
  H   H172      1.0  0.02354  0.80055  0.41209  1.0000
  C   C147      1.0  0.18108  0.56969  0.97570  1.0000
  H   H173      1.0  0.16379  0.80878  0.46428  1.0000
  H   H174      1.0  0.09266  0.61941  0.42744  1.0000
  H   H175      1.0  0.12120  0.61428  0.09714  1.0000
  H   H176      1.0  0.15066  0.60091  0.08987  1.0000
  H   H177      1.0  0.04725  0.59947  0.13138  1.0000
  H   H178      1.0  0.01416  0.57464  0.32903  1.0000
  C   C148      1.0  0.15342  0.88246  0.46415  1.0000
  C   C149      1.0  0.13452  0.59904  0.10329  1.0000
  H   H179      1.0  0.29730  0.50140  0.00949  1.0000
  Fe  Fe25      1.0  0.14958  0.49709  0.09537  1.0000
  C   C150      1.0  0.01067  0.74706  0.46725  1.0000
  C   C151      1.0  0.08181  0.49793  0.15699  1.0000
  C   C152      1.0  0.22959  0.50501  0.98327  1.0000
  C   C153      1.0  0.00623  0.76753  0.44874  1.0000
  H   H180      1.0  0.11923  0.54361  0.14968  1.0000
  C   C154      1.0  0.99856  0.78920  0.45720  1.0000
  S   S51       1.0  0.10412  0.83118  0.46924  1.0000
  H   H181      1.0  0.00244  0.62879  0.21331  1.0000
  C   C155      1.0  0.25286  0.50824  0.98343  1.0000
  H   H182      1.0  0.03791  0.66200  0.42159  1.0000
  C   C156      1.0  0.04747  0.61963  0.44901  1.0000
  H   H183      1.0  0.07128  0.63420  0.40655  1.0000
  C   C157      1.0  0.25956  0.53068  0.97566  1.0000
  N   N8        1.0  0.09760  0.91456  0.41702  1.0000
  C   C158      1.0  0.09724  0.89608  0.43977  1.0000
  C   C159      1.0  0.12239  0.91916  0.40976  1.0000
  C   C160      1.0  0.08370  0.93670  0.42312  1.0000
  C   C161      1.0  0.08715  0.90675  0.39745  1.0000
  C   C162      1.0  0.06308  0.90324  0.40090  1.0000
  C   C163      1.0  0.10036  0.90185  0.37495  1.0000
  C   C164      1.0  0.05283  0.89564  0.38289  1.0000
  C   C165      1.0  0.08996  0.89397  0.35718  1.0000
  C   C166      1.0  0.06627  0.89086  0.36115  1.0000
  H   H184      1.0  0.10806  0.87938  0.43607  1.0000
  H   H185      1.0  0.27755  0.53338  0.97654  1.0000
  H   H186      1.0  0.07918  0.89186  0.44687  1.0000
  H   H187      1.0  0.13414  0.90290  0.40610  1.0000
  H   H188      1.0  0.02002  0.74326  0.39550  1.0000
  Fe  Fe26      1.0  0.19959  0.47930  0.07493  1.0000
  H   H189      1.0  0.06565  0.93400  0.43196  1.0000
  H   H190      1.0  0.08201  0.95051  0.40606  1.0000
  C   C167      1.0  0.27769  0.49355  0.08982  1.0000
  H   H191      1.0  0.05208  0.90567  0.41791  1.0000
  H   H192      1.0  0.11889  0.90338  0.37082  1.0000
  H   H193      1.0  0.01266  0.57452  0.24185  1.0000
  H   H194      1.0  0.10046  0.88976  0.34044  1.0000
  H   H195      1.0  0.05840  0.88429  0.34758  1.0000
  H   H196      1.0  0.09461  0.75018  0.45615  1.0000
  H   H197      1.0  0.21344  0.60154  0.01289  1.0000
  C   C168      1.0  0.02822  0.78192  0.40971  1.0000
  N   N9        1.0  0.00983  0.76701  0.42175  1.0000
  C   C169      1.0  0.30639  0.96956  0.40113  1.0000
  C   C170      1.0  0.04688  0.66155  0.43830  1.0000
  H   H198      1.0  0.13870  0.87319  0.47252  1.0000
  C   C171      1.0  0.29102  0.48218  0.07149  1.0000
  C   C172      1.0  0.10434  0.55673  0.14502  1.0000
  H   H199      1.0  0.10774  0.59028  0.07177  1.0000
  C   C173      1.0  0.00322  0.56051  0.33400  1.0000
  Fe  Fe27      1.0  0.00069  0.64213  0.38280  1.0000
  H   H200      1.0  0.09004  0.65079  0.41655  1.0000
  C   C174      1.0  0.00505  0.58437  0.25631  1.0000
  H   H201      1.0  0.03876  0.61946  0.43218  1.0000
  H   H202      1.0  0.12983  0.92491  0.42484  1.0000
  H   H203      1.0  0.06869  0.72112  0.45306  1.0000
  H   H204      1.0  0.03145  0.78226  0.38932  1.0000
  H   H205      1.0  0.30125  0.54494  0.07724  1.0000
  H   H206      1.0  0.04728  0.56821  0.16892  1.0000
  C   C175      1.0  0.14728  0.49414  0.98402  1.0000
  H   H207      1.0  0.13597  0.57416  0.06570  1.0000
  H   H208      1.0  0.03312  0.66447  0.45393  1.0000
  H   H209      1.0  0.03448  0.89281  0.38617  1.0000
  N   N10       1.0  0.12600  0.57610  0.10454  1.0000
  C   C176      1.0  0.14582  0.55717  0.11061  1.0000
  C   C177      1.0  0.12004  0.57481  0.07954  1.0000
  H   H210      1.0  0.26560  0.49331  0.98983  1.0000
  C   C178      1.0  0.10486  0.57411  0.12288  1.0000
  C   C179      1.0  0.06335  0.57033  0.15655  1.0000
  C   C180      1.0  0.08383  0.58987  0.11876  1.0000
  H   H211      1.0  0.08366  0.54118  0.17791  1.0000
  C   C181      1.0  0.06335  0.58779  0.13527  1.0000
  H   H212      1.0  0.00827  0.84293  0.38709  1.0000
  H   H213      1.0  0.15220  0.55765  0.12862  1.0000
  H   H214      1.0  0.14060  0.53940  0.11155  1.0000
  H   H215      1.0  0.11167  0.55871  0.08028  1.0000
  C   C182      1.0  0.31220  0.51598  0.05765  1.0000
  C   C183      1.0  0.00455  0.84799  0.40518  1.0000
  C   C184      1.0  0.00491  0.69180  0.25879  1.0000
  H   H216      1.0  0.12396  0.93316  0.39289  1.0000
  C   C185      1.0  0.21296  0.52413  0.97500  1.0000
  C   C186      1.0  0.99332  0.65646  0.23499  1.0000
  H   H217      1.0  0.99743  0.53291  0.09950  1.0000
  H   H218      1.0  0.09004  0.48689  0.17255  1.0000
  N   N11       1.0  0.32229  0.48235  0.03418  1.0000
  H   H219      1.0  0.09201  0.94390  0.43655  1.0000
  H   H220      1.0  0.04522  0.77530  0.41770  1.0000
  H   H221      1.0  0.02488  0.51119  0.28879  1.0000
  H   H222      1.0  0.01161  0.65884  0.23368  1.0000
  H   H223      1.0  0.22434  0.48755  0.98959  1.0000
  H   H224      1.0  0.09394  0.66873  0.44758  1.0000
  S   S52       1.0  0.12589  0.49368  0.13172  1.0000
  H   H225      1.0  0.17240  0.55354  0.98170  1.0000
  H   H226      1.0  0.01081  0.69793  0.23884  1.0000
  H   H227      1.0  0.27076  0.52489  0.10595  1.0000
  S   S53       1.0  0.25704  0.95123  0.46821  1.0000
  C   C187      1.0  0.99507  0.86123  0.45187  1.0000
  C   C188      1.0  0.00639  0.51243  0.28461  1.0000
  H   H228      1.0  0.03293  0.62179  0.46412  1.0000
  C   C189      1.0  0.00390  0.54449  0.31804  1.0000
  H   H229      1.0  0.99497  0.80552  0.44426  1.0000
  H   H230      1.0  0.01676  0.72983  0.46272  1.0000
  C   C190      1.0  0.07247  0.72312  0.47113  1.0000
  H   H231      1.0  0.00634  0.49891  0.27292  1.0000
  H   H232      1.0  0.00428  0.73083  0.42401  1.0000
  H   H233      1.0  0.29923  0.95932  0.41829  1.0000
  C   C191      1.0  0.31664  0.49741  0.01013  1.0000
  C   C192      1.0  0.30872  0.49315  0.05475  1.0000
  H   H234      1.0  0.99706  0.64846  0.43814  1.0000
  C   C193      1.0  0.01752  0.74298  0.41594  1.0000
  H   H235      1.0  0.99138  0.86649  0.46987  1.0000
  H   H236      1.0  0.32350  0.51470  0.00692  1.0000
  C   C194      1.0  0.08706  0.73966  0.47287  1.0000
  C   C195      1.0  0.00246  0.50290  0.59359  1.0000
  C   C196      1.0  0.07033  0.62503  0.49005  1.0000
  C   C197      1.0  0.10115  0.65850  0.48523  1.0000
  S   S54       1.0  0.25442  0.61878  0.90343  1.0000
  C   C198      1.0  0.30046  0.49186  0.89883  1.0000
  S   S55       1.0  0.19369  0.50511  0.82227  1.0000
  H   H237      1.0  0.05725  0.57522  0.73407  1.0000
  Fe  Fe28      1.0  0.15973  0.53075  0.87866  1.0000
  S   S56       1.0  0.16239  0.55212  0.84013  1.0000
  S   S57       1.0  0.14321  0.54717  0.91141  1.0000
  Fe  Fe29      1.0  0.15492  0.51931  0.82786  1.0000
  S   S58       1.0  0.12289  0.52054  0.80665  1.0000
  Fe  Fe30      1.0  0.20042  0.53602  0.83853  1.0000
  S   S59       1.0  0.23300  0.55490  0.83001  1.0000
  S   S60       1.0  0.14980  0.49935  0.86711  1.0000
  S   S61       1.0  0.19781  0.51651  0.87768  1.0000
  H   H238      1.0  0.14744  0.81218  0.53057  1.0000
  H   H239      1.0  0.27297  0.91871  0.60151  1.0000
  Fe  Fe31      1.0  0.02174  0.67423  0.52408  1.0000
  S   S62       1.0  0.02287  0.67625  0.56409  1.0000
  H   H240      1.0  0.01314  0.48872  0.58553  1.0000
  Fe  Fe32      1.0  0.01564  0.63831  0.57235  1.0000
  S   S63       1.0  0.03561  0.60623  0.59479  1.0000
  H   H241      1.0  0.23041  0.52232  0.91278  1.0000
  C   C199      1.0  0.15062  0.50257  0.93886  1.0000
  S   S64       1.0  0.01796  0.63576  0.53201  1.0000
  N   N12       1.0  0.20152  0.56691  0.95671  1.0000
  C   C200      1.0  0.18946  0.80749  0.50386  1.0000
  C   C201      1.0  0.14721  0.80916  0.51133  1.0000
  H   H242      1.0  0.17942  0.57586  0.92659  1.0000
  H   H243      1.0  0.07696  0.61655  0.52862  1.0000
  C   C202      1.0  0.26353  0.95624  0.59633  1.0000
  H   H244      1.0  0.26583  0.62415  0.83102  1.0000
  H   H245      1.0  0.11445  0.52888  0.70192  1.0000
  H   H246      1.0  0.12423  0.56054  0.76224  1.0000
  C   C203      1.0  0.02066  0.58792  0.61933  1.0000
  C   C204      1.0  0.02989  0.56404  0.62581  1.0000
  C   C205      1.0  0.01902  0.54924  0.64603  1.0000
  C   C206      1.0  0.27498  0.93476  0.60765  1.0000
  S   S65       1.0  0.29406  0.62416  0.95592  1.0000
  H   H247      1.0  0.31108  0.93974  0.69195  1.0000
  H   H248      1.0  0.04553  0.55698  0.61517  1.0000
  H   H249      1.0  0.02615  0.53086  0.65066  1.0000
  N   N13       1.0  0.30932  0.95368  0.65289  1.0000
  H   H250      1.0  0.25301  0.95690  0.58127  1.0000
  C   C207      1.0  0.06247  0.70951  0.49268  1.0000
  C   C208      1.0  0.06761  0.71204  0.51600  1.0000
  C   C209      1.0  0.08256  0.72836  0.51771  1.0000
  H   H251      1.0  0.15433  0.78078  0.47619  1.0000
  C   C210      1.0  0.00783  0.74841  0.49253  1.0000
  H   H252      1.0  0.25290  0.52543  0.87438  1.0000
  H   H253      1.0  0.06010  0.70146  0.53268  1.0000
  C   C211      1.0  0.21067  0.59000  0.94958  1.0000
  H   H254      1.0  0.19707  0.60446  0.94214  1.0000
  C   C212      1.0  0.00039  0.76998  0.50014  1.0000
  C   C213      1.0  0.21725  0.49144  0.93376  1.0000
  H   H255      1.0  0.21678  0.59526  0.96571  1.0000
  H   H256      1.0  0.19938  0.50024  0.93597  1.0000
  H   H257      1.0  0.01181  0.73263  0.50630  1.0000
  S   S66       1.0  0.21971  0.97153  0.51106  1.0000
  N   N14       1.0  0.27671  0.50585  0.90052  1.0000
  H   H258      1.0  0.06598  0.53215  0.66562  1.0000
  C   C214      1.0  0.26969  0.51329  0.87498  1.0000
  C   C215      1.0  0.09201  0.74245  0.49615  1.0000
  C   C216      1.0  0.19163  0.82968  0.48818  1.0000
  C   C217      1.0  0.14389  0.52658  0.93924  1.0000
  H   H259      1.0  0.14537  0.48944  0.77138  1.0000
  H   H260      1.0  0.08403  0.51543  0.68849  1.0000
  C   C218      1.0  0.24864  0.59963  0.88439  1.0000
  C   C219      1.0  0.22529  0.59863  0.88064  1.0000
  C   C220      1.0  0.22021  0.58423  0.86487  1.0000
  C   C221      1.0  0.23853  0.57163  0.85167  1.0000
  C   C222      1.0  0.26188  0.57283  0.85526  1.0000
  C   C223      1.0  0.26693  0.58620  0.87206  1.0000
  H   H261      1.0  0.21101  0.60911  0.88990  1.0000
  H   H262      1.0  0.20214  0.58359  0.86218  1.0000
  H   H263      1.0  0.27611  0.56326  0.84505  1.0000
  H   H264      1.0  0.28501  0.58677  0.87477  1.0000
  H   H265      1.0  0.05231  0.52121  0.72240  1.0000
  H   H266      1.0  0.24054  0.84365  0.50673  1.0000
  H   H267      1.0  0.03457  0.53531  0.69786  1.0000
  C   C224      1.0  0.27529  0.63756  0.81776  1.0000
  H   H268      1.0  0.30676  0.48540  0.91752  1.0000
  H   H269      1.0  0.03576  0.54988  0.72294  1.0000
  S   S67       1.0  0.04363  0.68958  0.48970  1.0000
  C   C225      1.0  0.29813  0.97657  0.54446  1.0000
  C   C226      1.0  0.19330  0.56180  0.93427  1.0000
  H   H270      1.0  0.11236  0.67211  0.48361  1.0000
  H   H271      1.0  0.15472  0.49647  0.92134  1.0000
  C   C227      1.0  0.08105  0.62734  0.51056  1.0000
  H   H272      1.0  0.28179  0.94961  0.68308  1.0000
  C   C228      1.0  0.08743  0.50913  0.78427  1.0000
  H   H273      1.0  0.16951  0.77215  0.53906  1.0000
  H   H274      1.0  0.15519  0.76207  0.51742  1.0000
  H   H275      1.0  0.14429  0.82678  0.49915  1.0000
  C   C229      1.0  0.07778  0.49888  0.76745  1.0000
  H   H276      1.0  0.12403  0.97546  0.50687  1.0000
  C   C230      1.0  0.28094  0.97653  0.62211  1.0000
  H   H277      1.0  0.29303  0.53707  0.89927  1.0000
  H   H278      1.0  0.26259  0.53997  0.91025  1.0000
  H   H279      1.0  0.29384  0.59620  0.81167  1.0000
  H   H280      1.0  0.08322  0.58021  0.76357  1.0000
  H   H281      1.0  0.21085  0.85959  0.47721  1.0000
  C   C231      1.0  0.16077  0.89880  0.47633  1.0000
  C   C232      1.0  0.99525  0.49918  0.61900  1.0000
  N   N15       1.0  0.29838  0.63909  0.82597  1.0000
  H   H282      1.0  0.27941  0.66323  0.84938  1.0000
  H   H283      1.0  0.07588  0.51993  0.79590  1.0000
  C   C233      1.0  0.20680  0.79881  0.52065  1.0000
  H   H284      1.0  0.99193  0.59405  0.54752  1.0000
  H   H285      1.0  0.05898  0.50158  0.76654  1.0000
  C   C234      1.0  0.22505  0.81174  0.52151  1.0000
  Fe  Fe33      1.0  0.25873  0.97013  0.50010  1.0000
  H   H286      1.0  0.23811  0.80488  0.53444  1.0000
  C   C235      1.0  0.00031  0.59684  0.63302  1.0000
  C   C236      1.0  0.29324  0.95492  0.63376  1.0000
  C   C237      1.0  0.31015  0.65667  0.80717  1.0000
  C   C238      1.0  0.27896  0.52717  0.91043  1.0000
  H   H287      1.0  0.18663  0.75947  0.51366  1.0000
  H   H288      1.0  0.10393  0.64640  0.52429  1.0000
  C   C239      1.0  0.09630  0.64413  0.50818  1.0000
  Fe  Fe34      1.0  0.00134  0.50285  0.69974  1.0000
  C   C240      1.0  0.31664  0.96663  0.55913  1.0000
  H   H289      1.0  0.26339  0.65461  0.81677  1.0000
  H   H290      1.0  0.00038  0.48227  0.63059  1.0000
  C   C241      1.0  0.20982  0.84252  0.48927  1.0000
  N   N16       1.0  0.06725  0.54917  0.69673  1.0000
  C   C242      1.0  0.05899  0.57264  0.68219  1.0000
  C   C243      1.0  0.07841  0.53377  0.67877  1.0000
  C   C244      1.0  0.04660  0.53850  0.71062  1.0000
  C   C245      1.0  0.08321  0.55201  0.71448  1.0000
  C   C246      1.0  0.10689  0.54079  0.71441  1.0000
  C   C247      1.0  0.07513  0.56642  0.73264  1.0000
  C   C248      1.0  0.12152  0.54425  0.73122  1.0000
  C   C249      1.0  0.08985  0.56954  0.74951  1.0000
  C   C250      1.0  0.11302  0.55855  0.74873  1.0000
  H   H291      1.0  0.07410  0.58167  0.67227  1.0000
  H   H292      1.0  0.04765  0.57123  0.66797  1.0000
  H   H293      1.0  0.04818  0.58455  0.69399  1.0000
  H   H294      1.0  0.09386  0.54095  0.66721  1.0000
  C   C251      1.0  0.09249  0.48535  0.75180  1.0000
  H   H295      1.0  0.13352  0.55295  0.96230  1.0000
  C   C252      1.0  0.29950  0.94073  0.67704  1.0000
  C   C253      1.0  0.28941  0.93399  0.62629  1.0000
  C   C254      1.0  0.11184  0.50571  0.78611  1.0000
  H   H296      1.0  0.28325  0.52242  0.86205  1.0000
  H   H297      1.0  0.27724  0.63310  0.79885  1.0000
  C   C255      1.0  0.12655  0.49190  0.77069  1.0000
  H   H298      1.0  0.22557  0.58948  0.93472  1.0000
  H   H299      1.0  0.08633  0.73045  0.53576  1.0000
  C   C256      1.0  0.17041  0.77114  0.51903  1.0000
  C   C257      1.0  0.25849  0.49268  0.91630  1.0000
  H   H300      1.0  0.28755  0.63374  0.86522  1.0000
  S   S68       1.0  0.18876  0.93097  0.48286  1.0000
  C   C258      1.0  0.99656  0.57647  0.55932  1.0000
  H   H301      1.0  0.28368  0.52225  0.92985  1.0000
  C   C259      1.0  0.13883  0.53437  0.96202  1.0000
  S   S69       1.0  0.28629  0.95834  0.52811  1.0000
  H   H302      1.0  0.15143  0.90203  0.49393  1.0000
  H   H303      1.0  0.13936  0.53516  0.73127  1.0000
  H   H304      1.0  0.13152  0.80025  0.51127  1.0000
  C   C260      1.0  0.23516  0.50394  0.92051  1.0000
  N   N17       1.0  0.16931  0.79493  0.50297  1.0000
  H   H305      1.0  0.20799  0.56033  0.91921  1.0000
  C   C261      1.0  0.31409  0.61629  0.82904  1.0000
  H   H306      1.0  0.99315  0.61526  0.62828  1.0000
  C   C262      1.0  0.15205  0.48635  0.96125  1.0000
  H   H307      1.0  0.31432  0.65067  0.78895  1.0000
  H   H308      1.0  0.18548  0.54508  0.93816  1.0000
  H   H309      1.0  0.26687  0.49792  0.86723  1.0000
  S   S70       1.0  0.29855  0.57307  0.93781  1.0000
  S   S71       1.0  0.10956  0.76393  0.49821  1.0000
  H   H310      1.0  0.00713  0.56523  0.54673  1.0000
  C   C263      1.0  0.29347  0.64780  0.84993  1.0000
  H   H311      1.0  0.99828  0.77091  0.51976  1.0000
  S   S72       1.0  0.01179  0.49265  0.73868  1.0000
  Fe  Fe35      1.0  0.28849  0.61087  0.92168  1.0000
  H   H312      1.0  0.20662  0.78215  0.53336  1.0000
  Fe  Fe36      1.0  0.18858  0.48699  0.86222  1.0000
  C   C264      1.0  0.99904  0.55832  0.66015  1.0000
  C   C265      1.0  0.30923  0.59608  0.82083  1.0000
  H   H313      1.0  0.31380  0.50252  0.88747  1.0000
  H   H314      1.0  0.00191  0.52670  0.55897  1.0000
  H   H315      1.0  0.29757  0.92228  0.67609  1.0000
  S   S73       1.0  0.03398  0.48366  0.68246  1.0000
  H   H316      1.0  0.29891  0.67412  0.80419  1.0000
  C   C266      1.0  0.99598  0.52473  0.57860  1.0000
  Fe  Fe37      1.0  0.21730  0.95591  0.47723  1.0000
  H   H317      1.0  0.05829  0.61209  0.49339  1.0000
  H   H318      1.0  0.31964  0.55918  0.81925  1.0000
  C   C267      1.0  0.22651  0.83357  0.50591  1.0000
  C   C268      1.0  0.31313  0.97723  0.65680  1.0000
  H   H319      1.0  0.29784  0.91688  0.63453  1.0000
  H   H320      1.0  0.30906  0.65358  0.85552  1.0000
  H   H321      1.0  0.16729  0.58415  0.96872  1.0000
  Fe  Fe38      1.0  0.30674  0.58608  0.97065  1.0000
  H   H322      1.0  0.00823  0.57886  0.57287  1.0000
  C   C269      1.0  0.21924  0.54719  0.96652  1.0000
  C   C270      1.0  0.99565  0.79034  0.48251  1.0000
  C   C271      1.0  0.11693  0.48200  0.75354  1.0000
  C   C272      1.0  0.16819  0.79179  0.47712  1.0000
  H   H323      1.0  0.24951  0.56685  0.96194  1.0000
  H   H324      1.0  0.17910  0.83738  0.47503  1.0000
  C   C273      1.0  0.24312  0.54993  0.96727  1.0000
  C   C274      1.0  0.32398  0.57455  0.82505  1.0000
  C   C275      1.0  0.26627  0.97701  0.60377  1.0000
  H   H325      1.0  0.32382  0.94829  0.55962  1.0000
  H   H326      1.0  0.60353  0.23036  0.02606  1.0000
  S   S74       1.0  0.49359  0.21635  0.00027  1.0000
  H   H327      1.0  0.60533  0.10500  0.18704  1.0000
  H   H328      1.0  0.59289  0.25384  0.00205  1.0000
  S   S75       1.0  0.59435  0.05295  0.25941  1.0000
  H   H329      1.0  0.65268  0.00907  0.33417  1.0000
  S   S76       1.0  0.38202  0.02925  0.23054  1.0000
  Fe  Fe39      1.0  0.48245  0.07142  0.12750  1.0000
  S   S77       1.0  0.49327  0.10769  0.12207  1.0000
  S   S78       1.0  0.44465  0.06523  0.13062  1.0000
  Fe  Fe40      1.0  0.53275  0.04719  0.12517  1.0000
  S   S79       1.0  0.54789  0.08106  0.12014  1.0000
  C   C276      1.0  0.44266  0.98696  0.15829  1.0000
  Fe  Fe41      1.0  0.51904  0.08991  0.14940  1.0000
  S   S80       1.0  0.52454  0.10650  0.18114  1.0000
  Fe  Fe42      1.0  0.52109  0.09561  0.09301  1.0000
  S   S81       1.0  0.53468  0.11434  0.05473  1.0000
  S   S82       1.0  0.50606  0.05482  0.15683  1.0000
  S   S83       1.0  0.50797  0.06066  0.09605  1.0000
  C   C277      1.0  0.65038  0.99366  0.43448  1.0000
  H   H330      1.0  0.35257  0.47055  0.05438  1.0000
  H   H331      1.0  0.64279  0.03865  0.43949  1.0000
  H   H332      1.0  0.58222  0.31976  0.99314  1.0000
  C   C278      1.0  0.56636  0.09058  0.23656  1.0000
  C   C279      1.0  0.55112  0.10248  0.21911  1.0000
  C   C280      1.0  0.54354  0.09043  0.20280  1.0000
  C   C281      1.0  0.55081  0.06610  0.20449  1.0000
  C   C282      1.0  0.56562  0.05396  0.22262  1.0000
  H   H333      1.0  0.54555  0.12123  0.21795  1.0000
  H   H334      1.0  0.54518  0.05675  0.19176  1.0000
  C   C283      1.0  0.40058  0.04047  0.20405  1.0000
  C   C284      1.0  0.42523  0.03748  0.20328  1.0000
  C   C285      1.0  0.43914  0.04569  0.18110  1.0000
  C   C286      1.0  0.42840  0.05666  0.15964  1.0000
  C   C287      1.0  0.40383  0.06006  0.16072  1.0000
  C   C288      1.0  0.39003  0.05228  0.18283  1.0000
  H   H335      1.0  0.45806  0.04303  0.18046  1.0000
  H   H336      1.0  0.39540  0.06852  0.14426  1.0000
  H   H337      1.0  0.37106  0.05479  0.18324  1.0000
  H   H338      1.0  0.49681  0.00005  0.13155  1.0000
  H   H339      1.0  0.54290  0.22342  0.99327  1.0000
  S   S84       1.0  0.60238  0.99838  0.31261  1.0000
  H   H340      1.0  0.59000  0.00501  0.20214  1.0000
  H   H341      1.0  0.54523  0.22696  0.05100  1.0000
  H   H342      1.0  0.50467  0.03232  0.30109  1.0000
  C   C289      1.0  0.63446  0.99945  0.18233  1.0000
  C   C290      1.0  0.48247  0.98226  0.33094  1.0000
  C   C291      1.0  0.61832  0.01456  0.14367  1.0000
  C   C292      1.0  0.57371  0.06635  0.23841  1.0000
  H   H343      1.0  0.63969  0.46288  0.04725  1.0000
  S   S85       1.0  0.36450  0.45377  0.97559  1.0000
  C   C293      1.0  0.48278  0.00553  0.31824  1.0000
  C   C294      1.0  0.50558  0.18824  0.01548  1.0000
  C   C295      1.0  0.49591  0.17918  0.03959  1.0000
  C   C296      1.0  0.50461  0.15654  0.05193  1.0000
  C   C297      1.0  0.52297  0.14279  0.04010  1.0000
  C   C298      1.0  0.53273  0.15195  0.01604  1.0000
  C   C299      1.0  0.52422  0.17466  0.00385  1.0000
  H   H344      1.0  0.48152  0.18964  0.04873  1.0000
  H   H345      1.0  0.49703  0.14970  0.07048  1.0000
  H   H346      1.0  0.54704  0.14142  0.00690  1.0000
  H   H347      1.0  0.53197  0.18159  0.98548  1.0000
  C   C300      1.0  0.57861  0.17959  0.03015  1.0000
  S   S86       1.0  0.39164  0.01647  0.30158  1.0000
  C   C301      1.0  0.62200  0.06938  0.19745  1.0000
  N   N18       1.0  0.61482  0.01555  0.17066  1.0000
  H   H348      1.0  0.46908  0.16868  0.98839  1.0000
  C   C302      1.0  0.40999  0.98652  0.19171  1.0000
  C   C303      1.0  0.59252  0.00638  0.18157  1.0000
  C   C304      1.0  0.61333  0.04015  0.17462  1.0000
  C   C305      1.0  0.62458  0.04614  0.19346  1.0000
  C   C306      1.0  0.43388  0.98124  0.18380  1.0000
  C   C307      1.0  0.53232  0.00137  0.19883  1.0000
  H   H349      1.0  0.60262  0.02284  0.13397  1.0000
  C   C308      1.0  0.52553  0.99947  0.31474  1.0000
  H   H350      1.0  0.62994  0.07336  0.21261  1.0000
  C   C309      1.0  0.64491  0.47094  0.02760  1.0000
  C   C310      1.0  0.48186  0.11450  0.02261  1.0000
  H   H351      1.0  0.49723  0.32915  0.01990  1.0000
  C   C311      1.0  0.52919  0.98158  0.08402  1.0000
  S   S87       1.0  0.57602  0.98931  0.26588  1.0000
  H   H352      1.0  0.57710  0.01805  0.17394  1.0000
  H   H353      1.0  0.53394  0.19572  0.08512  1.0000
  C   C312      1.0  0.55349  0.23579  0.99829  1.0000
  C   C313      1.0  0.47192  0.13789  0.01597  1.0000
  H   H354      1.0  0.53559  0.34455  0.00901  1.0000
  C   C314      1.0  0.59886  0.05873  0.16073  1.0000
  H   H355      1.0  0.35858  0.47159  0.02139  1.0000
  N   N19       1.0  0.47158  0.07845  0.23652  1.0000
  C   C315      1.0  0.48380  0.06716  0.21569  1.0000
  C   C316      1.0  0.47952  0.10185  0.23430  1.0000
  C   C317      1.0  0.47920  0.06350  0.25994  1.0000
  C   C318      1.0  0.44585  0.08143  0.23526  1.0000
  C   C319      1.0  0.43602  0.09502  0.21379  1.0000
  C   C320      1.0  0.42999  0.07064  0.25459  1.0000
  C   C321      1.0  0.41193  0.09737  0.21165  1.0000
  C   C322      1.0  0.40589  0.07328  0.25230  1.0000
  C   C323      1.0  0.39690  0.08651  0.23088  1.0000
  H   H356      1.0  0.48109  0.07848  0.19728  1.0000
  H   H357      1.0  0.50313  0.06386  0.21647  1.0000
  H   H358      1.0  0.47749  0.05000  0.21604  1.0000
  H   H359      1.0  0.47698  0.11329  0.21589  1.0000
  H   H360      1.0  0.49870  0.10019  0.23611  1.0000
  H   H361      1.0  0.46984  0.11142  0.24894  1.0000
  H   H362      1.0  0.47481  0.04521  0.26218  1.0000
  H   H363      1.0  0.49860  0.06186  0.26040  1.0000
  H   H364      1.0  0.47088  0.07096  0.27659  1.0000
  H   H365      1.0  0.44700  0.10349  0.19819  1.0000
  H   H366      1.0  0.43572  0.05975  0.27154  1.0000
  H   H367      1.0  0.40496  0.10707  0.19470  1.0000
  H   H368      1.0  0.39415  0.06437  0.26689  1.0000
  H   H369      1.0  0.37835  0.08763  0.22887  1.0000
  H   H370      1.0  0.63187  0.00144  0.43174  1.0000
  H   H371      1.0  0.43355  0.02881  0.21963  1.0000
  H   H372      1.0  0.63481  0.03312  0.20599  1.0000
  C   C324      1.0  0.50432  0.01424  0.31053  1.0000
  H   H373      1.0  0.47524  0.01577  0.15108  1.0000
  C   C325      1.0  0.60802  0.08723  0.18316  1.0000
  H   H374      1.0  0.62127  0.99605  0.14036  1.0000
  N   N20       1.0  0.46774  0.98129  0.14903  1.0000
  H   H375      1.0  0.60819  0.20518  0.99362  1.0000
  Fe  Fe43      1.0  0.60013  0.01361  0.27198  1.0000
  Fe  Fe44      1.0  0.43010  0.00279  0.30223  1.0000
  C   C326      1.0  0.57213  0.16205  0.05011  1.0000
  H   H376      1.0  0.57602  0.24849  0.03171  1.0000
  C   C327      1.0  0.47766  0.00344  0.13767  1.0000
  C   C328      1.0  0.58742  0.23958  0.01751  1.0000
  S   S88       1.0  0.62494  0.34090  0.98270  1.0000
  H   H377      1.0  0.54187  0.24558  0.01160  1.0000
  H   H378      1.0  0.59064  0.17365  0.01528  1.0000
  H   H379      1.0  0.57140  0.03530  0.22392  1.0000
  S   S89       1.0  0.45648  0.02358  0.31096  1.0000
  Fe  Fe45      1.0  0.39708  0.00579  0.26395  1.0000
  C   C329      1.0  0.55614  0.16789  0.06985  1.0000
  H   H380      1.0  0.58471  0.09565  0.15454  1.0000
  C   C330      1.0  0.52644  0.34101  0.99451  1.0000
  H   H381      1.0  0.46108  0.14670  0.02990  1.0000
  C   C331      1.0  0.42617  0.99879  0.14154  1.0000
  C   C332      1.0  0.53641  0.99854  0.09510  1.0000
  C   C333      1.0  0.55318  0.20907  0.05015  1.0000
  C   C334      1.0  0.54847  0.99150  0.11627  1.0000
  H   H382      1.0  0.52721  0.02419  0.22575  1.0000
  C   C335      1.0  0.59646  0.08191  0.16483  1.0000
  H   H383      1.0  0.54213  0.00624  0.30855  1.0000
  H   H384      1.0  0.47882  0.10523  0.04163  1.0000
  H   H385      1.0  0.57261  0.10024  0.24865  1.0000
  H   H386      1.0  0.57877  0.14361  0.04991  1.0000
  C   C336      1.0  0.56915  0.20373  0.02950  1.0000
  H   H387      1.0  0.51964  0.98707  0.06781  1.0000
  S   S90       1.0  0.65284  0.39694  0.98433  1.0000
  H   H388      1.0  0.63361  0.02348  0.13418  1.0000
  H   H389      1.0  0.55753  0.24909  0.98133  1.0000
  H   H390      1.0  0.58854  0.05537  0.14723  1.0000
  H   H391      1.0  0.53282  0.01701  0.08711  1.0000
  C   C337      1.0  0.54671  0.19135  0.06990  1.0000
  S   S91       1.0  0.55604  0.01241  0.13156  1.0000
  H   H392      1.0  0.53637  0.01515  0.18324  1.0000
  N   N21       1.0  0.57525  0.22280  0.00855  1.0000
  H   H393      1.0  0.63604  0.98143  0.17782  1.0000
  C   C338      1.0  0.49625  0.10325  0.00498  1.0000
  S   S92       1.0  0.43580  0.99450  0.26383  1.0000
  H   H394      1.0  0.63152  0.99665  0.20299  1.0000
  H   H395      1.0  0.40367  0.98256  0.21130  1.0000
  C   C339      1.0  0.59089  0.21413  0.98768  1.0000
  H   H396      1.0  0.51845  0.99342  0.26106  1.0000
  C   C340      1.0  0.52695  0.00648  0.22268  1.0000
  H   H397      1.0  0.59201  0.98847  0.17769  1.0000
  C   C341      1.0  0.59186  0.31354  0.97698  1.0000
  C   C342      1.0  0.47676  0.15037  0.99184  1.0000
  H   H398      1.0  0.55055  0.15405  0.08478  1.0000
  H   H399      1.0  0.47632  0.32098  0.98685  1.0000
  S   S93       1.0  0.63321  0.99179  0.25898  1.0000
  H   H400      1.0  0.58249  0.20183  0.97966  1.0000
  C   C343      1.0  0.49168  0.13951  0.97345  1.0000
  S   S94       1.0  0.34309  0.39199  0.98987  1.0000
  H   H401      1.0  0.46908  0.01313  0.12102  1.0000
  H   H402      1.0  0.65157  0.00630  0.17602  1.0000
  H   H403      1.0  0.32802  0.45034  0.01873  1.0000
  H   H404      1.0  0.50417  0.08512  0.01040  1.0000
  C   C344      1.0  0.39424  0.99769  0.17471  1.0000
  C   C345      1.0  0.50488  0.33232  0.00068  1.0000
  C   C346      1.0  0.50090  0.11541  0.98067  1.0000
  H   H405      1.0  0.43168  0.00446  0.12204  1.0000
  H   H406      1.0  0.37588  0.00234  0.18118  1.0000
  H   H407      1.0  0.33231  0.00593  0.33918  1.0000
  C   C347      1.0  0.40233  0.00397  0.14968  1.0000
  C   C348      1.0  0.52173  0.98869  0.24280  1.0000
  H   H408      1.0  0.39016  0.01346  0.13665  1.0000
  H   H409      1.0  0.61102  0.47711  0.98783  1.0000
  C   C349      1.0  0.49313  0.32775  0.98210  1.0000
  H   H410      1.0  0.64230  0.45845  0.01566  1.0000
  C   C350      1.0  0.32523  0.99579  0.35644  1.0000
  H   H411      1.0  0.48284  0.97916  0.18323  1.0000
  Fe  Fe46      1.0  0.38552  0.97877  0.31675  1.0000
  H   H412      1.0  0.56542  0.29228  0.97328  1.0000
  Fe  Fe47      1.0  0.49727  0.27517  0.92031  1.0000
  S   S95       1.0  0.53039  0.26433  0.89644  1.0000
  S   S96       1.0  0.47600  0.31036  0.90626  1.0000
  S   S97       1.0  0.54112  0.21951  0.94070  1.0000
  Fe  Fe48      1.0  0.54795  0.25751  0.93173  1.0000
  S   S98       1.0  0.58463  0.26807  0.93132  1.0000
  Fe  Fe49      1.0  0.52041  0.22746  0.90735  1.0000
  S   S99       1.0  0.52744  0.19931  0.88246  1.0000
  S   S100      1.0  0.48601  0.23889  0.92886  1.0000
  C   C351      1.0  0.63254  0.46224  0.95827  1.0000
  H   H413      1.0  0.45461  0.04202  0.55107  1.0000
  S   S101      1.0  0.36146  0.40853  0.93027  1.0000
  C   C352      1.0  0.46983  0.00545  0.83556  1.0000
  Fe  Fe50      1.0  0.40803  0.99998  0.61871  1.0000
  S   S102      1.0  0.38608  0.03461  0.60730  1.0000
  C   C353      1.0  0.52358  0.15031  0.94177  1.0000
  Fe  Fe51      1.0  0.38381  0.03746  0.64773  1.0000
  S   S103      1.0  0.39112  0.07171  0.65705  1.0000
  Fe  Fe52      1.0  0.35532  0.01394  0.61764  1.0000
  S   S104      1.0  0.40825  0.00414  0.65816  1.0000
  H   H414      1.0  0.38533  0.99896  0.83973  1.0000
  Fe  Fe53      1.0  0.55193  0.03622  0.60585  1.0000
  S   S105      1.0  0.57547  0.01010  0.58580  1.0000
  S   S106      1.0  0.51608  0.05473  0.59762  1.0000
  Fe  Fe54      1.0  0.58544  0.03306  0.64489  1.0000
  S   S107      1.0  0.61260  0.00716  0.62776  1.0000
  S   S108      1.0  0.58705  0.04221  0.68253  1.0000
  Fe  Fe55      1.0  0.60452  0.02981  0.59085  1.0000
  S   S109      1.0  0.62873  0.04478  0.55745  1.0000
  H   H415      1.0  0.43999  0.00311  0.79676  1.0000
  C   C354      1.0  0.34744  0.36169  0.89440  1.0000
  S   S110      1.0  0.58020  0.05745  0.60858  1.0000
  S   S111      1.0  0.55508  0.01415  0.64347  1.0000
  Fe  Fe56      1.0  0.49715  0.08003  0.79217  1.0000
  S   S112      1.0  0.46092  0.09259  0.80850  1.0000
  S   S113      1.0  0.52027  0.04736  0.80747  1.0000
  Fe  Fe57      1.0  0.49482  0.11757  0.74619  1.0000
  S   S114      1.0  0.45843  0.13378  0.75865  1.0000
  S   S115      1.0  0.51336  0.12861  0.70814  1.0000
  Fe  Fe58      1.0  0.47217  0.12894  0.79629  1.0000
  S   S116      1.0  0.46287  0.15788  0.82019  1.0000
  Fe  Fe59      1.0  0.45071  0.09619  0.76964  1.0000
  S   S117      1.0  0.42043  0.07845  0.76255  1.0000
  S   S118      1.0  0.50925  0.11575  0.78240  1.0000
  S   S119      1.0  0.48622  0.08065  0.75480  1.0000
  H   H416      1.0  0.44615  0.28447  0.94554  1.0000
  H   H417      1.0  0.52204  0.31472  0.91457  1.0000
  H   H418      1.0  0.44606  0.05423  0.68741  1.0000
  C   C355      1.0  0.45985  0.05774  0.67170  1.0000
  C   C356      1.0  0.51536  0.03351  0.69551  1.0000
  C   C357      1.0  0.50368  0.02372  0.81409  1.0000
  C   C358      1.0  0.51135  0.00377  0.80326  1.0000
  H   H419      1.0  0.53188  0.15665  0.95578  1.0000
  H   H420      1.0  0.47552  0.00940  0.75444  1.0000
  H   H421      1.0  0.43840  0.29453  0.87420  1.0000
  C   C359      1.0  0.48272  0.02469  0.83003  1.0000
  H   H422      1.0  0.52732  0.00301  0.79079  1.0000
  H   H423      1.0  0.36492  0.02482  0.77583  1.0000
  H   H424      1.0  0.33864  0.34582  0.89542  1.0000
  H   H425      1.0  0.47673  0.04010  0.83845  1.0000
  C   C360      1.0  0.61675  0.01207  0.51166  1.0000
  H   H426      1.0  0.39542  0.04976  0.81543  1.0000
  H   H427      1.0  0.45388  0.00605  0.84824  1.0000
  H   H428      1.0  0.40901  0.01449  0.84315  1.0000
  C   C361      1.0  0.56727  0.06690  0.68917  1.0000
  C   C362      1.0  0.56050  0.06922  0.71400  1.0000
  C   C363      1.0  0.54400  0.08817  0.71985  1.0000
  C   C364      1.0  0.53479  0.10539  0.70085  1.0000
  C   C365      1.0  0.54212  0.10358  0.67598  1.0000
  C   C366      1.0  0.55807  0.08415  0.67014  1.0000
  H   H429      1.0  0.56776  0.05624  0.72877  1.0000
  H   H430      1.0  0.53854  0.08950  0.73911  1.0000
  H   H431      1.0  0.53507  0.11689  0.66120  1.0000
  H   H432      1.0  0.56339  0.08267  0.65092  1.0000
  S   S120      1.0  0.32529  0.02102  0.59277  1.0000
  H   H433      1.0  0.36512  0.37170  0.83257  1.0000
  C   C367      1.0  0.49568  0.03549  0.59770  1.0000
  C   C368      1.0  0.50281  0.01346  0.59073  1.0000
  H   H434      1.0  0.61324  0.99044  0.73995  1.0000
  C   C369      1.0  0.46213  0.00579  0.59696  1.0000
  C   C370      1.0  0.45518  0.02744  0.60480  1.0000
  C   C371      1.0  0.47187  0.04246  0.60470  1.0000
  H   H435      1.0  0.52122  0.00805  0.58528  1.0000
  C   C372      1.0  0.42734  0.01958  0.79503  1.0000
  H   H436      1.0  0.43685  0.03298  0.61030  1.0000
  H   H437      1.0  0.46631  0.05951  0.61004  1.0000
  C   C373      1.0  0.41331  0.07656  0.73274  1.0000
  C   C374      1.0  0.40461  0.05624  0.72956  1.0000
  C   C375      1.0  0.39789  0.05447  0.70649  1.0000
  C   C376      1.0  0.39928  0.07327  0.68641  1.0000
  C   C377      1.0  0.40783  0.09367  0.68955  1.0000
  C   C378      1.0  0.41494  0.09526  0.71256  1.0000
  H   H438      1.0  0.40299  0.04171  0.74488  1.0000
  H   H439      1.0  0.39134  0.03869  0.70431  1.0000
  H   H440      1.0  0.49527  0.18684  0.95698  1.0000
  H   H441      1.0  0.42118  0.11119  0.71482  1.0000
  H   H442      1.0  0.49140  0.98196  0.58404  1.0000
  C   C379      1.0  0.62612  0.31288  0.94677  1.0000
  C   C380      1.0  0.61686  0.29676  0.93593  1.0000
  H   H443      1.0  0.62842  0.44454  0.96546  1.0000
  H   H444      1.0  0.62684  0.29010  0.92017  1.0000
  C   C381      1.0  0.44857  0.31872  0.92266  1.0000
  C   C382      1.0  0.43719  0.34193  0.91672  1.0000
  C   C383      1.0  0.41469  0.34865  0.92850  1.0000
  C   C384      1.0  0.40325  0.33202  0.94589  1.0000
  H   H445      1.0  0.44564  0.35466  0.90273  1.0000
  H   H446      1.0  0.40599  0.36648  0.92377  1.0000
  C   C385      1.0  0.50889  0.18777  0.86582  1.0000
  C   C386      1.0  0.51853  0.16903  0.85335  1.0000
  C   C387      1.0  0.50467  0.15940  0.83970  1.0000
  C   C388      1.0  0.48093  0.16849  0.83820  1.0000
  C   C389      1.0  0.47124  0.18707  0.85087  1.0000
  C   C390      1.0  0.48506  0.19661  0.86466  1.0000
  H   H447      1.0  0.53689  0.16195  0.85420  1.0000
  H   H448      1.0  0.51237  0.14502  0.83024  1.0000
  H   H449      1.0  0.45290  0.19425  0.84987  1.0000
  H   H450      1.0  0.47732  0.21099  0.87409  1.0000
  H   H451      1.0  0.42829  0.02762  0.77498  1.0000
  H   H452      1.0  0.51360  0.37824  0.91581  1.0000
  C   C391      1.0  0.47527  0.08518  0.69076  1.0000
  H   H453      1.0  0.38620  0.39276  0.85473  1.0000
  Fe  Fe60      1.0  0.37576  0.98643  0.66492  1.0000
  H   H454      1.0  0.49113  0.09027  0.69664  1.0000
  H   H455      1.0  0.46237  0.08263  0.70754  1.0000
  H   H456      1.0  0.46751  0.10052  0.67747  1.0000
  H   H457      1.0  0.38764  0.04886  0.78573  1.0000
  N   N22       1.0  0.51552  0.18943  0.75105  1.0000
  C   C392      1.0  0.50892  0.18883  0.72609  1.0000
  C   C393      1.0  0.49407  0.18693  0.76891  1.0000
  C   C394      1.0  0.52281  0.21288  0.75015  1.0000
  C   C395      1.0  0.53474  0.17067  0.75927  1.0000
  C   C396      1.0  0.54669  0.15460  0.74399  1.0000
  C   C397      1.0  0.54212  0.16812  0.78331  1.0000
  C   C398      1.0  0.56420  0.13662  0.75271  1.0000
  C   C399      1.0  0.55971  0.15012  0.79183  1.0000
  C   C400      1.0  0.57063  0.13431  0.77661  1.0000
  H   H458      1.0  0.50276  0.17173  0.72579  1.0000
  H   H459      1.0  0.49422  0.20287  0.72056  1.0000
  H   H460      1.0  0.52389  0.19150  0.71133  1.0000
  H   H461      1.0  0.48895  0.16893  0.77131  1.0000
  H   H462      1.0  0.47870  0.19976  0.76273  1.0000
  H   H463      1.0  0.49641  0.18982  0.78768  1.0000
  H   H464      1.0  0.53932  0.21510  0.73747  1.0000
  H   H465      1.0  0.50902  0.22750  0.74345  1.0000
  H   H466      1.0  0.52611  0.21543  0.76877  1.0000
  H   H467      1.0  0.54258  0.15518  0.72536  1.0000
  H   H468      1.0  0.53410  0.17985  0.79588  1.0000
  H   H469      1.0  0.57253  0.12418  0.74091  1.0000
  H   H470      1.0  0.56466  0.14829  0.81046  1.0000
  H   H471      1.0  0.58401  0.12015  0.78337  1.0000
  H   H472      1.0  0.53187  0.13196  0.94094  1.0000
  C   C401      1.0  0.37491  0.00747  0.77673  1.0000
  H   H473      1.0  0.50374  0.05353  0.64797  1.0000
  H   H474      1.0  0.49148  0.15110  0.91035  1.0000
  C   C402      1.0  0.39940  0.03506  0.53950  1.0000
  H   H475      1.0  0.37557  0.00429  0.57268  1.0000
  H   H476      1.0  0.60592  0.98508  0.54179  1.0000
  H   H477      1.0  0.43407  0.03185  0.80467  1.0000
  C   C403      1.0  0.47755  0.98554  0.82459  1.0000
  H   H478      1.0  0.40207  0.02101  0.49619  1.0000
  H   H479      1.0  0.48928  0.08316  0.64232  1.0000
  C   C404      1.0  0.47743  0.03492  0.72020  1.0000
  C   C405      1.0  0.38823  0.03851  0.80491  1.0000
  Fe  Fe61      1.0  0.58150  0.98973  0.62414  1.0000
  H   H480      1.0  0.59487  0.22888  0.97209  1.0000
  H   H481      1.0  0.41538  0.98654  0.83395  1.0000
  C   C406      1.0  0.48596  0.99877  0.58995  1.0000
  C   C407      1.0  0.58231  0.29786  0.96578  1.0000
  H   H482      1.0  0.33320  0.37700  0.89375  1.0000
  H   H483      1.0  0.40890  0.10833  0.67412  1.0000
  S   S121      1.0  0.51546  0.27042  0.95480  1.0000
  H   H484      1.0  0.36057  0.40219  0.87378  1.0000
  H   H485      1.0  0.54991  0.30812  0.92671  1.0000
  H   H486      1.0  0.51647  0.99042  0.74727  1.0000
  N   N23       1.0  0.36540  0.36488  0.87253  1.0000
  H   H487      1.0  0.43318  0.01235  0.54248  1.0000
  C   C408      1.0  0.48644  0.01586  0.73765  1.0000
  C   C409      1.0  0.56709  0.00723  0.75319  1.0000
  C   C410      1.0  0.38486  0.34504  0.87293  1.0000
  C   C411      1.0  0.40417  0.34607  0.85407  1.0000
  C   C412      1.0  0.38542  0.32440  0.89176  1.0000
  C   C413      1.0  0.42317  0.32798  0.85451  1.0000
  C   C414      1.0  0.40438  0.30630  0.89181  1.0000
  C   C415      1.0  0.42333  0.30819  0.87342  1.0000
  C   C416      1.0  0.38829  0.05815  0.54204  1.0000
  H   H488      1.0  0.49991  0.00289  0.66381  1.0000
  S   S122      1.0  0.35073  0.02010  0.65734  1.0000
  S   S123      1.0  0.44104  0.98745  0.59635  1.0000
  C   C417      1.0  0.57752  0.99259  0.79470  1.0000
  Fe  Fe62      1.0  0.35297  0.37515  0.95598  1.0000
  C   C418      1.0  0.64409  0.99885  0.47751  1.0000
  H   H489      1.0  0.56478  0.35671  0.89956  1.0000
  C   C419      1.0  0.36207  0.02576  0.52852  1.0000
  N   N24       1.0  0.49762  0.15223  0.94782  1.0000
  H   H490      1.0  0.37187  0.32204  0.90722  1.0000
  H   H491      1.0  0.39198  0.09209  0.54996  1.0000
  H   H492      1.0  0.37645  0.98309  0.55299  1.0000
  C   C420      1.0  0.59841  0.02298  0.76604  1.0000
  H   H493      1.0  0.35542  0.36003  0.91206  1.0000
  H   H494      1.0  0.50131  0.35427  0.90860  1.0000
  H   H495      1.0  0.36162  0.04032  0.51204  1.0000
  N   N25       1.0  0.40302  0.01522  0.80520  1.0000
  N   N26       1.0  0.58689  0.00139  0.76870  1.0000
  H   H496      1.0  0.46381  0.04192  0.66273  1.0000
  S   S124      1.0  0.37385  0.33857  0.95878  1.0000
  H   H497      1.0  0.35295  0.01167  0.52448  1.0000
  C   C421      1.0  0.40087  0.07475  0.54761  1.0000
  C   C422      1.0  0.37490  0.38719  0.87217  1.0000
  H   H498      1.0  0.36990  0.03656  0.81331  1.0000
  H   H499      1.0  0.60689  0.02824  0.74674  1.0000
  C   C423      1.0  0.49823  0.98483  0.80828  1.0000
  C   C424      1.0  0.63049  0.01716  0.48887  1.0000
  N   N27       1.0  0.38661  0.01677  0.53426  1.0000
  C   C425      1.0  0.35323  0.36749  0.84995  1.0000
  H   H500      1.0  0.51345  0.07623  0.66048  1.0000
  C   C426      1.0  0.49148  0.04395  0.69821  1.0000
  C   C427      1.0  0.43755  0.30238  0.94079  1.0000
  H   H501      1.0  0.64303  0.31850  0.93931  1.0000
  N   N28       1.0  0.48141  0.06367  0.67958  1.0000
  H   H502      1.0  0.57324  0.01327  0.73323  1.0000
  C   C428      1.0  0.41488  0.30897  0.95216  1.0000
  H   H503      1.0  0.35109  0.03224  0.54457  1.0000
  H   H504      1.0  0.46822  0.14249  0.93396  1.0000
  H   H505      1.0  0.49311  0.32788  0.94365  1.0000
  H   H506      1.0  0.45158  0.07246  0.65802  1.0000
  H   H507      1.0  0.61216  0.02022  0.77901  1.0000
  H   H508      1.0  0.52782  0.04006  0.68028  1.0000
  H   H509      1.0  0.52865  0.16097  0.92322  1.0000
  H   H510      1.0  0.51206  0.10585  0.96767  1.0000
  C   C429      1.0  0.40314  0.00330  0.83161  1.0000
  H   H511      1.0  0.36980  0.06372  0.54035  1.0000
  H   H512      1.0  0.40327  0.98944  0.56160  1.0000
  H   H513      1.0  0.45950  0.04284  0.72431  1.0000
  H   H514      1.0  0.54223  0.00642  0.70989  1.0000
  C   C430      1.0  0.48671  0.99146  0.66205  1.0000
  C   C431      1.0  0.57106  0.00773  0.81243  1.0000
  C   C432      1.0  0.59491  0.28915  0.94528  1.0000
  H   H515      1.0  0.33818  0.38206  0.84937  1.0000
  C   C433      1.0  0.61377  0.32126  0.96753  1.0000
  H   H516      1.0  0.52544  0.36550  0.88880  1.0000
  H   H517      1.0  0.43435  0.08175  0.55536  1.0000
  C   C434      1.0  0.42367  0.02977  0.54304  1.0000
  C   C435      1.0  0.50962  0.00533  0.73379  1.0000
  C   C436      1.0  0.48835  0.17777  0.94405  1.0000
  C   C437      1.0  0.52406  0.01428  0.71284  1.0000
  H   H518      1.0  0.60702  0.02632  0.52036  1.0000
  H   H519      1.0  0.35789  0.46465  0.92318  1.0000
  H   H520      1.0  0.43809  0.32942  0.84038  1.0000
  H   H521      1.0  0.40481  0.29110  0.90682  1.0000
  C   C438      1.0  0.42472  0.06899  0.55069  1.0000
  C   C439      1.0  0.43611  0.04660  0.54826  1.0000
  H   H522      1.0  0.49350  0.18692  0.92479  1.0000
  H   H523      1.0  0.47032  0.99637  0.67400  1.0000
  C   C440      1.0  0.64721  0.46688  0.93607  1.0000
  H   H524      1.0  0.46877  0.18075  0.94670  1.0000
  H   H525      1.0  0.40489  0.36108  0.83905  1.0000
  H   H526      1.0  0.57148  0.34154  0.92965  1.0000
  H   H527      1.0  0.55449  0.01190  0.84893  1.0000
  C   C441      1.0  0.56019  0.99969  0.83618  1.0000
  H   H528      1.0  0.34616  0.35093  0.84938  1.0000
  N   N29       1.0  0.53485  0.34447  0.92385  1.0000
  C   C442      1.0  0.53874  0.32178  0.91474  1.0000
  C   C443      1.0  0.51810  0.36137  0.90865  1.0000
  C   C444      1.0  0.55775  0.35398  0.91958  1.0000
  C   C445      1.0  0.52486  0.34058  0.95030  1.0000
  H   H529      1.0  0.65420  0.99792  0.57332  1.0000
  C   C446      1.0  0.50290  0.33181  0.95731  1.0000
  Fe  Fe63      1.0  0.34872  0.42574  0.96344  1.0000
  C   C447      1.0  0.49771  0.06934  0.65669  1.0000
  H   H530      1.0  0.55779  0.99166  0.75444  1.0000
  H   H531      1.0  0.55381  0.02155  0.75929  1.0000
  H   H532      1.0  0.54757  0.32347  0.89537  1.0000
  H   H533      1.0  0.38564  0.38529  0.88792  1.0000
  H   H534      1.0  0.57302  0.02624  0.80803  1.0000
  C   C448      1.0  0.38549  0.99752  0.55628  1.0000
  H   H535      1.0  0.58551  0.03862  0.76937  1.0000
  C   C449      1.0  0.39913  0.00677  0.51261  1.0000
  Fe  Fe64      1.0  0.50737  0.23299  0.96141  1.0000
  H   H536      1.0  0.55607  0.37138  0.92550  1.0000
  C   C450      1.0  0.48769  0.14167  0.92987  1.0000
  C   C451      1.0  0.39462  0.99997  0.79065  1.0000
  C   C452      1.0  0.65380  0.02847  0.54406  1.0000
  H   H537      1.0  0.49507  0.12284  0.93027  1.0000
  H   H538      1.0  0.48315  0.99628  0.64228  1.0000
  H   H539      1.0  0.55312  0.35186  0.96634  1.0000
  C   C453      1.0  0.60455  0.98327  0.75862  1.0000
  H   H540      1.0  0.38904  0.99422  0.50705  1.0000
  H   H541      1.0  0.41656  0.99662  0.51658  1.0000
  H   H542      1.0  0.40614  0.29602  0.96564  1.0000
  S   S125      1.0  0.37778  0.97903  0.62625  1.0000
  H   H543      1.0  0.35279  0.99871  0.75228  1.0000
  H   H544      1.0  0.63047  0.03563  0.48090  1.0000
  C   C454      1.0  0.32558  0.98005  0.57355  1.0000
  C   C455      1.0  0.36765  0.99261  0.76306  1.0000
  C   C456      1.0  0.61615  0.98881  0.52383  1.0000
  Fe  Fe65      1.0  0.65686  0.36147  0.97215  1.0000
  C   C457      1.0  0.53636  0.34518  0.96972  1.0000
  H   H545      1.0  0.56919  0.74285  0.03911  1.0000
  H   H546      1.0  0.50472  0.76736  0.12791  1.0000
  H   H547      1.0  0.50572  0.71589  0.07397  1.0000
  C   C458      1.0  0.40760  0.67868  0.97634  1.0000
  H   H548      1.0  0.57140  0.70517  0.06739  1.0000
  H   H549      1.0  0.57717  0.66828  0.01118  1.0000
  Fe  Fe66      1.0  0.46602  0.75629  0.01315  1.0000
  S   S126      1.0  0.45747  0.77645  0.04585  1.0000
  H   H550      1.0  0.40330  0.92589  0.31019  1.0000
  H   H551      1.0  0.47694  0.91572  0.03010  1.0000
  S   S127      1.0  0.47317  0.71667  0.01842  1.0000
  H   H552      1.0  0.54797  0.73616  0.02201  1.0000
  H   H553      1.0  0.47461  0.89291  0.05717  1.0000
  H   H554      1.0  0.41113  0.70733  0.06679  1.0000
  H   H555      1.0  0.39973  0.64874  0.00457  1.0000
  H   H556      1.0  0.50399  0.74413  0.05302  1.0000
  H   H557      1.0  0.33299  0.75566  0.98613  1.0000
  C   C459      1.0  0.37340  0.90352  0.27281  1.0000
  C   C460      1.0  0.47891  0.84485  0.01301  1.0000
  Fe  Fe67      1.0  0.42590  0.95900  0.28197  1.0000
  S   S128      1.0  0.44729  0.92487  0.27479  1.0000
  C   C461      1.0  0.48686  0.90434  0.04503  1.0000
  S   S129      1.0  0.38731  0.96927  0.27883  1.0000
  Fe  Fe68      1.0  0.60896  0.96591  0.25584  1.0000
  S   S130      1.0  0.42387  0.96620  0.32052  1.0000
  S   S131      1.0  0.61215  0.95080  0.22024  1.0000
  H   H558      1.0  0.36782  0.86504  0.33103  1.0000
  C   C462      1.0  0.57511  0.66870  0.99190  1.0000
  S   S132      1.0  0.61889  0.52549  0.98003  1.0000
  H   H559      1.0  0.37590  0.87802  0.35516  1.0000
  H   H560      1.0  0.46159  0.94975  0.13761  1.0000
  H   H561      1.0  0.35392  0.49827  0.03331  1.0000
  S   S133      1.0  0.61254  0.94669  0.29493  1.0000
  Fe  Fe69      1.0  0.48060  0.88773  0.15298  1.0000
  S   S134      1.0  0.50411  0.85419  0.16589  1.0000
  S   S135      1.0  0.44429  0.90096  0.16871  1.0000
  Fe  Fe70      1.0  0.51762  0.90615  0.11339  1.0000
  S   S136      1.0  0.54450  0.87481  0.12343  1.0000
  S   S137      1.0  0.52262  0.93657  0.08220  1.0000
  Fe  Fe71      1.0  0.51438  0.85378  0.12481  1.0000
  S   S138      1.0  0.52219  0.82382  0.10217  1.0000
  Fe  Fe72      1.0  0.53179  0.87843  0.16322  1.0000
  S   S139      1.0  0.55199  0.87633  0.19675  1.0000
  S   S140      1.0  0.48844  0.88547  0.11260  1.0000
  S   S141      1.0  0.50736  0.91156  0.15256  1.0000
  H   H562      1.0  0.64638  0.52009  0.02839  1.0000
  C   C463      1.0  0.53382  0.95760  0.09429  1.0000
  C   C464      1.0  0.40360  0.72309  0.05490  1.0000
  H   H563      1.0  0.51494  0.71765  0.04168  1.0000
  H   H564      1.0  0.54516  0.69404  0.08347  1.0000
  C   C465      1.0  0.48710  0.84753  0.98784  1.0000
  C   C466      1.0  0.54627  0.95053  0.11516  1.0000
  H   H565      1.0  0.39817  0.86347  0.33588  1.0000
  H   H566      1.0  0.54182  0.76181  0.03625  1.0000
  C   C467      1.0  0.38082  0.74450  0.97622  1.0000
  H   H567      1.0  0.55020  0.93198  0.12293  1.0000
  S   S142      1.0  0.53650  0.70108  0.99915  1.0000
  H   H568      1.0  0.40402  0.87979  0.22448  1.0000
  C   C468      1.0  0.59312  0.93170  0.21455  1.0000
  C   C469      1.0  0.58564  0.91351  0.23318  1.0000
  C   C470      1.0  0.57296  0.89686  0.22742  1.0000
  C   C471      1.0  0.56695  0.89854  0.20317  1.0000
  C   C472      1.0  0.57386  0.91713  0.18469  1.0000
  C   C473      1.0  0.58724  0.93333  0.19026  1.0000
  H   H569      1.0  0.59042  0.91170  0.25182  1.0000
  H   H570      1.0  0.56792  0.88241  0.24180  1.0000
  H   H571      1.0  0.56968  0.91845  0.16589  1.0000
  H   H572      1.0  0.59333  0.94694  0.17553  1.0000
  H   H573      1.0  0.49148  0.91603  0.05687  1.0000
  H   H574      1.0  0.34744  0.71168  0.02121  1.0000
  H   H575      1.0  0.54323  0.77424  0.13735  1.0000
  C   C474      1.0  0.52136  0.96519  0.23956  1.0000
  C   C475      1.0  0.52066  0.76040  0.11755  1.0000
  C   C476      1.0  0.53083  0.62996  0.98459  1.0000
  H   H576      1.0  0.35961  0.93094  0.31062  1.0000
  H   H577      1.0  0.50791  0.86368  0.06765  1.0000
  C   C477      1.0  0.50367  0.96763  0.33560  1.0000
  H   H578      1.0  0.46591  0.97560  0.33743  1.0000
  C   C478      1.0  0.44629  0.91867  0.24517  1.0000
  C   C479      1.0  0.42865  0.93036  0.23042  1.0000
  C   C480      1.0  0.42790  0.92470  0.20698  1.0000
  C   C481      1.0  0.44519  0.90789  0.19801  1.0000
  C   C482      1.0  0.46305  0.89651  0.21263  1.0000
  C   C483      1.0  0.46330  0.90153  0.23638  1.0000
  H   H579      1.0  0.41525  0.94328  0.23733  1.0000
  H   H580      1.0  0.41398  0.93340  0.19574  1.0000
  H   H581      1.0  0.47638  0.88340  0.20587  1.0000
  H   H582      1.0  0.47674  0.89211  0.24789  1.0000
  H   H583      1.0  0.50172  0.74718  0.09447  1.0000
  C   C484      1.0  0.47532  0.79149  0.05981  1.0000
  C   C485      1.0  0.46553  0.80160  0.08066  1.0000
  C   C486      1.0  0.47928  0.81268  0.09302  1.0000
  C   C487      1.0  0.50320  0.81342  0.08498  1.0000
  C   C488      1.0  0.51283  0.80389  0.06372  1.0000
  C   C489      1.0  0.49890  0.79338  0.05097  1.0000
  H   H584      1.0  0.44725  0.80051  0.08758  1.0000
  H   H585      1.0  0.47158  0.81978  0.10941  1.0000
  H   H586      1.0  0.53128  0.80440  0.05724  1.0000
  H   H587      1.0  0.50638  0.78661  0.03438  1.0000
  C   C490      1.0  0.34790  0.48067  0.03596  1.0000
  C   C491      1.0  0.62433  0.88594  0.32904  1.0000
  H   H588      1.0  0.47619  0.95129  0.17784  1.0000
  H   H589      1.0  0.60583  0.64311  0.98670  1.0000
  H   H590      1.0  0.57976  0.75973  0.11309  1.0000
  C   C492      1.0  0.41401  0.87301  0.26167  1.0000
  H   H591      1.0  0.57812  0.73896  0.07915  1.0000
  H   H592      1.0  0.34694  0.71592  0.98805  1.0000
  H   H593      1.0  0.51639  0.92036  0.00621  1.0000
  C   C493      1.0  0.56292  0.75632  0.10903  1.0000
  C   C494      1.0  0.46972  0.96621  0.12994  1.0000
  H   H594      1.0  0.63225  0.48714  0.02262  1.0000
  N   N30       1.0  0.50814  0.89045  0.03438  1.0000
  H   H595      1.0  0.49511  0.97021  0.28447  1.0000
  C   C495      1.0  0.48586  0.85870  0.02799  1.0000
  N   N31       1.0  0.36604  0.73994  0.00033  1.0000
  C   C496      1.0  0.55388  0.96746  0.12592  1.0000
  C   C497      1.0  0.35794  0.71650  0.00296  1.0000
  H   H596      1.0  0.52084  0.89082  0.98300  1.0000
  C   C498      1.0  0.37998  0.74145  0.02048  1.0000
  C   C499      1.0  0.38588  0.76355  0.02300  1.0000
  C   C500      1.0  0.38952  0.72116  0.03689  1.0000
  H   H597      1.0  0.44504  0.97276  0.19808  1.0000
  C   C501      1.0  0.35938  0.91284  0.32191  1.0000
  H   H598      1.0  0.38057  0.77960  0.01034  1.0000
  H   H599      1.0  0.50338  0.94961  0.34534  1.0000
  H   H600      1.0  0.48179  0.83661  0.97634  1.0000
  H   H601      1.0  0.47699  0.66343  0.98373  1.0000
  H   H602      1.0  0.37292  0.70234  0.00118  1.0000
  H   H603      1.0  0.36687  0.50116  0.98092  1.0000
  Fe  Fe73      1.0  0.58119  0.97190  0.30525  1.0000
  C   C502      1.0  0.65436  0.89931  0.28495  1.0000
  H   H604      1.0  0.35535  0.91542  0.34160  1.0000
  H   H605      1.0  0.34443  0.90502  0.31757  1.0000
  H   H606      1.0  0.43020  0.86190  0.25699  1.0000
  H   H607      1.0  0.38706  0.70346  0.03570  1.0000
  H   H608      1.0  0.56366  0.96190  0.14193  1.0000
  C   C503      1.0  0.61977  0.88121  0.30649  1.0000
  C   C504      1.0  0.38781  0.89308  0.29216  1.0000
  N   N32       1.0  0.51556  0.94671  0.26121  1.0000
  C   C505      1.0  0.53494  0.94157  0.27727  1.0000
  C   C506      1.0  0.49349  0.95503  0.27584  1.0000
  C   C507      1.0  0.51207  0.92428  0.25422  1.0000
  Fe  Fe74      1.0  0.50225  0.72251  0.98741  1.0000
  H   H609      1.0  0.52683  0.88511  0.06692  1.0000
  C   C508      1.0  0.52451  0.90736  0.02140  1.0000
  H   H610      1.0  0.52901  0.94288  0.21091  1.0000
  H   H611      1.0  0.47922  0.85568  0.04749  1.0000
  Fe  Fe75      1.0  0.44997  0.71749  0.98842  1.0000
  H   H612      1.0  0.53792  0.95761  0.28369  1.0000
  H   H613      1.0  0.53117  0.92824  0.29430  1.0000
  H   H614      1.0  0.55181  0.93499  0.26715  1.0000
  H   H615      1.0  0.33616  0.94320  0.39536  1.0000
  H   H616      1.0  0.48798  0.94109  0.29160  1.0000
  C   C509      1.0  0.40868  0.74508  0.05711  1.0000
  H   H617      1.0  0.52860  0.91533  0.24559  1.0000
  H   H618      1.0  0.50597  0.91135  0.27068  1.0000
  H   H619      1.0  0.49845  0.92745  0.24106  1.0000
  C   C510      1.0  0.52002  0.87485  0.05503  1.0000
  H   H620      1.0  0.53807  0.97438  0.17660  1.0000
  Fe  Fe76      1.0  0.63395  0.97464  0.29943  1.0000
  H   H621      1.0  0.40469  0.78222  0.04240  1.0000
  H   H622      1.0  0.39669  0.91487  0.34264  1.0000
  N   N33       1.0  0.53909  0.72907  0.06191  1.0000
  C   C511      1.0  0.55245  0.70498  0.06604  1.0000
  C   C512      1.0  0.51485  0.72666  0.05761  1.0000
  C   C513      1.0  0.54999  0.74306  0.03892  1.0000
  C   C514      1.0  0.53985  0.74061  0.08333  1.0000
  C   C515      1.0  0.56175  0.74455  0.08959  1.0000
  C   C516      1.0  0.51925  0.74877  0.09807  1.0000
  H   H623      1.0  0.41836  0.89842  0.32398  1.0000
  C   C517      1.0  0.55628  0.68351  0.98092  1.0000
  C   C518      1.0  0.38099  0.87504  0.33571  1.0000
  C   C519      1.0  0.50119  0.87591  0.01809  1.0000
  H   H624      1.0  0.54132  0.89802  0.01369  1.0000
  S   S143      1.0  0.62806  0.58565  0.99047  1.0000
  C   C520      1.0  0.54240  0.76434  0.12288  1.0000
  H   H625      1.0  0.34889  0.77618  0.99408  1.0000
  H   H626      1.0  0.52934  0.91789  0.03434  1.0000
  C   C521      1.0  0.48255  0.96839  0.16877  1.0000
  C   C522      1.0  0.39986  0.76527  0.04119  1.0000
  C   C523      1.0  0.37915  0.89850  0.24879  1.0000
  H   H627      1.0  0.56281  0.58844  0.99528  1.0000
  H   H628      1.0  0.50118  0.96400  0.16105  1.0000
  C   C524      1.0  0.50217  0.86421  0.97749  1.0000
  C   C525      1.0  0.40849  0.87796  0.28571  1.0000
  H   H629      1.0  0.48842  0.96086  0.12311  1.0000
  S   S144      1.0  0.43972  0.75667  0.98625  1.0000
  C   C526      1.0  0.63447  0.88776  0.28469  1.0000
  N   N34       1.0  0.38221  0.89767  0.31791  1.0000
  C   C527      1.0  0.39930  0.88316  0.24329  1.0000
  H   H630      1.0  0.47882  0.96038  0.26393  1.0000
  H   H631      1.0  0.54636  0.62867  0.99392  1.0000
  C   C528      1.0  0.40093  0.90958  0.32404  1.0000
  C   C529      1.0  0.52773  0.96040  0.21507  1.0000
  H   H632      1.0  0.32426  0.48876  0.99407  1.0000
  C   C530      1.0  0.52520  0.97614  0.32724  1.0000
  H   H633      1.0  0.39754  0.73210  0.97645  1.0000
  S   S145      1.0  0.55156  0.95702  0.33095  1.0000
  H   H634      1.0  0.51351  0.65756  0.00413  1.0000
  H   H635      1.0  0.42090  0.87031  0.29905  1.0000
  H   H636      1.0  0.53510  0.86271  0.04799  1.0000
  C   C531      1.0  0.59136  0.65442  0.97809  1.0000
  S   S146      1.0  0.42613  0.68809  0.99494  1.0000
  H   H637      1.0  0.55176  0.69568  0.05037  1.0000
  H   H638      1.0  0.57759  0.61011  0.97301  1.0000
  H   H639      1.0  0.46721  0.83178  0.02100  1.0000
  H   H640      1.0  0.42006  0.74649  0.07070  1.0000
  S   S147      1.0  0.49602  0.76227  0.98344  1.0000
  C   C532      1.0  0.51201  0.64680  0.99064  1.0000
  H   H641      1.0  0.32465  0.52583  0.04498  1.0000
  H   H642      1.0  0.61256  0.88137  0.34577  1.0000
  C   C533      1.0  0.34468  0.75780  0.99979  1.0000
  C   C534      1.0  0.56884  0.59404  0.97525  1.0000
  H   H643      1.0  0.33426  0.75631  0.01841  1.0000
  H   H644      1.0  0.37060  0.63670  0.98186  1.0000
  C   C535      1.0  0.50916  0.87828  0.99226  1.0000
  C   C536      1.0  0.39606  0.65877  0.98646  1.0000
  C   C537      1.0  0.49149  0.65028  0.97902  1.0000
  S   S148      1.0  0.36259  0.96064  0.34954  1.0000
  H   H645      1.0  0.60446  0.87282  0.30584  1.0000
  H   H646      1.0  0.62955  0.88397  0.26785  1.0000
  H   H647      1.0  0.35778  0.91591  0.27561  1.0000
  C   C538      1.0  0.32731  0.96046  0.38807  1.0000
  C   C539      1.0  0.37943  0.65191  0.97364  1.0000
  H   H648      1.0  0.64687  0.90143  0.34734  1.0000
  C   C540      1.0  0.33682  0.97349  0.36569  1.0000
  H   H649      1.0  0.36818  0.90691  0.23417  1.0000
  C   C541      1.0  0.64370  0.89711  0.32994  1.0000
  H   H650      1.0  0.65018  0.94161  0.25405  1.0000
  H   H651      1.0  0.53189  0.56916  0.98080  1.0000
  H   H652      1.0  0.65085  0.97418  0.43945  1.0000
  H   H653      1.0  0.46101  0.97532  0.11322  1.0000
  H   H654      1.0  0.64586  0.90851  0.23506  1.0000
  H   H655      1.0  0.65058  0.54462  0.05816  1.0000
  C   C542      1.0  0.53306  0.97836  0.19510  1.0000
  C   C543      1.0  0.52949  0.61590  0.96665  1.0000
  C   C544      1.0  0.62842  0.50354  0.96199  1.0000
  H   H656      1.0  0.52557  0.76587  0.86120  1.0000
  C   C545      1.0  0.35661  0.50251  0.91266  1.0000
  N   N35       1.0  0.54911  0.59804  0.95956  1.0000
  S   S149      1.0  0.45899  0.78732  0.92320  1.0000
  H   H657      1.0  0.52706  0.79408  0.82258  1.0000
  Fe  Fe77      1.0  0.47904  0.93394  0.80954  1.0000
  S   S150      1.0  0.51643  0.91920  0.81486  1.0000
  H   H658      1.0  0.51179  0.83550  0.76707  1.0000
  Fe  Fe78      1.0  0.47621  0.90437  0.77138  1.0000
  S   S151      1.0  0.51379  0.88728  0.77326  1.0000
  S   S152      1.0  0.45388  0.89164  0.74763  1.0000
  Fe  Fe79      1.0  0.50523  0.88410  0.81479  1.0000
  S   S153      1.0  0.52049  0.85162  0.84090  1.0000
  Fe  Fe80      1.0  0.52141  0.92382  0.77324  1.0000
  S   S154      1.0  0.55169  0.94302  0.75407  1.0000
  S   S155      1.0  0.46706  0.89856  0.81288  1.0000
  S   S156      1.0  0.48455  0.94120  0.76785  1.0000
  H   H659      1.0  0.64711  0.52591  0.93250  1.0000
  H   H660      1.0  0.33959  0.97205  0.58486  1.0000
  S   S157      1.0  0.60884  0.63715  0.93522  1.0000
  H   H661      1.0  0.45895  0.80609  0.78405  1.0000
  C   C546      1.0  0.37384  0.66504  0.95052  1.0000
  H   H662      1.0  0.36514  0.59050  0.85441  1.0000
  C   C547      1.0  0.55606  0.92576  0.71023  1.0000
  H   H663      1.0  0.59653  0.96809  0.75555  1.0000
  H   H664      1.0  0.57649  0.97506  0.71805  1.0000
  H   H665      1.0  0.45615  0.83833  0.80766  1.0000
  C   C548      1.0  0.47770  0.80826  0.77789  1.0000
  C   C549      1.0  0.56062  0.94325  0.72234  1.0000
  H   H666      1.0  0.54612  0.97059  0.86107  1.0000
  H   H667      1.0  0.52391  0.80626  0.78037  1.0000
  C   C550      1.0  0.50940  0.77314  0.85296  1.0000
  H   H668      1.0  0.54560  0.60691  0.92009  1.0000
  H   H669      1.0  0.35448  0.50287  0.89342  1.0000
  C   C551      1.0  0.39313  0.93947  0.70998  1.0000
  C   C552      1.0  0.39242  0.91530  0.71829  1.0000
  C   C553      1.0  0.41117  0.90104  0.72976  1.0000
  C   C554      1.0  0.43049  0.91088  0.73399  1.0000
  C   C555      1.0  0.43115  0.93522  0.72618  1.0000
  C   C556      1.0  0.41261  0.94948  0.71381  1.0000
  H   H670      1.0  0.41058  0.88227  0.73563  1.0000
  H   H671      1.0  0.44615  0.94293  0.72910  1.0000
  C   C557      1.0  0.35704  0.52366  0.92086  1.0000
  C   C558      1.0  0.56125  0.96123  0.82604  1.0000
  C   C559      1.0  0.46742  0.79333  0.83313  1.0000
  S   S158      1.0  0.57823  0.95121  0.63821  1.0000
  C   C560      1.0  0.62268  0.48068  0.97088  1.0000
  C   C561      1.0  0.57017  0.66987  0.94209  1.0000
  S   S159      1.0  0.36851  0.95663  0.69656  1.0000
  C   C562      1.0  0.57237  0.96179  0.70887  1.0000
  H   H672      1.0  0.56827  0.67044  0.92273  1.0000
  Fe  Fe81      1.0  0.47046  0.76037  0.95662  1.0000
  C   C563      1.0  0.47654  0.80671  0.90265  1.0000
  C   C564      1.0  0.46538  0.82538  0.88614  1.0000
  C   C565      1.0  0.47862  0.83999  0.86791  1.0000
  C   C566      1.0  0.50321  0.83565  0.86559  1.0000
  C   C567      1.0  0.51440  0.81736  0.88252  1.0000
  C   C568      1.0  0.50113  0.80306  0.90117  1.0000
  H   H673      1.0  0.44637  0.82837  0.88727  1.0000
  H   H674      1.0  0.46973  0.85430  0.85544  1.0000
  H   H675      1.0  0.53341  0.81394  0.88090  1.0000
  H   H676      1.0  0.50991  0.78868  0.91372  1.0000
  H   H677      1.0  0.45067  0.80094  0.82649  1.0000
  Fe  Fe82      1.0  0.63554  0.60824  0.95316  1.0000
  H   H678      1.0  0.52432  0.94172  0.65552  1.0000
  H   H679      1.0  0.48760  0.75522  0.88332  1.0000
  H   H680      1.0  0.48247  0.84716  0.81445  1.0000
  H   H681      1.0  0.51061  0.96289  0.63171  1.0000
  H   H682      1.0  0.45049  0.77306  0.86597  1.0000
  H   H683      1.0  0.52144  0.83031  0.79725  1.0000
  S   S160      1.0  0.47961  0.72100  0.95765  1.0000
  H   H684      1.0  0.57456  0.59396  0.92771  1.0000
  S   S161      1.0  0.32475  0.61613  0.90327  1.0000
  H   H685      1.0  0.55528  0.56080  0.95798  1.0000
  Fe  Fe83      1.0  0.33510  0.57880  0.92186  1.0000
  H   H686      1.0  0.33985  0.94911  0.62658  1.0000
  C   C569      1.0  0.48888  0.80002  0.81992  1.0000
  H   H687      1.0  0.52778  0.57530  0.94831  1.0000
  H   H688      1.0  0.47457  0.85356  0.78327  1.0000
  S   S162      1.0  0.35269  0.55076  0.90040  1.0000
  H   H689      1.0  0.48716  0.79079  0.77470  1.0000
  H   H690      1.0  0.50846  0.86621  0.95784  1.0000
  H   H691      1.0  0.36116  0.53931  0.95192  1.0000
  H   H692      1.0  0.57523  0.95670  0.78968  1.0000
  C   C570      1.0  0.33526  0.61390  0.84025  1.0000
  H   H693      1.0  0.37739  0.90748  0.71564  1.0000
  C   C571      1.0  0.47482  0.83998  0.80060  1.0000
  S   S163      1.0  0.64608  0.57777  0.93281  1.0000
  H   H694      1.0  0.56404  0.62387  0.93080  1.0000
  C   C572      1.0  0.51254  0.82243  0.78478  1.0000
  H   H695      1.0  0.38150  0.69510  0.92240  1.0000
  H   H696      1.0  0.51261  0.94459  0.70028  1.0000
  S   S164      1.0  0.46070  0.96212  0.83026  1.0000
  H   H697      1.0  0.42192  0.97005  0.79954  1.0000
  C   C573      1.0  0.57839  0.96371  0.68324  1.0000
  H   H698      1.0  0.32573  0.97575  0.67082  1.0000
  H   H699      1.0  0.51719  0.97433  0.69428  1.0000
  S   S165      1.0  0.35170  0.65838  0.93418  1.0000
  C   C574      1.0  0.38556  0.68482  0.94029  1.0000
  C   C575      1.0  0.51597  0.96032  0.65083  1.0000
  C   C576      1.0  0.48803  0.76706  0.86544  1.0000
  H   H700      1.0  0.37177  0.74224  0.96044  1.0000
  C   C577      1.0  0.65175  0.49002  0.92637  1.0000
  C   C578      1.0  0.46709  0.77719  0.85560  1.0000
  H   H701      1.0  0.41119  0.70672  0.94470  1.0000
  H   H702      1.0  0.41317  0.96821  0.70776  1.0000
  C   C579      1.0  0.55372  0.68393  0.95600  1.0000
  C   C580      1.0  0.50995  0.78949  0.83062  1.0000
  C   C581      1.0  0.47792  0.95018  0.66896  1.0000
  C   C582      1.0  0.45721  0.95801  0.65682  1.0000
  C   C583      1.0  0.48183  0.92580  0.67969  1.0000
  C   C584      1.0  0.44091  0.94272  0.65661  1.0000
  C   C585      1.0  0.46531  0.91070  0.67961  1.0000
  C   C586      1.0  0.44480  0.91919  0.66826  1.0000
  H   H703      1.0  0.55677  0.94338  0.83105  1.0000
  C   C587      1.0  0.36045  0.52310  0.94558  1.0000
  H   H704      1.0  0.54742  0.91111  0.72065  1.0000
  C   C588      1.0  0.57208  0.96909  0.80225  1.0000
  C   C589      1.0  0.40245  0.69148  0.95293  1.0000
  H   H705      1.0  0.52989  0.97173  0.64996  1.0000
  C   C590      1.0  0.58903  0.65510  0.95307  1.0000
  H   H706      1.0  0.47786  0.82062  0.75963  1.0000
  N   N36       1.0  0.48870  0.81731  0.79623  1.0000
  C   C591      1.0  0.55866  0.60594  0.93341  1.0000
  H   H707      1.0  0.49770  0.91805  0.68813  1.0000
  H   H708      1.0  0.42513  0.94924  0.64740  1.0000
  H   H709      1.0  0.46825  0.89240  0.68883  1.0000
  H   H710      1.0  0.43183  0.90755  0.66862  1.0000
  H   H711      1.0  0.50421  0.96972  0.79947  1.0000
  C   C592      1.0  0.64283  0.50824  0.93962  1.0000
  C   C593      1.0  0.54057  0.57490  0.96174  1.0000
  C   C594      1.0  0.57320  0.94681  0.67085  1.0000
  H   H712      1.0  0.34058  0.62860  0.84634  1.0000
  C   C595      1.0  0.35867  0.48092  0.92943  1.0000
  H   H713      1.0  0.62837  0.95235  0.52259  1.0000
  H   H714      1.0  0.55882  0.91413  0.67497  1.0000
  H   H715      1.0  0.53924  0.69525  0.94741  1.0000
  C   C596      1.0  0.56256  0.92745  0.68446  1.0000
  H   H716      1.0  0.34582  0.94136  0.65856  1.0000
  C   C597      1.0  0.36231  0.48041  0.95411  1.0000
  H   H717      1.0  0.45332  0.97585  0.64706  1.0000
  H   H718      1.0  0.50641  0.61082  0.94044  1.0000
  C   C598      1.0  0.50846  0.62023  0.95484  1.0000
  H   H719      1.0  0.65206  0.96044  0.48248  1.0000
  Fe  Fe84      1.0  0.33190  0.62605  0.93902  1.0000
  H   H720      1.0  0.40846  0.94456  0.77580  1.0000
  H   H721      1.0  0.33224  0.92204  0.64558  1.0000
  N   N37       1.0  0.49565  0.96596  0.66899  1.0000
  H   H722      1.0  0.32704  0.65964  0.81286  1.0000
  H   H723      1.0  0.37375  0.95849  0.75244  1.0000
  C   C599      1.0  0.34971  0.59226  0.84460  1.0000
  C   C600      1.0  0.50379  0.96262  0.69403  1.0000
  H   H724      1.0  0.35496  0.55571  0.84133  1.0000
  H   H725      1.0  0.48884  0.96625  0.70829  1.0000
  C   C601      1.0  0.34397  0.57258  0.83724  1.0000
  C   C602      1.0  0.62889  0.97044  0.51301  1.0000
  C   C603      1.0  0.39902  0.96212  0.77621  1.0000
  C   C604      1.0  0.64253  0.97530  0.49011  1.0000
  C   C605      1.0  0.37954  0.96994  0.76298  1.0000
  S   S166      1.0  0.34484  0.58855  0.95621  1.0000
  C   C606      1.0  0.55526  0.97651  0.84296  1.0000
  C   C607      1.0  0.33274  0.94098  0.64556  1.0000
  C   C608      1.0  0.48973  0.63706  0.96111  1.0000
  H   H726      1.0  0.58297  0.58001  0.96997  1.0000
  H   H727      1.0  0.47377  0.64007  0.95195  1.0000
  C   C609      1.0  0.36367  0.50147  0.96200  1.0000
  Fe  Fe85      1.0  0.64074  0.55538  0.97063  1.0000
  C   C610      1.0  0.40656  0.97688  0.78978  1.0000
  H   H728      1.0  0.61847  0.97634  0.77130  1.0000
  H   H729      1.0  0.58715  0.97835  0.67306  1.0000
  H   H730      1.0  0.38590  0.76263  0.97199  1.0000
  H   H731      1.0  0.74263  0.40401  0.98892  1.0000
  S   S167      1.0  0.74835  0.98005  0.44404  1.0000
  Fe  Fe86      1.0  0.76582  0.04328  0.44039  1.0000
  S   S168      1.0  0.77589  0.08050  0.43654  1.0000
  Fe  Fe87      1.0  0.73761  0.01317  0.41674  1.0000
  S   S169      1.0  0.70891  0.01822  0.39014  1.0000
  S   S170      1.0  0.72806  0.03602  0.44625  1.0000
  S   S171      1.0  0.77447  0.02336  0.40852  1.0000
  C   C611      1.0  0.96202  0.34400  0.26133  1.0000
  Fe  Fe88      1.0  0.68995  0.38718  0.99493  1.0000
  C   C612      1.0  0.89973  0.35086  0.42010  1.0000
  S   S172      1.0  0.70399  0.39508  0.02870  1.0000
  H   H732      1.0  0.84948  0.40391  0.00435  1.0000
  H   H733      1.0  0.93261  0.43165  0.31195  1.0000
  S   S173      1.0  0.80024  0.43701  0.02459  1.0000
  Fe  Fe89      1.0  0.96890  0.31518  0.40662  1.0000
  H   H734      1.0  0.98588  0.16375  0.33807  1.0000
  S   S174      1.0  0.95080  0.29453  0.44064  1.0000
  Fe  Fe90      1.0  0.97319  0.35700  0.36363  1.0000
  H   H735      1.0  0.91223  0.28274  0.34924  1.0000
  S   S175      1.0  0.95169  0.39023  0.34489  1.0000
  C   C613      1.0  0.91611  0.36589  0.42054  1.0000
  C   C614      1.0  0.96545  0.14187  0.45474  1.0000
  N   N38       1.0  0.75792  0.33492  0.01883  1.0000
  S   S176      1.0  0.96019  0.32187  0.36733  1.0000
  S   S177      1.0  0.97858  0.35145  0.40413  1.0000
  C   C615      1.0  0.92635  0.28136  0.43758  1.0000
  C   C616      1.0  0.89897  0.27152  0.41270  1.0000
  C   C617      1.0  0.91751  0.28383  0.41464  1.0000
  H   H736      1.0  0.89243  0.27292  0.39494  1.0000
  H   H737      1.0  0.92510  0.29491  0.39841  1.0000
  H   H738      1.0  0.70045  0.46697  0.06174  1.0000
  C   C618      1.0  0.79923  0.11577  0.44422  1.0000
  C   C619      1.0  0.91487  0.07794  0.44763  1.0000
  C   C620      1.0  0.66034  0.02906  0.44393  1.0000
  H   H739      1.0  0.69581  0.99615  0.43968  1.0000
  H   H740      1.0  0.74489  0.33837  0.98332  1.0000
  H   H741      1.0  0.68229  0.44241  0.01312  1.0000
  H   H742      1.0  0.88150  0.32246  0.44080  1.0000
  H   H743      1.0  0.87741  0.41275  0.00654  1.0000
  C   C621      1.0  0.72996  0.40859  0.02641  1.0000
  C   C622      1.0  0.73479  0.41744  0.04685  1.0000
  C   C623      1.0  0.75559  0.42753  0.04605  1.0000
  C   C624      1.0  0.77225  0.42794  0.02514  1.0000
  C   C625      1.0  0.76733  0.41932  0.00464  1.0000
  C   C626      1.0  0.74608  0.41027  0.00501  1.0000
  H   H744      1.0  0.72253  0.41624  0.06354  1.0000
  H   H745      1.0  0.75927  0.43388  0.06209  1.0000
  C   C627      1.0  0.76922  0.34909  0.03219  1.0000
  H   H746      1.0  0.96437  0.36114  0.47053  1.0000
  H   H747      1.0  0.79264  0.12559  0.42716  1.0000
  H   H748      1.0  0.93960  0.37649  0.44105  1.0000
  H   H749      1.0  0.70398  0.45547  0.02370  1.0000
  H   H750      1.0  0.98096  0.25136  0.37652  1.0000
  C   C628      1.0  0.96517  0.40937  0.31979  1.0000
  C   C629      1.0  0.95133  0.42849  0.30643  1.0000
  C   C630      1.0  0.96155  0.44343  0.28579  1.0000
  S   S178      1.0  0.87410  0.16998  0.44754  1.0000
  N   N39       1.0  0.95597  0.35034  0.28638  1.0000
  N   N40       1.0  0.96876  0.22295  0.40411  1.0000
  C   C631      1.0  0.79096  0.35727  0.02191  1.0000
  H   H751      1.0  0.85148  0.09595  0.42703  1.0000
  H   H752      1.0  0.89557  0.12146  0.44991  1.0000
  H   H753      1.0  0.66928  0.02980  0.36166  1.0000
  H   H754      1.0  0.89231  0.03687  0.47081  1.0000
  H   H755      1.0  0.80059  0.38636  0.06648  1.0000
  H   H756      1.0  0.91019  0.45464  0.13225  1.0000
  C   C632      1.0  0.90034  0.47047  0.13773  1.0000
  C   C633      1.0  0.86458  0.02910  0.45333  1.0000
  H   H757      1.0  0.96399  0.26060  0.40337  1.0000
  C   C634      1.0  0.70826  0.97959  0.36694  1.0000
  H   H758      1.0  0.92090  0.37835  0.40384  1.0000
  H   H759      1.0  0.86550  0.11725  0.45164  1.0000
  C   C635      1.0  0.94333  0.33206  0.30321  1.0000
  H   H760      1.0  0.72995  0.08803  0.46813  1.0000
  H   H761      1.0  0.93786  0.38074  0.30104  1.0000
  H   H762      1.0  0.73910  0.36457  0.99658  1.0000
  H   H763      1.0  0.99001  0.20272  0.43239  1.0000
  H   H764      1.0  0.79026  0.31766  0.00207  1.0000
  C   C636      1.0  0.92149  0.34785  0.46402  1.0000
  C   C637      1.0  0.94677  0.21808  0.42020  1.0000
  C   C638      1.0  0.88936  0.25678  0.43368  1.0000
  H   H765      1.0  0.97410  0.35608  0.31557  1.0000
  H   H766      1.0  0.82794  0.06871  0.41753  1.0000
  H   H767      1.0  0.95133  0.27249  0.32652  1.0000
  H   H768      1.0  0.66118  0.99733  0.41612  1.0000
  C   C639      1.0  0.92075  0.29631  0.33639  1.0000
  S   S179      1.0  0.93977  0.14380  0.44043  1.0000
  H   H769      1.0  0.93109  0.22163  0.40968  1.0000
  H   H770      1.0  0.92176  0.06000  0.45706  1.0000
  Fe  Fe91      1.0  0.74064  0.00351  0.47275  1.0000
  Fe  Fe92      1.0  0.78437  0.99174  0.43800  1.0000
  H   H771      1.0  0.95074  0.45800  0.27551  1.0000
  C   C640      1.0  0.84237  0.06192  0.42883  1.0000
  H   H772      1.0  0.83541  0.02596  0.43424  1.0000
  H   H773      1.0  0.72756  0.31666  0.02177  1.0000
  H   H774      1.0  0.88561  0.11297  0.42425  1.0000
  C   C641      1.0  0.69778  0.00208  0.37082  1.0000
  H   H775      1.0  0.69070  0.99816  0.47205  1.0000
  S   S180      1.0  0.80074  0.46409  0.08865  1.0000
  H   H776      1.0  0.76585  0.30171  0.00583  1.0000
  C   C642      1.0  0.90999  0.31966  0.33300  1.0000
  C   C643      1.0  0.79403  0.09259  0.45319  1.0000
  C   C644      1.0  0.79217  0.37563  0.05726  1.0000
  H   H777      1.0  0.81841  0.37697  0.02587  1.0000
  Fe  Fe93      1.0  0.87380  0.20497  0.45877  1.0000
  H   H778      1.0  0.97478  0.32763  0.26151  1.0000
  H   H779      1.0  0.79929  0.35390  0.00399  1.0000
  C   C645      1.0  0.81266  0.12656  0.45721  1.0000
  C   C646      1.0  0.89756  0.25525  0.45668  1.0000
  C   C647      1.0  0.94217  0.37429  0.28311  1.0000
  H   H780      1.0  0.92549  0.37462  0.27501  1.0000
  C   C648      1.0  0.96566  0.24775  0.39058  1.0000
  Fe  Fe94      1.0  0.80748  0.46298  0.04767  1.0000
  C   C649      1.0  0.95374  0.30808  0.30715  1.0000
  C   C650      1.0  0.67758  0.01242  0.35893  1.0000
  H   H781      1.0  0.81620  0.14451  0.45017  1.0000
  H   H782      1.0  0.94267  0.22931  0.43473  1.0000
  C   C651      1.0  0.75934  0.35504  0.05553  1.0000
  H   H783      1.0  0.91730  0.07820  0.42722  1.0000
  C   C652      1.0  0.92103  0.33738  0.31675  1.0000
  C   C653      1.0  0.77082  0.36800  0.06783  1.0000
  H   H784      1.0  0.67227  0.03198  0.42629  1.0000
  H   H785      1.0  0.94811  0.19918  0.42960  1.0000
  H   H786      1.0  0.94956  0.25209  0.38076  1.0000
  C   C654      1.0  0.90454  0.33299  0.46294  1.0000
  N   N41       1.0  0.88980  0.08498  0.45622  1.0000
  H   H787      1.0  0.97095  0.30274  0.29811  1.0000
  Fe  Fe95      1.0  0.90904  0.16092  0.46260  1.0000
  H   H788      1.0  0.73851  0.31598  0.05080  1.0000
  C   C655      1.0  0.87862  0.04444  0.45894  1.0000
  C   C656      1.0  0.89385  0.33454  0.44130  1.0000
  C   C657      1.0  0.98761  0.22066  0.42061  1.0000
  H   H789      1.0  0.77782  0.47690  0.99232  1.0000
  C   C658      1.0  0.91606  0.26741  0.45864  1.0000
  C   C659      1.0  0.85973  0.41914  0.00006  1.0000
  C   C660      1.0  0.75233  0.34895  0.99433  1.0000
  C   C661      1.0  0.80218  0.37035  0.03432  1.0000
  C   C662      1.0  0.77424  0.31341  0.01472  1.0000
  H   H790      1.0  0.72213  0.34264  0.03509  1.0000
  H   H791      1.0  0.76796  0.35548  0.98262  1.0000
  C   C663      1.0  0.97387  0.20661  0.38613  1.0000
  C   C664      1.0  0.87486  0.06913  0.44969  1.0000
  C   C665      1.0  0.66809  0.00068  0.34325  1.0000
  S   S181      1.0  0.86691  0.46348  0.10942  1.0000
  H   H792      1.0  0.92643  0.09023  0.45136  1.0000
  C   C666      1.0  0.94262  0.29055  0.32351  1.0000
  S   S182      1.0  0.77755  0.01228  0.46918  1.0000
  H   H793      1.0  0.85016  0.43200  0.01157  1.0000
  C   C667      1.0  0.96215  0.19190  0.35147  1.0000
  H   H794      1.0  0.97039  0.35809  0.24790  1.0000
  H   H795      1.0  0.94960  0.19260  0.33834  1.0000
  H   H796      1.0  0.78016  0.41929  0.98846  1.0000
  H   H797      1.0  0.76275  0.37279  0.08534  1.0000
  H   H798      1.0  0.86756  0.01034  0.46076  1.0000
  C   C668      1.0  0.92682  0.36457  0.44216  1.0000
  H   H799      1.0  0.99020  0.33491  0.29811  1.0000
  C   C669      1.0  0.73562  0.32721  0.03234  1.0000
  H   H800      1.0  0.74250  0.35039  0.06446  1.0000
  H   H801      1.0  0.91188  0.35512  0.31545  1.0000
  C   C670      1.0  0.85618  0.07746  0.43445  1.0000
  C   C671      1.0  0.88373  0.11019  0.44492  1.0000
  H   H802      1.0  0.94171  0.21937  0.36821  1.0000
  S   S183      1.0  0.69245  0.35056  0.98673  1.0000
  H   H803      1.0  0.95221  0.38770  0.27057  1.0000
  S   S184      1.0  0.86848  0.23885  0.43092  1.0000
  H   H804      1.0  0.77999  0.30299  0.03262  1.0000
  C   C672      1.0  0.84647  0.03784  0.43833  1.0000
  H   H805      1.0  0.94600  0.34125  0.25370  1.0000
  N   N42       1.0  0.65929  0.00352  0.45367  1.0000
  H   H806      1.0  0.89181  0.35165  0.40319  1.0000
  C   C673      1.0  0.68373  0.99209  0.45696  1.0000
  H   H807      1.0  0.89310  0.32412  0.34333  1.0000
  C   C674      1.0  0.95784  0.20721  0.36859  1.0000
  C   C675      1.0  0.98248  0.17557  0.35136  1.0000
  H   H808      1.0  0.98348  0.23366  0.43337  1.0000
  H   H809      1.0  0.68149  0.44191  0.04561  1.0000
  C   C676      1.0  0.68506  0.45302  0.02695  1.0000
  H   H810      1.0  0.82877  0.45244  0.97619  1.0000
  C   C677      1.0  0.97802  0.35179  0.29658  1.0000
  N   N43       1.0  0.66961  0.47598  0.02423  1.0000
  Fe  Fe96      1.0  0.83654  0.47659  0.08518  1.0000
  C   C678      1.0  0.98724  0.14210  0.44027  1.0000
  H   H811      1.0  0.98787  0.36579  0.28493  1.0000
  C   C679      1.0  0.88299  0.46026  0.98470  1.0000
  H   H812      1.0  0.67307  0.47792  0.98448  1.0000
  C   C680      1.0  0.98571  0.43929  0.27842  1.0000
  H   H813      1.0  0.92686  0.47524  0.15992  1.0000
  H   H814      1.0  0.66724  0.03750  0.45738  1.0000
  S   S185      1.0  0.91019  0.19662  0.47043  1.0000
  S   S186      1.0  0.84450  0.47160  0.04521  1.0000
  H   H815      1.0  0.87953  0.45392  0.00442  1.0000
  H   H816      1.0  0.98816  0.14351  0.42033  1.0000
  C   C681      1.0  0.98931  0.40543  0.31248  1.0000
  N   N44       1.0  0.86153  0.42961  0.97312  1.0000
  H   H817      1.0  0.92837  0.36573  0.73205  1.0000
  H   H818      1.0  0.90453  0.33259  0.51309  1.0000
  C   C682      1.0  0.73357  0.41400  0.86398  1.0000
  S   S187      1.0  0.67222  0.37490  0.93304  1.0000
  H   H819      1.0  0.83711  0.44470  0.94595  1.0000
  Fe  Fe97      1.0  0.70724  0.36712  0.94856  1.0000
  S   S188      1.0  0.74202  0.35099  0.93158  1.0000
  H   H820      1.0  0.82601  0.42355  0.97108  1.0000
  H   H821      1.0  0.76708  0.45818  0.96220  1.0000
  C   C683      1.0  0.96704  0.20517  0.49348  1.0000
  Fe  Fe98      1.0  0.82731  0.44229  0.89176  1.0000
  S   S189      1.0  0.81258  0.44762  0.85517  1.0000
  S   S190      1.0  0.82971  0.40746  0.91832  1.0000
  C   C684      1.0  0.75076  0.46875  0.95736  1.0000
  H   H822      1.0  0.93627  0.30688  0.49340  1.0000
  H   H823      1.0  0.71090  0.38579  0.87293  1.0000
  Fe  Fe99      1.0  0.84249  0.46879  0.83990  1.0000
  S   S191      1.0  0.85916  0.46037  0.87561  1.0000
  H   H824      1.0  0.73374  0.11192  0.51360  1.0000
  C   C685      1.0  0.89257  0.46486  0.79460  1.0000
  Fe  Fe100     1.0  0.85921  0.15770  0.48694  1.0000
  S   S192      1.0  0.92744  0.29464  0.55192  1.0000
  S   S193      1.0  0.70609  0.40282  0.95760  1.0000
  S   S194      1.0  0.96453  0.33968  0.56878  1.0000
  H   H825      1.0  0.94803  0.39233  0.64160  1.0000
  H   H826      1.0  0.95690  0.24513  0.51348  1.0000
  S   S195      1.0  0.83586  0.12791  0.49808  1.0000
  Fe  Fe101     1.0  0.89263  0.18413  0.50823  1.0000
  H   H827      1.0  0.71856  0.44513  0.82484  1.0000
  S   S196      1.0  0.90915  0.19210  0.54048  1.0000
  N   N45       1.0  0.93329  0.34507  0.48686  1.0000
  C   C686      1.0  0.71281  0.07262  0.53036  1.0000
  H   H828      1.0  0.94551  0.38504  0.75507  1.0000
  C   C687      1.0  0.97397  0.24207  0.50191  1.0000
  S   S197      1.0  0.85561  0.19411  0.49732  1.0000
  S   S198      1.0  0.89478  0.14688  0.50143  1.0000
  C   C688      1.0  0.92318  0.26599  0.54842  1.0000
  C   C689      1.0  0.93399  0.24553  0.56269  1.0000
  C   C690      1.0  0.92916  0.22314  0.56037  1.0000
  C   C691      1.0  0.91422  0.22080  0.54314  1.0000
  C   C692      1.0  0.90369  0.24125  0.52862  1.0000
  C   C693      1.0  0.90792  0.26371  0.53147  1.0000
  H   H829      1.0  0.94555  0.24696  0.57604  1.0000
  H   H830      1.0  0.93694  0.20753  0.57214  1.0000
  H   H831      1.0  0.89171  0.23977  0.51577  1.0000
  H   H832      1.0  0.89921  0.27938  0.52054  1.0000
  H   H833      1.0  0.92381  0.34651  0.52584  1.0000
  H   H834      1.0  0.78403  0.36050  0.86470  1.0000
  H   H835      1.0  0.97310  0.42306  0.73277  1.0000
  C   C694      1.0  0.88086  0.46002  0.94123  1.0000
  H   H836      1.0  0.90345  0.36422  0.50526  1.0000
  S   S199      1.0  0.86183  0.47241  0.80093  1.0000
  C   C695      1.0  0.67765  0.08667  0.55642  1.0000
  C   C696      1.0  0.66292  0.00599  0.55582  1.0000
  H   H837      1.0  0.73412  0.45010  0.88684  1.0000
  H   H838      1.0  0.90007  0.31939  0.47857  1.0000
  H   H839      1.0  0.70386  0.46789  0.84151  1.0000
  H   H840      1.0  0.76289  0.43478  0.85718  1.0000
  Fe  Fe102     1.0  0.66975  0.40945  0.94597  1.0000
  C   C697      1.0  0.91545  0.34730  0.50857  1.0000
  H   H841      1.0  0.68616  0.41623  0.88414  1.0000
  H   H842      1.0  0.66333  0.10041  0.55987  1.0000
  S   S200      1.0  0.98010  0.47293  0.70365  1.0000
  H   H843      1.0  0.97408  0.18650  0.49234  1.0000
  H   H844      1.0  0.73469  0.46054  0.84052  1.0000
  H   H845      1.0  0.93781  0.41475  0.75937  1.0000
  H   H846      1.0  0.95560  0.31833  0.50887  1.0000
  C   C698      1.0  0.69683  0.04689  0.56775  1.0000
  C   C699      1.0  0.94168  0.45389  0.78331  1.0000
  C   C700      1.0  0.93040  0.44425  0.80643  1.0000
  C   C701      1.0  0.90596  0.44980  0.81214  1.0000
  N   N46       1.0  0.98294  0.21643  0.50516  1.0000
  H   H847      1.0  0.70056  0.46038  0.93646  1.0000
  H   H848      1.0  0.94061  0.43232  0.81994  1.0000
  H   H849      1.0  0.89744  0.44221  0.82997  1.0000
  C   C702      1.0  0.69074  0.42832  0.86637  1.0000
  N   N47       1.0  0.72998  0.07707  0.50802  1.0000
  C   C703      1.0  0.66527  0.03878  0.52133  1.0000
  H   H850      1.0  0.86848  0.08722  0.49092  1.0000
  H   H851      1.0  0.97096  0.24990  0.48228  1.0000
  H   H852      1.0  0.93875  0.44359  0.69465  1.0000
  C   C704      1.0  0.76575  0.36752  0.92835  1.0000
  C   C705      1.0  0.76261  0.39229  0.92268  1.0000
  C   C706      1.0  0.78214  0.40482  0.91924  1.0000
  C   C707      1.0  0.80477  0.39258  0.92213  1.0000
  C   C708      1.0  0.80773  0.36791  0.92839  1.0000
  C   C709      1.0  0.78841  0.35544  0.93102  1.0000
  H   H853      1.0  0.74534  0.40171  0.91981  1.0000
  H   H854      1.0  0.77969  0.42388  0.91424  1.0000
  H   H855      1.0  0.82516  0.35835  0.93053  1.0000
  H   H856      1.0  0.79104  0.33634  0.93516  1.0000
  C   C710      1.0  0.75768  0.41736  0.85974  1.0000
  C   C711      1.0  0.69456  0.09070  0.53594  1.0000
  H   H857      1.0  0.93269  0.44638  0.72628  1.0000
  H   H858      1.0  0.72675  0.03567  0.54457  1.0000
  C   C712      1.0  0.96950  0.41216  0.71962  1.0000
  S   S201      1.0  0.97221  0.44554  0.77653  1.0000
  C   C713      1.0  0.71370  0.05062  0.54720  1.0000
  H   H859      1.0  0.82169  0.08164  0.50602  1.0000
  H   H860      1.0  0.86251  0.39478  0.96474  1.0000
  C   C714      1.0  0.68584  0.02681  0.51051  1.0000
  C   C715      1.0  0.69538  0.00465  0.52262  1.0000
  H   H861      1.0  0.67722  0.44420  0.86630  1.0000
  Fe  Fe103     1.0  0.96070  0.30257  0.56481  1.0000
  H   H862      1.0  0.94028  0.38104  0.48259  1.0000
  H   H863      1.0  0.74250  0.35336  0.87286  1.0000
  N   N48       1.0  0.94404  0.41059  0.72084  1.0000
  H   H864      1.0  0.92479  0.34069  0.70290  1.0000
  C   C716      1.0  0.93140  0.43461  0.71313  1.0000
  C   C717      1.0  0.93547  0.40223  0.74730  1.0000
  C   C718      1.0  0.94052  0.39498  0.70389  1.0000
  C   C719      1.0  0.94592  0.40171  0.67778  1.0000
  C   C720      1.0  0.93258  0.37258  0.71256  1.0000
  C   C721      1.0  0.94319  0.38713  0.66141  1.0000
  C   C722      1.0  0.93032  0.35796  0.69598  1.0000
  C   C723      1.0  0.93567  0.36519  0.67049  1.0000
  H   H865      1.0  0.75775  0.04876  0.51844  1.0000
  H   H866      1.0  0.73878  0.43850  0.94870  1.0000
  H   H867      1.0  0.68850  0.42000  0.85052  1.0000
  C   C724      1.0  0.71315  0.46940  0.94250  1.0000
  C   C725      1.0  0.94722  0.32136  0.49140  1.0000
  H   H868      1.0  0.95813  0.36011  0.50311  1.0000
  H   H869      1.0  0.73616  0.04126  0.50146  1.0000
  C   C726      1.0  0.90384  0.47439  0.77144  1.0000
  H   H870      1.0  0.69454  0.03490  0.49310  1.0000
  H   H871      1.0  0.95314  0.41792  0.66980  1.0000
  H   H872      1.0  0.98420  0.13557  0.51194  1.0000
  H   H873      1.0  0.75798  0.05920  0.48586  1.0000
  S   S202      1.0  0.97998  0.28580  0.59815  1.0000
  H   H874      1.0  0.89695  0.09625  0.48917  1.0000
  C   C727      1.0  0.77560  0.39827  0.85961  1.0000
  H   H875      1.0  0.96453  0.21432  0.47417  1.0000
  C   C728      1.0  0.74611  0.05558  0.50337  1.0000
  C   C729      1.0  0.72857  0.39029  0.86858  1.0000
  C   C730      1.0  0.92834  0.46917  0.76592  1.0000
  H   H876      1.0  0.79390  0.40122  0.85686  1.0000
  H   H877      1.0  0.93468  0.35351  0.65773  1.0000
  H   H878      1.0  0.69722  0.02970  0.57977  1.0000
  C   C731      1.0  0.71818  0.45268  0.84190  1.0000
  H   H879      1.0  0.87501  0.45352  0.92642  1.0000
  C   C732      1.0  0.81559  0.09121  0.48864  1.0000
  H   H880      1.0  0.75461  0.08857  0.52751  1.0000
  H   H881      1.0  0.87154  0.41575  0.93893  1.0000
  H   H882      1.0  0.66510  0.06143  0.58752  1.0000
  H   H883      1.0  0.94753  0.13988  0.49181  1.0000
  H   H884      1.0  0.97690  0.42023  0.70072  1.0000
  C   C733      1.0  0.77010  0.37531  0.86399  1.0000
  H   H885      1.0  0.91238  0.43399  0.71233  1.0000
  H   H886      1.0  0.89411  0.06560  0.49356  1.0000
  C   C734      1.0  0.98450  0.20610  0.53180  1.0000
  C   C735      1.0  0.68376  0.99420  0.54519  1.0000
  C   C736      1.0  0.73455  0.45711  0.94954  1.0000
  H   H887      1.0  0.91636  0.40052  0.74957  1.0000
  H   H888      1.0  0.94920  0.20562  0.50406  1.0000
  N   N49       1.0  0.71496  0.43449  0.86470  1.0000
  C   C737      1.0  0.71647  0.44493  0.88670  1.0000
  C   C738      1.0  0.98505  0.13753  0.49193  1.0000
  C   C739      1.0  0.80277  0.08016  0.47527  1.0000
  C   C740      1.0  0.87551  0.44963  0.96653  1.0000
  H   H889      1.0  0.71292  0.43218  0.90422  1.0000
  C   C741      1.0  0.87219  0.41043  0.95935  1.0000
  C   C742      1.0  0.74666  0.37134  0.86846  1.0000
  H   H890      1.0  0.70346  0.46109  0.88742  1.0000
  H   H891      1.0  0.89091  0.40460  0.96276  1.0000
  C   C743      1.0  0.82059  0.11449  0.47976  1.0000
  H   H892      1.0  0.69302  0.10802  0.52436  1.0000
  S   S203      1.0  0.80616  0.47419  0.90434  1.0000
  C   C744      1.0  0.96431  0.14001  0.48053  1.0000
  H   H893      1.0  0.97972  0.39435  0.72448  1.0000
  C   C745      1.0  0.88729  0.08334  0.48361  1.0000
  S   S204      1.0  0.72218  0.98989  0.51054  1.0000
  H   H894      1.0  0.93689  0.47695  0.74821  1.0000
  S   S205      1.0  0.66056  0.44400  0.92052  1.0000
  H   H895      1.0  0.79946  0.06216  0.48223  1.0000
  H   H896      1.0  0.65828  0.05619  0.51222  1.0000
  C   C746      1.0  0.97620  0.18435  0.54323  1.0000
  C   C747      1.0  0.67872  0.06477  0.57219  1.0000
  C   C748      1.0  0.74454  0.09489  0.51105  1.0000
  C   C749      1.0  0.97867  0.17469  0.56822  1.0000
  H   H897      1.0  0.98631  0.25267  0.50702  1.0000
  H   H898      1.0  0.96732  0.17461  0.53345  1.0000
  H   H899      1.0  0.97178  0.15833  0.57661  1.0000
  C   C750      1.0  0.83733  0.43798  0.96626  1.0000
  C   C751      1.0  0.94963  0.36270  0.48559  1.0000
  S   S206      1.0  0.98679  0.33613  0.63643  1.0000
  Fe  Fe104     1.0  0.98682  0.32285  0.59984  1.0000
  H   H900      1.0  0.92257  0.26572  0.47648  1.0000
  H   H901      1.0  0.75748  0.09897  0.49443  1.0000
  C   C752      1.0  0.98954  0.18618  0.58249  1.0000
  H   H902      1.0  0.96136  0.31915  0.47593  1.0000
  H   H903      1.0  0.70487  0.07430  0.48363  1.0000
  C   C753      1.0  0.71748  0.08626  0.48549  1.0000
  H   H904      1.0  0.70752  0.10412  0.48562  1.0000
  H   H905      1.0  0.88964  0.24451  0.47300  1.0000
  H   H906      1.0  0.79048  0.62188  0.01349  1.0000
  S   S207      1.0  0.94830  0.51153  0.23705  1.0000
  C   C754      1.0  0.97376  0.67960  0.28943  1.0000
  S   S208      1.0  0.96159  0.54861  0.18669  1.0000
  Fe  Fe105     1.0  0.96921  0.54236  0.22664  1.0000
  S   S209      1.0  0.96215  0.56957  0.25249  1.0000
  Fe  Fe106     1.0  0.94379  0.51573  0.19617  1.0000
  S   S210      1.0  0.90868  0.51892  0.17972  1.0000
  S   S211      1.0  0.93593  0.79706  0.45324  1.0000
  H   H907      1.0  0.89965  0.48841  0.99200  1.0000
  H   H908      1.0  0.86514  0.87270  0.34889  1.0000
  H   H909      1.0  0.79484  0.50079  0.98323  1.0000
  H   H910      1.0  0.86098  0.69855  0.44753  1.0000
  H   H911      1.0  0.88992  0.85497  0.36248  1.0000
  C   C755      1.0  0.89647  0.53523  0.09149  1.0000
  S   S212      1.0  0.96427  0.72198  0.33842  1.0000
  H   H912      1.0  0.91445  0.88319  0.34181  1.0000
  Fe  Fe107     1.0  0.87695  0.83856  0.44221  1.0000
  S   S213      1.0  0.89920  0.82271  0.41153  1.0000
  S   S214      1.0  0.98241  0.65189  0.34814  1.0000
  H   H913      1.0  0.95334  0.57005  0.10211  1.0000
  Fe  Fe108     1.0  0.92944  0.83186  0.42754  1.0000
  S   S215      1.0  0.95846  0.84641  0.40067  1.0000
  Fe  Fe109     1.0  0.90378  0.78936  0.43952  1.0000
  S   S216      1.0  0.90282  0.75282  0.43313  1.0000
  H   H914      1.0  0.90596  0.90015  0.39313  1.0000
  Fe  Fe110     1.0  0.78758  0.50251  0.07544  1.0000
  C   C756      1.0  0.80777  0.92701  0.43656  1.0000
  S   S217      1.0  0.75437  0.52173  0.09217  1.0000
  S   S218      1.0  0.67837  0.55241  0.97843  1.0000
  H   H915      1.0  0.83443  0.49724  0.98579  1.0000
  C   C757      1.0  0.96531  0.71032  0.25430  1.0000
  S   S219      1.0  0.79231  0.50062  0.03510  1.0000
  S   S220      1.0  0.66796  0.96313  0.31857  1.0000
  C   C758      1.0  0.97524  0.66942  0.24891  1.0000
  S   S221      1.0  0.82254  0.51493  0.07524  1.0000
  C   C759      1.0  0.98256  0.53148  0.08918  1.0000
  C   C760      1.0  0.69882  0.56978  0.04677  1.0000
  C   C761      1.0  0.71384  0.55236  0.03595  1.0000
  C   C762      1.0  0.73107  0.53729  0.04960  1.0000
  C   C763      1.0  0.73315  0.53961  0.07404  1.0000
  C   C764      1.0  0.71791  0.55683  0.08471  1.0000
  C   C765      1.0  0.70102  0.57193  0.07111  1.0000
  H   H916      1.0  0.71218  0.55061  0.01716  1.0000
  H   H917      1.0  0.74249  0.52373  0.04146  1.0000
  H   H918      1.0  0.71931  0.55866  0.10359  1.0000
  H   H919      1.0  0.68950  0.58532  0.07958  1.0000
  C   C766      1.0  0.94831  0.73071  0.36525  1.0000
  C   C767      1.0  0.94243  0.71376  0.38605  1.0000
  C   C768      1.0  0.92860  0.72074  0.40690  1.0000
  C   C769      1.0  0.92116  0.74471  0.40732  1.0000
  C   C770      1.0  0.92781  0.76174  0.38692  1.0000
  C   C771      1.0  0.94106  0.75471  0.36574  1.0000
  H   H920      1.0  0.94790  0.69520  0.38578  1.0000
  H   H921      1.0  0.92353  0.70752  0.42264  1.0000
  H   H922      1.0  0.92210  0.78026  0.38712  1.0000
  H   H923      1.0  0.94567  0.76786  0.34971  1.0000
  C   C772      1.0  0.84121  0.90909  0.37264  1.0000
  C   C773      1.0  0.66389  0.90029  0.23954  1.0000
  C   C774      1.0  0.67266  0.49079  0.04215  1.0000
  C   C775      1.0  0.97403  0.54082  0.36244  1.0000
  H   H924      1.0  0.97789  0.62037  0.30787  1.0000
  C   C776      1.0  0.82399  0.92841  0.37522  1.0000
  C   C777      1.0  0.87536  0.86948  0.36522  1.0000
  H   H925      1.0  0.96873  0.71641  0.23387  1.0000
  H   H926      1.0  0.77482  0.55183  0.04203  1.0000
  C   C778      1.0  0.83584  0.89090  0.43807  1.0000
  Fe  Fe111     1.0  0.82850  0.50915  0.03587  1.0000
  H   H927      1.0  0.96205  0.49468  0.11845  1.0000
  S   S222      1.0  0.84529  0.53583  0.00664  1.0000
  C   C779      1.0  0.78326  0.49064  0.97636  1.0000
  H   H928      1.0  0.70734  0.95069  0.34801  1.0000
  C   C780      1.0  0.66839  0.93331  0.25741  1.0000
  C   C781      1.0  0.84879  0.92804  0.44016  1.0000
  C   C782      1.0  0.87145  0.93339  0.37315  1.0000
  H   H929      1.0  0.89096  0.90409  0.32868  1.0000
  S   S223      1.0  0.84172  0.86069  0.43570  1.0000
  H   H930      1.0  0.92229  0.64695  0.45572  1.0000
  H   H931      1.0  0.69629  0.87735  0.27110  1.0000
  H   H932      1.0  0.95286  0.50470  0.31609  1.0000
  H   H933      1.0  0.93637  0.72840  0.46542  1.0000
  H   H934      1.0  0.95322  0.59761  0.29071  1.0000
  C   C783      1.0  0.89727  0.50257  0.16089  1.0000
  H   H935      1.0  0.88952  0.93613  0.37288  1.0000
  H   H936      1.0  0.66319  0.50536  0.99415  1.0000
  H   H937      1.0  0.97769  0.69226  0.30052  1.0000
  C   C784      1.0  0.86555  0.49935  0.13667  1.0000
  C   C785      1.0  0.87500  0.51095  0.15249  1.0000
  C   C786      1.0  0.98760  0.77647  0.41042  1.0000
  C   C787      1.0  0.67508  0.48862  0.99850  1.0000
  H   H938      1.0  0.84839  0.50603  0.13052  1.0000
  H   H939      1.0  0.86500  0.52662  0.15819  1.0000
  C   C788      1.0  0.85371  0.90359  0.44061  1.0000
  N   N50       1.0  0.77802  0.58833  0.02741  1.0000
  N   N51       1.0  0.95977  0.53222  0.10528  1.0000
  C   C789      1.0  0.85405  0.95249  0.37598  1.0000
  H   H940      1.0  0.79886  0.89290  0.43459  1.0000
  C   C790      1.0  0.67663  0.51946  0.07689  1.0000
  H   H941      1.0  0.67597  0.90634  0.22280  1.0000
  C   C791      1.0  0.98559  0.61057  0.29344  1.0000
  C   C792      1.0  0.69469  0.89693  0.26566  1.0000
  C   C793      1.0  0.98131  0.85113  0.41619  1.0000
  H   H942      1.0  0.88418  0.52900  0.05859  1.0000
  C   C794      1.0  0.77319  0.58604  0.00235  1.0000
  H   H943      1.0  0.92421  0.52162  0.03712  1.0000
  H   H944      1.0  0.96238  0.53958  0.37963  1.0000
  H   H945      1.0  0.85879  0.96917  0.37819  1.0000
  H   H946      1.0  0.69336  0.49307  0.99551  1.0000
  H   H947      1.0  0.73470  0.59633  0.00628  1.0000
  H   H948      1.0  0.87889  0.53811  0.10097  1.0000
  C   C795      1.0  0.65889  0.51323  0.04187  1.0000
  C   C796      1.0  0.96610  0.50952  0.30009  1.0000
  H   H949      1.0  0.88445  0.66154  0.43796  1.0000
  H   H950      1.0  0.67283  0.91304  0.30995  1.0000
  N   N52       1.0  0.97990  0.68747  0.26245  1.0000
  H   H951      1.0  0.92966  0.64133  0.24046  1.0000
  C   C797      1.0  0.94733  0.64602  0.23851  1.0000
  C   C798      1.0  0.89944  0.53008  0.06762  1.0000
  H   H952      1.0  0.80972  0.57399  0.98987  1.0000
  H   H953      1.0  0.68522  0.97255  0.46167  1.0000
  H   H954      1.0  0.87139  0.89477  0.44246  1.0000
  H   H955      1.0  0.76100  0.59946  0.06135  1.0000
  C   C799      1.0  0.95685  0.55387  0.11637  1.0000
  C   C800      1.0  0.89798  0.88506  0.38986  1.0000
  H   H956      1.0  0.74313  0.58603  0.04614  1.0000
  C   C801      1.0  0.75022  0.59103  0.99437  1.0000
  H   H957      1.0  0.86282  0.93790  0.44139  1.0000
  S   S224      1.0  0.90698  0.85035  0.45612  1.0000
  H   H958      1.0  0.72377  0.97132  0.37587  1.0000
  C   C802      1.0  0.86559  0.91110  0.37123  1.0000
  Fe  Fe112     1.0  0.66626  0.58481  0.99487  1.0000
  C   C803      1.0  0.94175  0.52675  0.06742  1.0000
  H   H959      1.0  0.98937  0.77531  0.39033  1.0000
  H   H960      1.0  0.79006  0.93595  0.43489  1.0000
  C   C804      1.0  0.98827  0.55876  0.35608  1.0000
  H   H961      1.0  0.95868  0.85978  0.44833  1.0000
  C   C805      1.0  0.89049  0.67112  0.45028  1.0000
  N   N53       1.0  0.88440  0.89121  0.36798  1.0000
  C   C806      1.0  0.83039  0.95004  0.37687  1.0000
  H   H962      1.0  0.96181  0.61948  0.21665  1.0000
  H   H963      1.0  0.98199  0.79543  0.41135  1.0000
  H   H964      1.0  0.96898  0.72435  0.26380  1.0000
  H   H965      1.0  0.94616  0.70925  0.25883  1.0000
  H   H966      1.0  0.70161  0.90376  0.28032  1.0000
  H   H967      1.0  0.86397  0.86247  0.38222  1.0000
  C   C807      1.0  0.97658  0.85744  0.43969  1.0000
  H   H968      1.0  0.97751  0.50996  0.13515  1.0000
  S   S225      1.0  0.98842  0.61252  0.41187  1.0000
  H   H969      1.0  0.96596  0.49706  0.28721  1.0000
  C   C808      1.0  0.82587  0.93988  0.43794  1.0000
  S   S226      1.0  0.67746  0.58983  0.03078  1.0000
  H   H970      1.0  0.95870  0.52296  0.05716  1.0000
  N   N54       1.0  0.66995  0.90720  0.26219  1.0000
  H   H971      1.0  0.66494  0.88078  0.24170  1.0000
  C   C809      1.0  0.79601  0.60445  0.02514  1.0000
  C   C810      1.0  0.92202  0.52587  0.05560  1.0000
  H   H972      1.0  0.83488  0.89269  0.37243  1.0000
  S   S227      1.0  0.97689  0.49137  0.18806  1.0000
  C   C811      1.0  0.81281  0.90263  0.43641  1.0000
  H   H973      1.0  0.80443  0.55762  0.03237  1.0000
  H   H974      1.0  0.70676  0.90129  0.24839  1.0000
  C   C812      1.0  0.79189  0.57862  0.98497  1.0000
  H   H975      1.0  0.74304  0.50691  0.00245  1.0000
  H   H976      1.0  0.67315  0.94016  0.27328  1.0000
  H   H977      1.0  0.81693  0.96470  0.37983  1.0000
  H   H978      1.0  0.78961  0.56539  0.06072  1.0000
  H   H979      1.0  0.95896  0.58884  0.45110  1.0000
  H   H980      1.0  0.70351  0.49220  0.09088  1.0000
  H   H981      1.0  0.91278  0.87066  0.38768  1.0000
  H   H982      1.0  0.68023  0.94000  0.24075  1.0000
  H   H983      1.0  0.91273  0.53901  0.12249  1.0000
  C   C813      1.0  0.91177  0.66295  0.46025  1.0000
  C   C814      1.0  0.96144  0.51135  0.12557  1.0000
  H   H984      1.0  0.94230  0.55406  0.13176  1.0000
  C   C815      1.0  0.91604  0.53593  0.10358  1.0000
  C   C816      1.0  0.90069  0.89814  0.34542  1.0000
  C   C817      1.0  0.78714  0.56484  0.04116  1.0000
  C   C818      1.0  0.95207  0.66365  0.25026  1.0000
  C   C819      1.0  0.97469  0.52458  0.34672  1.0000
  C   C820      1.0  0.96541  0.63374  0.22497  1.0000
  C   C821      1.0  0.84634  0.53136  0.97599  1.0000
  H   H985      1.0  0.88652  0.87888  0.40701  1.0000
  H   H986      1.0  0.98394  0.66213  0.29588  1.0000
  H   H987      1.0  0.74924  0.61572  0.03348  1.0000
  H   H988      1.0  0.79906  0.60758  0.04365  1.0000
  H   H989      1.0  0.95973  0.52761  0.29034  1.0000
  C   C822      1.0  0.75692  0.59789  0.04264  1.0000
  H   H990      1.0  0.94613  0.51217  0.14002  1.0000
  C   C823      1.0  0.96455  0.60313  0.45774  1.0000
  C   C824      1.0  0.69887  0.96791  0.35107  1.0000
  S   S228      1.0  0.82094  0.97083  0.43594  1.0000
  H   H991      1.0  0.81346  0.59719  0.01663  1.0000
  C   C825      1.0  0.93931  0.53199  0.09183  1.0000
  C   C826      1.0  0.65855  0.90367  0.30831  1.0000
  S   S229      1.0  0.87854  0.80393  0.46894  1.0000
  C   C827      1.0  0.98117  0.58442  0.26503  1.0000
  H   H992      1.0  0.91037  0.91267  0.34713  1.0000
  Fe  Fe113     1.0  0.98276  0.48971  0.22805  1.0000
  H   H993      1.0  0.98736  0.51441  0.08248  1.0000
  C   C828      1.0  0.97163  0.59748  0.28374  1.0000
  H   H994      1.0  0.80549  0.92639  0.37687  1.0000
  C   C829      1.0  0.97895  0.61818  0.44186  1.0000
  C   C830      1.0  0.66095  0.52732  0.05899  1.0000
  H   H995      1.0  0.96331  0.51099  0.35246  1.0000
  H   H996      1.0  0.95479  0.67778  0.29439  1.0000
  H   H997      1.0  0.93753  0.67228  0.26103  1.0000
  H   H998      1.0  0.97282  0.55531  0.12496  1.0000
  H   H999      1.0  0.98215  0.54634  0.07301  1.0000
  C   C831      1.0  0.90987  0.48215  0.15345  1.0000
  Fe  Fe114     1.0  0.98895  0.68873  0.34859  1.0000
  C   C832      1.0  0.75072  0.51920  0.98633  1.0000
  H   H1000     1.0  0.97297  0.76650  0.41989  1.0000
  H   H1001     1.0  0.67818  0.53044  0.09012  1.0000
  C   C833      1.0  0.98610  0.63671  0.45044  1.0000
  C   C834      1.0  0.87724  0.69189  0.45581  1.0000
  H   H1002     1.0  0.76313  0.52860  0.99322  1.0000
  C   C835      1.0  0.69081  0.49780  0.07733  1.0000
  H   H1003     1.0  0.73633  0.53315  0.97978  1.0000
  C   C836      1.0  0.88518  0.70458  0.47134  1.0000
  H   H1004     1.0  0.98767  0.57144  0.36822  1.0000
  C   C837      1.0  0.68896  0.48355  0.06027  1.0000
  C   C838      1.0  0.89484  0.48011  0.97781  1.0000
  C   C839      1.0  0.98961  0.52592  0.32397  1.0000
  N   N55       1.0  0.98994  0.50847  0.30769  1.0000
  C   C840      1.0  0.98831  0.63902  0.22312  1.0000
  C   C841      1.0  0.87820  0.47905  0.12909  1.0000
  C   C842      1.0  0.67876  0.97837  0.33901  1.0000
  H   H1005     1.0  0.98433  0.47882  0.33754  1.0000
  H   H1006     1.0  0.94568  0.77126  0.50467  1.0000
  S   S230      1.0  0.91288  0.81016  0.52155  1.0000
  H   H1007     1.0  0.89361  0.48614  0.75783  1.0000
  Fe  Fe115     1.0  0.68260  0.57795  0.94233  1.0000
  H   H1008     1.0  0.87445  0.72092  0.47412  1.0000
  S   S231      1.0  0.71765  0.57630  0.91888  1.0000
  H   H1009     1.0  0.78716  0.94312  0.49652  1.0000
  H   H1010     1.0  0.95637  0.60142  0.57298  1.0000
  C   C843      1.0  0.79511  0.90567  0.50936  1.0000
  C   C844      1.0  0.72637  0.55440  0.90058  1.0000
  C   C845      1.0  0.75009  0.55060  0.89116  1.0000
  C   C846      1.0  0.75865  0.53109  0.87978  1.0000
  C   C847      1.0  0.74331  0.51586  0.87676  1.0000
  C   C848      1.0  0.71924  0.52049  0.88469  1.0000
  C   C849      1.0  0.71078  0.53966  0.89686  1.0000
  H   H1011     1.0  0.76212  0.56223  0.89357  1.0000
  H   H1012     1.0  0.70729  0.50883  0.88219  1.0000
  H   H1013     1.0  0.69237  0.54274  0.90377  1.0000
  H   H1014     1.0  0.86193  0.55888  0.91699  1.0000
  C   C850      1.0  0.94869  0.74072  0.56414  1.0000
  C   C851      1.0  0.93364  0.75689  0.57654  1.0000
  C   C852      1.0  0.92296  0.77805  0.56322  1.0000
  C   C853      1.0  0.92695  0.78324  0.53727  1.0000
  C   C854      1.0  0.94208  0.76717  0.52467  1.0000
  C   C855      1.0  0.95308  0.74600  0.53815  1.0000
  H   H1015     1.0  0.93028  0.75307  0.59661  1.0000
  H   H1016     1.0  0.91147  0.79039  0.57314  1.0000
  C   C856      1.0  0.98210  0.54361  0.58873  1.0000
  S   S232      1.0  0.96143  0.71430  0.58206  1.0000
  H   H1017     1.0  0.97409  0.58925  0.66418  1.0000
  H   H1018     1.0  0.76256  0.58256  0.93448  1.0000
  S   S233      1.0  0.67267  0.61051  0.95934  1.0000
  C   C857      1.0  0.87957  0.87593  0.51367  1.0000
  H   H1019     1.0  0.86817  0.83663  0.50579  1.0000
  C   C858      1.0  0.84204  0.91363  0.50445  1.0000
  C   C859      1.0  0.85421  0.54861  0.95656  1.0000
  Fe  Fe116     1.0  0.98351  0.68550  0.56421  1.0000
  S   S234      1.0  0.75437  0.49057  0.86400  1.0000
  S   S235      1.0  0.85198  0.52193  0.89524  1.0000
  H   H1020     1.0  0.94513  0.55418  0.56256  1.0000
  H   H1021     1.0  0.83423  0.85086  0.54899  1.0000
  H   H1022     1.0  0.93421  0.67921  0.51967  1.0000
  C   C860      1.0  0.74586  0.49324  0.95842  1.0000
  C   C861      1.0  0.89708  0.50344  0.84021  1.0000
  H   H1023     1.0  0.85963  0.56427  0.96059  1.0000
  C   C862      1.0  0.94205  0.52515  0.75567  1.0000
  C   C863      1.0  0.97503  0.53919  0.61476  1.0000
  H   H1024     1.0  0.90817  0.74087  0.51491  1.0000
  C   C864      1.0  0.98959  0.58210  0.65340  1.0000
  C   C865      1.0  0.85126  0.85815  0.54462  1.0000
  H   H1025     1.0  0.95271  0.70268  0.48170  1.0000
  C   C866      1.0  0.91986  0.67557  0.47567  1.0000
  C   C867      1.0  0.96470  0.62470  0.49090  1.0000
  C   C868      1.0  0.84846  0.52546  0.92643  1.0000
  H   H1026     1.0  0.86526  0.84304  0.54960  1.0000
  C   C869      1.0  0.91814  0.53298  0.75449  1.0000
  C   C870      1.0  0.81277  0.88672  0.51498  1.0000
  S   S236      1.0  0.95504  0.62864  0.52143  1.0000
  H   H1027     1.0  0.69191  0.50327  0.93651  1.0000
  C   C871      1.0  0.77128  0.52353  0.94499  1.0000
  H   H1028     1.0  0.88396  0.88409  0.49387  1.0000
  H   H1029     1.0  0.97097  0.55115  0.54077  1.0000
  H   H1030     1.0  0.88214  0.88818  0.52586  1.0000
  H   H1031     1.0  0.82852  0.95023  0.49219  1.0000
  H   H1032     1.0  0.91516  0.49656  0.84511  1.0000
  C   C872      1.0  0.90063  0.73163  0.50260  1.0000
  N   N56       1.0  0.89548  0.52695  0.82372  1.0000
  H   H1033     1.0  0.85119  0.87094  0.55715  1.0000
  H   H1034     1.0  0.66282  0.49374  0.90900  1.0000
  C   C873      1.0  0.90295  0.54398  0.83681  1.0000
  C   C874      1.0  0.91102  0.52585  0.80019  1.0000
  C   C875      1.0  0.93550  0.51793  0.80065  1.0000
  C   C876      1.0  0.90274  0.53326  0.77633  1.0000
  C   C877      1.0  0.95067  0.51744  0.77870  1.0000
  C   C878      1.0  0.89979  0.48982  0.95280  1.0000
  H   H1035     1.0  0.75718  0.53808  0.93921  1.0000
  H   H1036     1.0  0.96920  0.51079  0.77953  1.0000
  H   H1037     1.0  0.85661  0.86009  0.48234  1.0000
  S   S237      1.0  0.97643  0.64776  0.57644  1.0000
  H   H1038     1.0  0.94555  0.59523  0.49403  1.0000
  H   H1039     1.0  0.88441  0.53915  0.77396  1.0000
  H   H1040     1.0  0.80743  0.86936  0.52103  1.0000
  H   H1041     1.0  0.88332  0.72715  0.51223  1.0000
  C   C879      1.0  0.87024  0.53450  0.82005  1.0000
  H   H1042     1.0  0.85975  0.91802  0.50170  1.0000
  C   C880      1.0  0.95708  0.60665  0.48205  1.0000
  H   H1043     1.0  0.89767  0.74478  0.48533  1.0000
  H   H1044     1.0  0.90471  0.68843  0.53161  1.0000
  C   C881      1.0  0.80082  0.92849  0.50133  1.0000
  H   H1045     1.0  0.89120  0.54578  0.85430  1.0000
  Fe  Fe117     1.0  0.91047  0.81433  0.48054  1.0000
  H   H1046     1.0  0.92816  0.70462  0.53394  1.0000
  H   H1047     1.0  0.86338  0.52211  0.81062  1.0000
  C   C882      1.0  0.85421  0.85203  0.50237  1.0000
  H   H1048     1.0  0.72899  0.59380  0.96429  1.0000
  H   H1049     1.0  0.94317  0.51199  0.81799  1.0000
  H   H1050     1.0  0.77790  0.51501  0.92858  1.0000
  Fe  Fe118     1.0  0.83630  0.49292  0.88473  1.0000
  C   C883      1.0  0.76549  0.58309  0.95337  1.0000
  C   C884      1.0  0.85542  0.54559  0.93189  1.0000
  H   H1051     1.0  0.89298  0.86007  0.51771  1.0000
  H   H1052     1.0  0.94429  0.57863  0.59532  1.0000
  C   C885      1.0  0.83685  0.89005  0.51249  1.0000
  H   H1053     1.0  0.94641  0.72899  0.49457  1.0000
  H   H1054     1.0  0.90252  0.56182  0.82483  1.0000
  S   S238      1.0  0.98553  0.54062  0.68641  1.0000
  C   C886      1.0  0.82419  0.93246  0.49904  1.0000
  S   S239      1.0  0.98305  0.68589  0.52375  1.0000
  H   H1055     1.0  0.96525  0.73399  0.52855  1.0000
  C   C887      1.0  0.84011  0.50829  0.94581  1.0000
  H   H1056     1.0  0.88569  0.50388  0.85808  1.0000
  H   H1057     1.0  0.92111  0.53846  0.84218  1.0000
  H   H1058     1.0  0.77715  0.52785  0.87335  1.0000
  C   C888      1.0  0.92111  0.69498  0.52160  1.0000
  C   C889      1.0  0.96088  0.56258  0.55350  1.0000
  N   N57       1.0  0.91654  0.71020  0.49727  1.0000
  H   H1059     1.0  0.80279  0.57218  0.94774  1.0000
  S   S240      1.0  0.82138  0.50258  0.84812  1.0000
  H   H1060     1.0  0.91148  0.53862  0.73649  1.0000
  N   N58       1.0  0.85525  0.86958  0.51814  1.0000
  H   H1061     1.0  0.95387  0.52476  0.73866  1.0000
  H   H1062     1.0  0.78593  0.53184  0.94929  1.0000
  H   H1063     1.0  0.89116  0.49028  0.83126  1.0000
  H   H1064     1.0  0.83514  0.49253  0.94162  1.0000
  H   H1065     1.0  0.83723  0.84471  0.50572  1.0000
  H   H1066     1.0  0.97122  0.58878  0.59980  1.0000
  H   H1067     1.0  0.86726  0.55268  0.80902  1.0000
  N   N59       1.0  0.76257  0.50625  0.96646  1.0000
  C   C890      1.0  0.93898  0.71784  0.48425  1.0000
  C   C891      1.0  0.97943  0.63964  0.47520  1.0000
  H   H1068     1.0  0.85904  0.53478  0.83812  1.0000
  C   C892      1.0  0.78808  0.57738  0.96081  1.0000
  H   H1069     1.0  0.95453  0.57951  0.54144  1.0000
  H   H1070     1.0  0.69101  0.97701  0.55462  1.0000
  C   C893      1.0  0.98150  0.51722  0.62952  1.0000
  H   H1071     1.0  0.77688  0.90267  0.51097  1.0000
  Fe  Fe119     1.0  0.97939  0.64768  0.53569  1.0000
  C   C894      1.0  0.72423  0.50530  0.95044  1.0000
  C   C895      1.0  0.74659  0.58955  0.97020  1.0000
  C   C896      1.0  0.90688  0.69679  0.48171  1.0000
  H   H1072     1.0  0.98523  0.65374  0.48195  1.0000
  C   C897      1.0  0.70813  0.49347  0.94279  1.0000
  N   N60       1.0  0.97522  0.56642  0.57234  1.0000
  C   C898      1.0  0.96115  0.58448  0.58584  1.0000
  H   H1073     1.0  0.93665  0.66882  0.48253  1.0000
  H   H1074     1.0  0.96478  0.55244  0.62436  1.0000
  H   H1075     1.0  0.97609  0.51429  0.64937  1.0000
  H   H1076     1.0  0.79428  0.48199  0.96174  1.0000
  H   H1077     1.0  0.71982  0.52415  0.94946  1.0000
  H   H1078     1.0  0.98991  0.80716  0.48844  1.0000
  C   C899      1.0  0.83950  0.51104  0.97068  1.0000
  H   H1079     1.0  0.90835  0.50561  0.94758  1.0000
  H   H1080     1.0  0.89613  0.48776  0.91511  1.0000
  C   C900      1.0  0.89297  0.47969  0.93454  1.0000
  Fe  Fe120     1.0  0.79322  0.48083  0.86670  1.0000
