data_image0
_chemical_formula_structural       S2C2HS2FeHCFeSCFeSHFeSFeHSH3FeHSCSHC2HCHSHC2H2C2SFeHC6HCH7CHCH2FeC2FeHC2H4CHC3H5CHCNHCH3S2HCHFe2NHCFeHCNC9H13NC6H9CH6SC2SH2C3SCNC5SHSH9C2HCH4CH2C2HSH4CSHCNFe2HS2C2H2CH2CHC4SFeC3H3C2H2CH5CH2CH2SC3FeH3C2SCHC2H2C2HFeH2C2S2CSCH3CHCFeHSC4H2CHSFeSCFeSH2SH2CHSCFeCH2C2SCH2CH2SHSHSC5H3NHCH3FeCH5SFeH2CNC4SCHSCHCH5FeHC2SHSC5FeH4CNC2N2C2H2SH4CFeC2FeH2C3H2C2NC9H15SH3C2H5SH2C2SHCHCHCHSH3CHC2HCHC3H3NH4CH2CS2H2CFeHCH5CHSC2HC2HCHC2SHCHCHCH2C2NCHC2H2C2H2CH3FeH3CHSHCSCSHC2HFeH2CHFeCH2C2SFeSH4C3HFeSCFeS2FeSFeHS2HFeSC2HC2H3NH4CHCH3CHCHSH2C2SC6H4CHCH2CNCH4CHSC7H5CH2CS2H3CH2CFeCNCH2C2H3CHSNCH3CHC2FeHS2CHC2HFeH2C2HCH4CH2CHSHCHC2S2CSHCHCHC2HCHCH4CFeCSCSH2SHCFeSCHC2H3S2HFeS2FeCFeCSHSHNHCSCH2C5HC6H4C2SC4H4SH6CH2CH3C2HCFeH2C4H3C4H2SCH2SC7H2C3HCH3CH2C2SH3FeH8C5NHS2HCHFeHC4SH2CH3CNCH2CFeH3CHN2C10FeCH6CHC2HCFeH2CHC2HC2NCH3SCS2HSH2CH4CH3SHCHC9H2CHCH2C6H2C2FeCHC3H7S2NS2H4NH2FeCSC2H5C2HCHCH2C2H3NHC2H2CHCSCFeSCHCHFeS2FeCNC2FeCSFeS2HFeS3HC7H4C5HSHC2HCHC2HSHC2SH2CHC2H7FeH2SH4NH2C2HC2HC2NFeHCHCHFeCNCHCSC4HCHFeH4CH6SCH2CH3C2SCHCH6CH3CSFeSHC3HS2FeCSCH3C2HCSH2C5HCNHC2H2SHCH3CH2FeSCHCHSHC2H2CH3SHNHCHCSCHSFeSCSC2NCHS2CSC2HC4SCH5C6H4CH3CH3SCH3CFeC5H3C2FeHFeH2CHSCH3CFeNH2SC2NC7H2SH2C3H3CHCSHCS2C2H4CSCH3CHCHSH4SHCSHC2HCH2CH3CHCHSC2HC2H2NC2H4FeH2C2FeHFe2H3CNHCHC2H3C2H2CH2C2H2CH2CHCHC2HCHFeC2HCH3CH2FeCSFeHSC2HS3HSNCH3FeSHC3FeH2CHSCH2C6H4CHCH2C2H3C2HC4HCHCHCHCHSCNCHNH3CHFeCH3NH2CHFeC3H2S2C3SH3CHCHSFeH4CSH5C3H2CH3CSC2HCNHFeHCHSCHCH2FeC3SH4CSCHNH2CHC2FeS2H2FeS3HC3HFe2C2HFeCHCH5FeS2H2SFe2H2SFeS2HCHFeSCHSC2FeC2H2CNCH2C6H5CHCSH5CH2C4FeCHSHCHSC4HCHCNHC8HC3H2C2H3C7H5CHNH4C2NH4FeHSH2CSH2CHC2H3C7HC2H15CH7CHCHC2FeH3CHFeSNH3SNHCHC3HSHCHSCHCHS2HCHCSC3H2C2H3C5H2NC3H2CHSC3H2CHSH7NCHCHCHCSH2C2HC2HCH2CHC2H3CH3SC2HCSFeSCSCFeS2HCHCH3SHNH2SHSC4HCH3C2HC4HCFeCH2SC6H5NC8NH15SHCH2CHC2FeHC4HNFeHCHCHC2H2CH2CH8SC2H3CHSHCH2CNCH4FeCH2CHSH2CFeCSHFeSFeSFeCSFeHSH4CSH3NSH3FeSFeS2FeS2C6FeCSCFeCHSCFeSCSH2FeS3CH2CH2CHC2HC2SH2C2H3CHCH4NC3H4CH2CSC6H4CHC2H4SC4H2C5H3C2HC6H3CH3C4HC2HCH3CHCSHCSNH2CH2CNHSCHCH2NHC2NH2CHSH2CH3C2H2CHC3HCHC2HCH2SHCHC2HSH2FeH2C4SHC3NHCHCFeH2SHCSCHCH3CFeC2HFeNC9H11FeHCHCFeC2HC5H2C3NH3CH3CH3CHCH2C2HC2HCH6CH2CHCHCFeH5FeHCHSNCHSC2HC3SCH2SH6C2H2SC2H2FeHCS2CHCNHCSH3C2H2C2FeCHS3CH2CSCH4SC2HC2H2SC2HCHC2SHCH3C2H4CHSH3Fe2HCH4SFeC2HNCHCHS2FeH3CSHC4HFeH2CHCH3C3H7C3FeSFeCH3C4NC2HFeH4CHCFeCSHCHSHCHCHNCH2CFeH3CFeS2FeSFeSCHFeS2FeSFeS2FeCH2S2CHCHSHC7H2CHNCHCH2CSCH5C3S2CHC2H3C3HC4H6C2HCHCH4C2H4C3HCH2CH3C6HCSH3CHC2SC2H2SH2SH2CHS2C2HC2FeH2C2NSH3C3NH2C4HC2Fe2C2HCH5CHNHC2HNHCH2C3HCHCSH4C2HCNH2CH2FeSHFeSHFeHFeS3CHFeSCH3CHCH2CSC4SCNH4CHC6H5CH2C2H2SH2CHSHCFeHC3HCHCNH2SHSH5CSH2CH5CHC2H3CHSCSC2SC3HCFeSCHSCHC2FeCSH2S2HSHFeSH3CH2C2SFeS2FeH2FeSH2S2CHSHCHSH2FeC3HC2H2CHC2HC2H3CNFeC3SCHSHCSCH2C2H3C6H4C6HNH2C6H5SNHC13H6CH2NHCH2FeC3SC2H10CH2C2HSFeH3C2SC3HCHC2HNH2SCH2C2HC3H2CFeC3H2SH2SHCHS2CH4S2HCFeC3H3CHCNHFeH3CHCH5CH2CH2C2H2C2FeNHC3H3C2H2C3HCH5C2HC2H5C2HCSH2C2H2CH2FeCH3CSFeSFeS2CSFeSFeCS2HSCH3CH3CH2SCHC6H2CH8CS2CHSC2FeC3NHC6SH4C2H2C3H4SHC2SHC2HC2H2CSH2CNC9H7CH3CHCNC4H2FeH6FeH3SHC2H2CHCFeC2FeSCSHCH2FeCHCH2CHC2H2C2H7NHCH3C2S2C3HNHCHCSH3CHS2FeSHFeSHFeSFeCSCH2CSHFeSFeC2HCHCHC2HC6H4CHC2H5C2H2C6HFeSH3FeC6H4C2H3CHSC2SH7CNHSH3CFeHCH2CH3C2HCSH2CH4CSHC2H2CHSCFeHC2SH4C2HSH4C3H2CSFeCH7CHCNHSHSH2FeHCSHC3HC2HNC3HSNCHC3HC5H4C4H3CH3C2H2C2SCFeCH3C3H2SHCHC2HNHCH4C2H2SH2CH4
_chemical_formula_sum              "S384 C1440 H1728 Fe192 N96"
_cell_length_a       62.8543
_cell_length_b       63.6821
_cell_length_c       65.1462
_cell_angle_alpha    75.9892
_cell_angle_beta     80.4327
_cell_angle_gamma    79.0294

_space_group_name_H-M_alt    "P 1"
_space_group_IT_number       1

loop_
  _space_group_symop_operation_xyz
  'x, y, z'

loop_
  _atom_site_type_symbol
  _atom_site_label
  _atom_site_symmetry_multiplicity
  _atom_site_fract_x
  _atom_site_fract_y
  _atom_site_fract_z
  _atom_site_occupancy
  S   S1        1.0  0.01001  0.34404  0.21693  1.0000
  S   S2        1.0  0.42628  0.01613  0.19984  1.0000
  C   C1        1.0  0.15482  0.47965  0.07428  1.0000
  C   C2        1.0  0.47333  0.01494  0.03239  1.0000
  H   H1        1.0  0.02722  0.48313  0.15453  1.0000
  S   S3        1.0  0.46014  0.14112  0.00007  1.0000
  S   S4        1.0  0.04240  0.43367  0.14822  1.0000
  Fe  Fe1       1.0  0.99969  0.37283  0.19103  1.0000
  H   H2        1.0  0.40125  0.44531  0.02844  1.0000
  C   C3        1.0  0.42429  0.02514  0.06899  1.0000
  Fe  Fe2       1.0  0.47111  0.09460  0.07349  1.0000
  S   S5        1.0  0.45502  0.06522  0.07745  1.0000
  C   C4        1.0  0.07128  0.48899  0.14299  1.0000
  Fe  Fe3       1.0  0.46070  0.11288  0.02844  1.0000
  S   S6        1.0  0.44390  0.08483  0.02809  1.0000
  H   H3        1.0  0.15227  0.42319  0.01941  1.0000
  Fe  Fe4       1.0  0.42884  0.08868  0.06084  1.0000
  S   S7        1.0  0.39362  0.08740  0.07286  1.0000
  Fe  Fe5       1.0  0.47164  0.06383  0.04457  1.0000
  H   H4        1.0  0.49137  0.03211  0.09626  1.0000
  S   S8        1.0  0.44325  0.11840  0.06008  1.0000
  H   H5        1.0  0.15287  0.41410  0.11583  1.0000
  H   H6        1.0  0.06578  0.46292  0.11553  1.0000
  H   H7        1.0  0.07080  0.46868  0.07620  1.0000
  Fe  Fe6       1.0  0.35439  0.20113  0.00530  1.0000
  H   H8        1.0  0.02782  0.41225  0.11996  1.0000
  S   S9        1.0  0.37768  0.40834  0.04189  1.0000
  C   C5        1.0  0.39772  0.45761  0.03856  1.0000
  S   S10       1.0  0.01766  0.37836  0.15776  1.0000
  H   H9        1.0  0.38539  0.02990  0.09253  1.0000
  C   C6        1.0  0.03711  0.42468  0.11050  1.0000
  C   C7        1.0  0.28664  0.31794  0.01726  1.0000
  H   H10       1.0  0.29985  0.43768  0.04360  1.0000
  C   C8        1.0  0.05845  0.45323  0.10798  1.0000
  H   H11       1.0  0.48646  0.00088  0.08321  1.0000
  S   S11       1.0  0.34117  0.18073  0.03656  1.0000
  H   H12       1.0  0.14659  0.38772  0.11500  1.0000
  C   C9        1.0  0.43788  0.00400  0.14573  1.0000
  C   C10       1.0  0.31272  0.42903  0.05285  1.0000
  H   H13       1.0  0.41978  0.02569  0.05303  1.0000
  H   H14       1.0  0.32240  0.40810  0.10420  1.0000
  C   C11       1.0  0.16124  0.41562  0.05111  1.0000
  C   C12       1.0  0.30981  0.34143  0.02359  1.0000
  S   S12       1.0  0.36624  0.23200  0.00567  1.0000
  Fe  Fe7       1.0  0.45910  0.14505  0.19212  1.0000
  H   H15       1.0  0.32615  0.34530  0.02154  1.0000
  C   C13       1.0  0.37888  0.11298  0.06208  1.0000
  C   C14       1.0  0.38856  0.12729  0.04472  1.0000
  C   C15       1.0  0.37701  0.14799  0.03657  1.0000
  C   C16       1.0  0.35583  0.15458  0.04585  1.0000
  C   C17       1.0  0.34621  0.14026  0.06326  1.0000
  C   C18       1.0  0.35762  0.11944  0.07124  1.0000
  H   H16       1.0  0.40484  0.12232  0.03730  1.0000
  C   C19       1.0  0.11647  0.42261  0.06482  1.0000
  H   H17       1.0  0.32981  0.14526  0.07046  1.0000
  H   H18       1.0  0.35000  0.10845  0.08458  1.0000
  H   H19       1.0  0.06426  0.47784  0.15658  1.0000
  H   H20       1.0  0.46513  0.00509  0.22051  1.0000
  H   H21       1.0  0.31120  0.38701  0.01055  1.0000
  H   H22       1.0  0.34865  0.48244  0.02233  1.0000
  H   H23       1.0  0.99800  0.45221  0.07026  1.0000
  C   C20       1.0  0.39725  0.47749  0.99237  1.0000
  H   H24       1.0  0.35353  0.46056  0.04506  1.0000
  C   C21       1.0  0.30838  0.42277  0.07507  1.0000
  H   H25       1.0  0.40208  0.18392  0.07720  1.0000
  H   H26       1.0  0.38325  0.00126  0.10129  1.0000
  Fe  Fe8       1.0  0.37776  0.40598  0.00821  1.0000
  C   C22       1.0  0.45977  0.14436  0.14292  1.0000
  C   C23       1.0  0.05120  0.44456  0.07576  1.0000
  Fe  Fe9       1.0  0.05439  0.48645  0.03554  1.0000
  H   H27       1.0  0.01737  0.41679  0.04885  1.0000
  C   C24       1.0  0.45809  0.13004  0.11190  1.0000
  C   C25       1.0  0.44951  0.14484  0.12526  1.0000
  H   H28       1.0  0.13800  0.45902  0.06315  1.0000
  H   H29       1.0  0.45273  0.04225  0.01519  1.0000
  H   H30       1.0  0.45032  0.13065  0.09816  1.0000
  H   H31       1.0  0.43505  0.15667  0.12184  1.0000
  C   C26       1.0  0.32560  0.41280  0.08700  1.0000
  H   H32       1.0  0.42599  0.03852  0.14072  1.0000
  C   C27       1.0  0.35102  0.41394  0.05450  1.0000
  C   C28       1.0  0.34694  0.40869  0.07675  1.0000
  C   C29       1.0  0.33388  0.42403  0.04252  1.0000
  H   H33       1.0  0.36018  0.40099  0.08608  1.0000
  H   H34       1.0  0.33698  0.42833  0.02532  1.0000
  H   H35       1.0  0.25227  0.32638  0.02679  1.0000
  H   H36       1.0  0.27888  0.39417  0.06290  1.0000
  H   H37       1.0  0.10274  0.46841  0.14444  1.0000
  C   C30       1.0  0.44657  0.05224  0.18661  1.0000
  H   H38       1.0  0.32145  0.31348  0.00917  1.0000
  C   C31       1.0  0.42076  0.02506  0.11489  1.0000
  N   N1        1.0  0.38130  0.47671  0.03063  1.0000
  H   H39       1.0  0.10666  0.43773  0.12325  1.0000
  C   C32       1.0  0.26837  0.33055  0.02601  1.0000
  H   H40       1.0  0.38456  0.15881  0.02318  1.0000
  H   H41       1.0  0.10041  0.45746  0.99969  1.0000
  H   H42       1.0  0.03232  0.41843  0.08069  1.0000
  S   S13       1.0  0.25951  0.44088  0.03253  1.0000
  S   S14       1.0  0.44516  0.15103  0.22473  1.0000
  H   H43       1.0  0.08909  0.41199  0.10242  1.0000
  C   C33       1.0  0.30729  0.32340  0.01602  1.0000
  H   H44       1.0  0.41344  0.46283  0.03930  1.0000
  Fe  Fe10      1.0  0.43850  0.11644  0.23232  1.0000
  Fe  Fe11      1.0  0.23634  0.47230  0.03199  1.0000
  N   N2        1.0  0.41501  0.00776  0.08574  1.0000
  H   H45       1.0  0.46499  0.18788  0.10062  1.0000
  C   C34       1.0  0.15382  0.41335  0.07291  1.0000
  Fe  Fe12      1.0  0.20526  0.45255  0.06919  1.0000
  H   H46       1.0  0.10396  0.44762  0.09543  1.0000
  C   C35       1.0  0.11526  0.43782  0.10687  1.0000
  N   N3        1.0  0.38673  0.12459  0.17558  1.0000
  C   C36       1.0  0.39904  0.14255  0.17464  1.0000
  C   C37       1.0  0.36317  0.13403  0.17692  1.0000
  C   C38       1.0  0.39002  0.10781  0.19553  1.0000
  C   C39       1.0  0.39483  0.11461  0.15685  1.0000
  C   C40       1.0  0.41697  0.10459  0.15362  1.0000
  C   C41       1.0  0.38140  0.11478  0.14122  1.0000
  C   C42       1.0  0.42509  0.09515  0.13607  1.0000
  C   C43       1.0  0.38978  0.10547  0.12359  1.0000
  C   C44       1.0  0.41156  0.09570  0.12102  1.0000
  H   H47       1.0  0.39756  0.15531  0.15964  1.0000
  H   H48       1.0  0.39353  0.15067  0.18838  1.0000
  H   H49       1.0  0.41672  0.13664  0.17503  1.0000
  H   H50       1.0  0.35967  0.14758  0.16289  1.0000
  H   H51       1.0  0.35769  0.14120  0.19129  1.0000
  H   H52       1.0  0.35281  0.12132  0.17808  1.0000
  H   H53       1.0  0.38138  0.09378  0.19666  1.0000
  H   H54       1.0  0.38405  0.11473  0.21001  1.0000
  H   H55       1.0  0.42836  0.10437  0.16443  1.0000
  H   H56       1.0  0.36444  0.12220  0.14204  1.0000
  H   H57       1.0  0.44217  0.08799  0.13379  1.0000
  H   H58       1.0  0.37941  0.10601  0.11165  1.0000
  H   H59       1.0  0.41801  0.08884  0.10715  1.0000
  N   N4        1.0  0.42386  0.18647  0.04753  1.0000
  C   C45       1.0  0.40559  0.17745  0.06242  1.0000
  C   C46       1.0  0.41825  0.21071  0.04187  1.0000
  C   C47       1.0  0.42561  0.17834  0.02769  1.0000
  C   C48       1.0  0.44416  0.18028  0.05781  1.0000
  C   C49       1.0  0.44543  0.18770  0.07639  1.0000
  C   C50       1.0  0.46311  0.16704  0.04985  1.0000
  H   H60       1.0  0.39356  0.06898  0.23812  1.0000
  H   H61       1.0  0.28489  0.30388  0.01135  1.0000
  H   H62       1.0  0.04094  0.42272  0.23678  1.0000
  H   H63       1.0  0.27175  0.36716  0.06972  1.0000
  H   H64       1.0  0.39013  0.18157  0.05496  1.0000
  H   H65       1.0  0.40928  0.15925  0.06720  1.0000
  H   H66       1.0  0.41392  0.21813  0.05605  1.0000
  H   H67       1.0  0.40396  0.21607  0.03272  1.0000
  H   H68       1.0  0.43216  0.21813  0.03165  1.0000
  C   C51       1.0  0.39088  0.01357  0.08839  1.0000
  H   H69       1.0  0.41061  0.18429  0.01968  1.0000
  H   H70       1.0  0.43931  0.18413  0.01578  1.0000
  H   H71       1.0  0.43162  0.19757  0.08356  1.0000
  H   H72       1.0  0.46375  0.16055  0.03589  1.0000
  H   H73       1.0  0.43021  0.01898  0.00542  1.0000
  H   H74       1.0  0.09854  0.40011  0.12725  1.0000
  S   S15       1.0  0.49347  0.13278  0.20003  1.0000
  C   C52       1.0  0.45611  0.02464  0.02040  1.0000
  C   C53       1.0  0.06099  0.45674  0.08569  1.0000
  S   S16       1.0  0.44942  0.16263  0.15988  1.0000
  H   H75       1.0  0.40751  0.10103  0.19673  1.0000
  H   H76       1.0  0.09903  0.42634  0.06908  1.0000
  C   C54       1.0  0.04632  0.43734  0.12041  1.0000
  C   C55       1.0  0.46367  0.06383  0.18573  1.0000
  C   C56       1.0  0.38971  0.48870  0.00924  1.0000
  S   S17       1.0  0.28160  0.42598  0.08827  1.0000
  C   C57       1.0  0.44340  0.01146  0.01488  1.0000
  N   N5        1.0  0.29457  0.37335  0.04112  1.0000
  C   C58       1.0  0.27566  0.38079  0.05608  1.0000
  C   C59       1.0  0.31424  0.36840  0.05248  1.0000
  C   C60       1.0  0.29737  0.39163  0.02246  1.0000
  C   C61       1.0  0.29166  0.35414  0.03340  1.0000
  C   C62       1.0  0.27072  0.34847  0.03390  1.0000
  S   S18       1.0  0.17211  0.45767  0.08807  1.0000
  H   H77       1.0  0.46680  0.03992  0.14754  1.0000
  S   S19       1.0  0.05210  0.45077  0.04795  1.0000
  H   H78       1.0  0.31422  0.35287  0.06481  1.0000
  H   H79       1.0  0.31517  0.38155  0.06073  1.0000
  H   H80       1.0  0.32978  0.36720  0.04156  1.0000
  H   H81       1.0  0.44356  0.00307  0.16079  1.0000
  H   H82       1.0  0.30076  0.40625  0.02704  1.0000
  H   H83       1.0  0.36421  0.45650  0.01895  1.0000
  H   H84       1.0  0.28247  0.39688  0.01420  1.0000
  H   H85       1.0  0.25585  0.35774  0.04015  1.0000
  H   H86       1.0  0.26081  0.38788  0.04806  1.0000
  C   C63       1.0  0.10390  0.40299  0.10974  1.0000
  C   C64       1.0  0.13109  0.41654  0.08049  1.0000
  H   H87       1.0  0.11249  0.42937  0.03157  1.0000
  C   C65       1.0  0.44712  0.03100  0.19910  1.0000
  H   H88       1.0  0.42796  0.16016  0.03087  1.0000
  H   H89       1.0  0.16628  0.40976  0.08339  1.0000
  H   H90       1.0  0.41296  0.04085  0.10679  1.0000
  H   H91       1.0  0.18798  0.39913  0.00128  1.0000
  C   C66       1.0  0.12406  0.42473  0.04311  1.0000
  H   H92       1.0  0.39188  0.44843  0.05475  1.0000
  H   H93       1.0  0.17951  0.48364  0.99635  1.0000
  C   C67       1.0  0.46474  0.02134  0.21055  1.0000
  C   C68       1.0  0.47480  0.36099  0.99679  1.0000
  H   H94       1.0  0.45919  0.35617  0.00572  1.0000
  S   S20       1.0  0.22607  0.41941  0.07377  1.0000
  H   H95       1.0  0.38176  0.02652  0.21541  1.0000
  H   H96       1.0  0.38403  0.01441  0.07344  1.0000
  H   H97       1.0  0.17866  0.41334  0.04567  1.0000
  H   H98       1.0  0.13240  0.40237  0.13491  1.0000
  C   C69       1.0  0.00097  0.42270  0.04458  1.0000
  S   S21       1.0  0.20664  0.45689  0.03397  1.0000
  H   H99       1.0  0.46532  0.42770  0.00002  1.0000
  C   C70       1.0  0.03972  0.42813  0.08820  1.0000
  N   N6        1.0  0.12270  0.41531  0.10334  1.0000
  Fe  Fe13      1.0  0.25430  0.43802  0.06793  1.0000
  Fe  Fe14      1.0  0.22964  0.42512  0.03830  1.0000
  H   H100      1.0  0.12925  0.44690  0.10461  1.0000
  S   S22       1.0  0.44940  0.11188  0.19932  1.0000
  S   S23       1.0  0.23307  0.47079  0.06708  1.0000
  C   C71       1.0  0.13865  0.47552  0.06407  1.0000
  C   C72       1.0  0.48187  0.03285  0.20946  1.0000
  H   H101      1.0  0.32162  0.46337  0.00088  1.0000
  H   H102      1.0  0.46368  0.07999  0.17558  1.0000
  C   C73       1.0  0.13941  0.40432  0.11781  1.0000
  H   H103      1.0  0.43313  0.05957  0.17747  1.0000
  H   H104      1.0  0.10810  0.38676  0.10526  1.0000
  C   C74       1.0  0.14640  0.42125  0.03626  1.0000
  H   H105      1.0  0.39698  0.46016  0.99474  1.0000
  C   C75       1.0  0.46451  0.18237  0.08621  1.0000
  C   C76       1.0  0.34867  0.03815  0.21040  1.0000
  C   C77       1.0  0.48268  0.16914  0.07813  1.0000
  C   C78       1.0  0.48102  0.05431  0.19761  1.0000
  S   S24       1.0  0.22542  0.39998  0.02125  1.0000
  Fe  Fe15      1.0  0.01591  0.41288  0.16106  1.0000
  C   C79       1.0  0.42314  0.00615  0.10625  1.0000
  C   C80       1.0  0.19525  0.41348  0.99307  1.0000
  C   C81       1.0  0.32586  0.05630  0.23656  1.0000
  H   H106      1.0  0.01730  0.43210  0.22298  1.0000
  H   H107      1.0  0.44244  0.02246  0.06779  1.0000
  H   H108      1.0  0.01165  0.44726  0.01890  1.0000
  C   C82       1.0  0.36108  0.46871  0.02914  1.0000
  C   C83       1.0  0.00349  0.48337  0.08700  1.0000
  H   H109      1.0  0.01247  0.47228  0.09985  1.0000
  H   H110      1.0  0.00530  0.47268  0.19331  1.0000
  C   C84       1.0  0.42813  0.02394  0.13431  1.0000
  H   H111      1.0  0.31473  0.05154  0.20876  1.0000
  H   H112      1.0  0.47444  0.37814  0.99832  1.0000
  H   H113      1.0  0.11025  0.48920  0.04802  1.0000
  H   H114      1.0  0.48848  0.35051  0.00510  1.0000
  H   H115      1.0  0.41816  0.04185  0.07193  1.0000
  C   C85       1.0  0.48197  0.16149  0.06000  1.0000
  H   H116      1.0  0.01418  0.48212  0.07175  1.0000
  H   H117      1.0  0.27412  0.48447  0.03769  1.0000
  C   C86       1.0  0.49301  0.01623  0.10706  1.0000
  H   H118      1.0  0.45028  0.32933  0.99418  1.0000
  H   H119      1.0  0.37042  0.48058  0.06299  1.0000
  S   S25       1.0  0.35917  0.38306  0.00027  1.0000
  C   C87       1.0  0.36635  0.03468  0.22193  1.0000
  C   C88       1.0  0.32844  0.04889  0.21772  1.0000
  C   C89       1.0  0.21453  0.41689  0.99889  1.0000
  Fe  Fe16      1.0  0.47878  0.13542  0.23339  1.0000
  H   H120      1.0  0.47410  0.05405  0.12060  1.0000
  H   H121      1.0  0.40512  0.04747  0.22433  1.0000
  H   H122      1.0  0.35073  0.03245  0.19567  1.0000
  C   C90       1.0  0.49007  0.99840  0.09943  1.0000
  C   C91       1.0  0.48275  0.15503  0.99299  1.0000
  S   S26       1.0  0.00129  0.40609  0.19534  1.0000
  C   C92       1.0  0.47687  0.11476  0.11633  1.0000
  H   H123      1.0  0.99942  0.48236  0.00106  1.0000
  C   C93       1.0  0.37598  0.49029  0.04697  1.0000
  C   C94       1.0  0.09347  0.48320  0.13603  1.0000
  H   H124      1.0  0.01362  0.46873  0.23407  1.0000
  H   H125      1.0  0.45325  0.29150  0.99104  1.0000
  C   C95       1.0  0.47982  0.04804  0.13655  1.0000
  C   C96       1.0  0.47818  0.12872  0.14745  1.0000
  H   H126      1.0  0.23864  0.43830  0.99307  1.0000
  Fe  Fe17      1.0  0.48266  0.09993  0.20887  1.0000
  H   H127      1.0  0.48132  0.06289  0.14207  1.0000
  H   H128      1.0  0.48625  0.12816  0.16094  1.0000
  C   C97       1.0  0.02282  0.42427  0.23885  1.0000
  C   C98       1.0  0.99740  0.44028  0.02722  1.0000
  S   S27       1.0  0.48924  0.03094  0.03983  1.0000
  S   S28       1.0  0.49008  0.09145  0.04176  1.0000
  C   C99       1.0  0.48672  0.11403  0.13423  1.0000
  S   S29       1.0  0.48854  0.09603  0.10023  1.0000
  C   C100      1.0  0.12304  0.49269  0.05527  1.0000
  H   H129      1.0  0.20525  0.49298  0.99237  1.0000
  H   H130      1.0  0.49510  0.01976  0.16973  1.0000
  H   H131      1.0  0.12095  0.49185  0.11289  1.0000
  C   C101      1.0  0.02513  0.16286  0.43196  1.0000
  H   H132      1.0  0.23014  0.06746  0.33732  1.0000
  C   C102      1.0  0.39847  0.06898  0.30933  1.0000
  Fe  Fe18      1.0  0.05417  0.27183  0.45516  1.0000
  H   H133      1.0  0.41500  0.04801  0.24823  1.0000
  S   S30       1.0  0.05096  0.28562  0.42039  1.0000
  C   C103      1.0  0.12762  0.03250  0.46184  1.0000
  C   C104      1.0  0.02034  0.45860  0.24871  1.0000
  C   C105      1.0  0.36065  0.01107  0.47392  1.0000
  C   C106      1.0  0.02880  0.33705  0.25322  1.0000
  H   H134      1.0  0.40105  0.00915  0.24195  1.0000
  H   H135      1.0  0.48978  0.01245  0.27630  1.0000
  C   C107      1.0  0.39993  0.05114  0.24039  1.0000
  H   H136      1.0  0.26566  0.06316  0.41947  1.0000
  S   S31       1.0  0.21505  0.03310  0.40889  1.0000
  Fe  Fe19      1.0  0.02738  0.06735  0.45495  1.0000
  S   S32       1.0  0.03847  0.10004  0.44393  1.0000
  C   C108      1.0  0.38134  0.99855  0.47109  1.0000
  Fe  Fe20      1.0  0.07210  0.08124  0.44576  1.0000
  S   S33       1.0  0.10023  0.09084  0.42161  1.0000
  H   H137      1.0  0.15262  0.03715  0.42357  1.0000
  H   H138      1.0  0.48012  0.10119  0.29268  1.0000
  S   S34       1.0  0.06132  0.04843  0.45342  1.0000
  H   H139      1.0  0.03299  0.16020  0.41599  1.0000
  H   H140      1.0  0.11545  0.02377  0.47357  1.0000
  C   C109      1.0  0.27187  0.06648  0.36579  1.0000
  H   H141      1.0  0.06670  0.99779  0.45703  1.0000
  S   S35       1.0  0.00781  0.40014  0.34534  1.0000
  C   C110      1.0  0.47100  0.07202  0.31406  1.0000
  Fe  Fe21      1.0  0.38968  0.02143  0.34758  1.0000
  C   C111      1.0  0.43282  0.05359  0.29179  1.0000
  H   H142      1.0  0.01300  0.20587  0.42055  1.0000
  H   H143      1.0  0.00903  0.19333  0.39965  1.0000
  C   C112      1.0  0.00117  0.33447  0.42891  1.0000
  C   C113      1.0  0.42986  0.07007  0.27337  1.0000
  S   S36       1.0  0.23661  0.01261  0.31099  1.0000
  C   C114      1.0  0.46679  0.05126  0.37268  1.0000
  H   H144      1.0  0.06504  0.32597  0.44552  1.0000
  H   H145      1.0  0.45850  0.02426  0.43261  1.0000
  C   C115      1.0  0.07690  0.15631  0.47985  1.0000
  H   H146      1.0  0.03847  0.45660  0.24539  1.0000
  H   H147      1.0  0.42279  0.04067  0.37746  1.0000
  S   S37       1.0  0.40677  0.10606  0.24948  1.0000
  H   H148      1.0  0.33174  0.02743  0.45931  1.0000
  S   S38       1.0  0.42146  0.03280  0.33316  1.0000
  H   H149      1.0  0.38639  0.06883  0.32321  1.0000
  S   S39       1.0  0.19434  0.03370  0.35501  1.0000
  C   C116      1.0  0.34759  0.01750  0.45719  1.0000
  C   C117      1.0  0.10849  0.07292  0.40417  1.0000
  C   C118      1.0  0.13025  0.07014  0.39490  1.0000
  C   C119      1.0  0.10114  0.04587  0.38671  1.0000
  C   C120      1.0  0.09386  0.06088  0.40000  1.0000
  H   H150      1.0  0.14158  0.07949  0.39802  1.0000
  H   H151      1.0  0.08984  0.03652  0.38354  1.0000
  H   H152      1.0  0.07692  0.06327  0.40684  1.0000
  N   N7        1.0  0.46485  0.02991  0.38771  1.0000
  H   H153      1.0  0.03965  0.32399  0.24708  1.0000
  C   C121      1.0  0.34342  0.05279  0.24832  1.0000
  H   H154      1.0  0.01040  0.02406  0.41774  1.0000
  H   H155      1.0  0.48334  0.03498  0.25473  1.0000
  H   H156      1.0  0.28399  0.02737  0.41012  1.0000
  Fe  Fe22      1.0  0.34312  0.02842  0.33820  1.0000
  C   C122      1.0  0.01979  0.42527  0.27584  1.0000
  H   H157      1.0  0.40666  0.01070  0.26723  1.0000
  H   H158      1.0  0.34017  0.05886  0.26286  1.0000
  H   H159      1.0  0.01334  0.43443  0.28870  1.0000
  H   H160      1.0  0.20769  0.02621  0.45449  1.0000
  H   H161      1.0  0.11905  0.04246  0.44820  1.0000
  S   S40       1.0  0.02146  0.36150  0.30597  1.0000
  Fe  Fe23      1.0  0.20632  0.01597  0.38600  1.0000
  H   H162      1.0  0.46658  0.06433  0.38143  1.0000
  H   H163      1.0  0.48480  0.00713  0.40994  1.0000
  C   C123      1.0  0.37561  0.99854  0.43497  1.0000
  N   N8        1.0  0.05137  0.35755  0.45309  1.0000
  C   C124      1.0  0.03217  0.30987  0.41616  1.0000
  C   C125      1.0  0.03325  0.32422  0.39613  1.0000
  C   C126      1.0  0.01816  0.34361  0.39243  1.0000
  C   C127      1.0  0.28915  0.04388  0.29362  1.0000
  S   S41       1.0  0.02416  0.06729  0.48970  1.0000
  C   C128      1.0  0.01602  0.31492  0.43253  1.0000
  H   H164      1.0  0.04579  0.32039  0.38344  1.0000
  S   S42       1.0  0.07282  0.08230  0.47971  1.0000
  C   C129      1.0  0.27924  0.08498  0.32817  1.0000
  H   H165      1.0  0.16709  0.04191  0.44286  1.0000
  C   C130      1.0  0.04827  0.41225  0.46839  1.0000
  H   H166      1.0  0.38074  0.09746  0.29039  1.0000
  H   H167      1.0  0.08482  0.34289  0.44572  1.0000
  H   H168      1.0  0.29983  0.08128  0.38597  1.0000
  H   H169      1.0  0.01187  0.13457  0.41748  1.0000
  H   H170      1.0  0.29117  0.02606  0.38259  1.0000
  Fe  Fe24      1.0  0.16895  0.01148  0.36455  1.0000
  H   H171      1.0  0.26310  0.02915  0.39396  1.0000
  C   C131      1.0  0.05692  0.37486  0.46198  1.0000
  C   C132      1.0  0.27907  0.03420  0.39385  1.0000
  S   S43       1.0  0.33861  0.02024  0.41670  1.0000
  H   H172      1.0  0.44690  0.04089  0.29179  1.0000
  S   S44       1.0  0.35964  0.04357  0.35761  1.0000
  C   C133      1.0  0.13765  0.05469  0.38220  1.0000
  C   C134      1.0  0.48243  0.08341  0.29602  1.0000
  C   C135      1.0  0.16101  0.02889  0.43774  1.0000
  C   C136      1.0  0.03127  0.35029  0.46587  1.0000
  C   C137      1.0  0.28563  0.07751  0.34860  1.0000
  Fe  Fe25      1.0  0.05919  0.05082  0.48750  1.0000
  H   H173      1.0  0.29220  0.99976  0.26634  1.0000
  H   H174      1.0  0.39222  0.03996  0.28320  1.0000
  H   H175      1.0  0.06798  0.12669  0.47622  1.0000
  H   H176      1.0  0.48677  0.03574  0.40733  1.0000
  C   C138      1.0  0.41737  0.05325  0.30997  1.0000
  N   N9        1.0  0.00224  0.17438  0.43145  1.0000
  C   C139      1.0  0.35510  0.01140  0.43760  1.0000
  C   C140      1.0  0.29949  0.06333  0.39004  1.0000
  N   N10       1.0  0.01234  0.43715  0.25510  1.0000
  N   N11       1.0  0.27799  0.05833  0.38768  1.0000
  C   C141      1.0  0.29898  0.03878  0.31233  1.0000
  C   C142      1.0  0.39532  0.08527  0.29076  1.0000
  H   H177      1.0  0.15460  0.05228  0.37560  1.0000
  H   H178      1.0  0.03337  0.01657  0.44610  1.0000
  S   S45       1.0  0.04039  0.24193  0.47319  1.0000
  H   H179      1.0  0.44176  0.07001  0.25935  1.0000
  H   H180      1.0  0.45969  0.08090  0.32463  1.0000
  H   H181      1.0  0.29670  0.05352  0.27925  1.0000
  H   H182      1.0  0.36486  0.03503  0.28443  1.0000
  C   C143      1.0  0.40444  0.03871  0.42956  1.0000
  Fe  Fe26      1.0  0.03794  0.09877  0.47860  1.0000
  C   C144      1.0  0.44429  0.03219  0.40244  1.0000
  C   C145      1.0  0.01731  0.35764  0.28113  1.0000
  Fe  Fe27      1.0  0.35354  0.01447  0.38408  1.0000
  H   H183      1.0  0.31304  0.05518  0.37992  1.0000
  H   H184      1.0  0.30347  0.05719  0.40672  1.0000
  C   C146      1.0  0.02576  0.00335  0.44436  1.0000
  C   C147      1.0  0.41114  0.08600  0.27284  1.0000
  C   C148      1.0  0.28889  0.02674  0.33103  1.0000
  H   H185      1.0  0.17554  0.01766  0.43234  1.0000
  H   H186      1.0  0.27856  0.01541  0.47963  1.0000
  C   C149      1.0  0.07320  0.37050  0.47590  1.0000
  C   C150      1.0  0.37782  0.04391  0.27426  1.0000
  N   N12       1.0  0.08580  0.21834  0.41275  1.0000
  C   C151      1.0  0.08425  0.23663  0.39364  1.0000
  C   C152      1.0  0.06672  0.22300  0.42860  1.0000
  C   C153      1.0  0.10602  0.21861  0.42165  1.0000
  C   C154      1.0  0.08610  0.19653  0.40832  1.0000
  C   C155      1.0  0.08326  0.19353  0.38804  1.0000
  C   C156      1.0  0.08890  0.17739  0.42476  1.0000
  C   C157      1.0  0.08354  0.17258  0.38462  1.0000
  C   C158      1.0  0.08909  0.15656  0.42121  1.0000
  C   C159      1.0  0.08652  0.15414  0.40115  1.0000
  H   H187      1.0  0.09833  0.23435  0.38111  1.0000
  H   H188      1.0  0.06872  0.23845  0.38686  1.0000
  H   H189      1.0  0.08427  0.25272  0.39765  1.0000
  H   H190      1.0  0.05109  0.22316  0.42266  1.0000
  H   H191      1.0  0.06604  0.23924  0.43240  1.0000
  H   H192      1.0  0.06725  0.21076  0.44398  1.0000
  H   H193      1.0  0.12089  0.21362  0.41095  1.0000
  H   H194      1.0  0.10683  0.23516  0.42408  1.0000
  H   H195      1.0  0.10710  0.20750  0.43762  1.0000
  H   H196      1.0  0.08107  0.20705  0.37451  1.0000
  H   H197      1.0  0.09117  0.17846  0.44052  1.0000
  H   H198      1.0  0.08177  0.17053  0.36897  1.0000
  H   H199      1.0  0.09157  0.14212  0.43400  1.0000
  H   H200      1.0  0.08710  0.13786  0.39841  1.0000
  H   H201      1.0  0.29029  0.09273  0.31516  1.0000
  S   S46       1.0  0.37369  0.00856  0.32616  1.0000
  H   H202      1.0  0.08307  0.35461  0.48000  1.0000
  H   H203      1.0  0.00560  0.18667  0.45869  1.0000
  H   H204      1.0  0.46479  0.04025  0.33191  1.0000
  C   C160      1.0  0.12317  0.04248  0.37812  1.0000
  C   C161      1.0  0.25159  0.06328  0.36110  1.0000
  H   H205      1.0  0.05898  0.99438  0.39627  1.0000
  H   H206      1.0  0.01620  0.28912  0.38541  1.0000
  H   H207      1.0  0.03792  0.42227  0.27493  1.0000
  H   H208      1.0  0.07089  0.32884  0.47020  1.0000
  H   H209      1.0  0.48866  0.02029  0.30766  1.0000
  S   S47       1.0  0.47093  0.10127  0.24289  1.0000
  H   H210      1.0  0.01902  0.35462  0.37690  1.0000
  H   H211      1.0  0.12235  0.02283  0.42249  1.0000
  C   C162      1.0  0.25926  0.08146  0.32415  1.0000
  C   C163      1.0  0.13892  0.99976  0.44755  1.0000
  S   S48       1.0  0.32358  0.04804  0.31212  1.0000
  H   H212      1.0  0.25472  0.08661  0.30814  1.0000
  C   C164      1.0  0.32274  0.99881  0.27750  1.0000
  H   H213      1.0  0.24037  0.05481  0.37319  1.0000
  C   C165      1.0  0.25986  0.02372  0.31201  1.0000
  H   H214      1.0  0.03178  0.37766  0.42872  1.0000
  C   C166      1.0  0.06883  0.33809  0.45366  1.0000
  H   H215      1.0  0.01484  0.30369  0.44791  1.0000
  S   S49       1.0  0.33410  0.00123  0.36545  1.0000
  H   H216      1.0  0.24498  0.06365  0.40373  1.0000
  H   H217      1.0  0.45322  0.05672  0.36267  1.0000
  H   H218      1.0  0.10905  0.99552  0.40958  1.0000
  C   C167      1.0  0.03421  0.99419  0.48959  1.0000
  H   H219      1.0  0.13250  0.04448  0.46942  1.0000
  C   C168      1.0  0.07667  0.38655  0.48577  1.0000
  C   C169      1.0  0.44386  0.02909  0.42489  1.0000
  H   H220      1.0  0.03561  0.17231  0.43728  1.0000
  C   C170      1.0  0.03137  0.34105  0.27280  1.0000
  H   H221      1.0  0.04425  0.33107  0.28161  1.0000
  C   C171      1.0  0.24547  0.07062  0.34058  1.0000
  C   C172      1.0  0.42413  0.03225  0.43816  1.0000
  C   C173      1.0  0.26128  0.06839  0.40291  1.0000
  H   H222      1.0  0.38099  0.00358  0.26480  1.0000
  H   H223      1.0  0.00688  0.47982  0.42403  1.0000
  H   H224      1.0  0.03607  0.01129  0.48127  1.0000
  N   N13       1.0  0.14665  0.01678  0.45515  1.0000
  H   H225      1.0  0.25928  0.08660  0.39829  1.0000
  H   H226      1.0  0.30166  0.08015  0.35030  1.0000
  H   H227      1.0  0.06663  0.41951  0.49022  1.0000
  H   H228      1.0  0.35494  0.01616  0.48884  1.0000
  C   C174      1.0  0.22671  0.01263  0.42871  1.0000
  H   H229      1.0  0.04547  0.35258  0.42290  1.0000
  H   H230      1.0  0.09405  0.15157  0.47469  1.0000
  C   C175      1.0  0.21963  0.01283  0.45016  1.0000
  S   S50       1.0  0.13283  0.02201  0.36354  1.0000
  S   S51       1.0  0.17921  0.99607  0.39679  1.0000
  H   H231      1.0  0.01425  0.40897  0.28115  1.0000
  H   H232      1.0  0.48008  0.01070  0.36441  1.0000
  C   C176      1.0  0.15937  0.00776  0.47347  1.0000
  Fe  Fe28      1.0  0.21533  0.00583  0.34237  1.0000
  H   H233      1.0  0.26147  0.01037  0.34545  1.0000
  C   C177      1.0  0.47389  0.04924  0.31818  1.0000
  H   H234      1.0  0.06095  0.37416  0.42083  1.0000
  H   H235      1.0  0.29603  0.02341  0.34562  1.0000
  H   H236      1.0  0.01573  0.28651  0.35862  1.0000
  H   H237      1.0  0.14952  0.99856  0.48724  1.0000
  H   H238      1.0  0.38920  0.04106  0.43995  1.0000
  C   C178      1.0  0.04727  0.36596  0.43048  1.0000
  H   H239      1.0  0.02664  0.33662  0.46065  1.0000
  S   S52       1.0  0.00168  0.06091  0.43812  1.0000
  C   C179      1.0  0.48746  0.03789  0.30389  1.0000
  C   C180      1.0  0.12627  0.00586  0.43034  1.0000
  H   H240      1.0  0.02589  0.14679  0.44354  1.0000
  C   C181      1.0  0.26918  0.01951  0.33095  1.0000
  C   C182      1.0  0.40425  0.04141  0.40774  1.0000
  H   H241      1.0  0.01351  0.31312  0.36473  1.0000
  C   C183      1.0  0.00220  0.34876  0.40890  1.0000
  H   H242      1.0  0.17459  0.99673  0.46913  1.0000
  C   C184      1.0  0.48481  0.02331  0.39860  1.0000
  C   C185      1.0  0.26979  0.03609  0.29337  1.0000
  S   S53       1.0  0.08791  0.25823  0.46352  1.0000
  H   H243      1.0  0.26257  0.03953  0.27871  1.0000
  C   C186      1.0  0.39334  0.01435  0.25692  1.0000
  H   H244      1.0  0.37214  0.06182  0.27270  1.0000
  C   C187      1.0  0.42383  0.03823  0.39432  1.0000
  H   H245      1.0  0.01924  0.40715  0.24350  1.0000
  C   C188      1.0  0.06212  0.14206  0.48088  1.0000
  H   H246      1.0  0.38878  0.04581  0.40124  1.0000
  H   H247      1.0  0.45117  0.01749  0.36539  1.0000
  C   C189      1.0  0.46466  0.01311  0.37545  1.0000
  C   C190      1.0  0.00850  0.29661  0.37055  1.0000
  N   N14       1.0  0.38337  0.03786  0.25316  1.0000
  C   C191      1.0  0.04003  0.14766  0.48806  1.0000
  H   H248      1.0  0.03815  0.42825  0.46614  1.0000
  C   C192      1.0  0.99840  0.36679  0.24957  1.0000
  C   C193      1.0  0.00059  0.37043  0.26961  1.0000
  H   H249      1.0  0.42398  0.02947  0.45530  1.0000
  H   H250      1.0  0.01577  0.46827  0.26131  1.0000
  C   C194      1.0  0.06427  0.40737  0.48201  1.0000
  C   C195      1.0  0.01261  0.00782  0.42801  1.0000
  H   H251      1.0  0.11610  0.99476  0.34425  1.0000
  H   H252      1.0  0.16451  0.02092  0.47924  1.0000
  C   C196      1.0  0.24220  0.99535  0.42316  1.0000
  H   H253      1.0  0.00200  0.31860  0.33312  1.0000
  H   H254      1.0  0.32918  0.00926  0.26298  1.0000
  H   H255      1.0  0.24801  0.99529  0.40666  1.0000
  Fe  Fe29      1.0  0.07326  0.22941  0.48377  1.0000
  H   H256      1.0  0.48233  0.05050  0.36161  1.0000
  H   H257      1.0  0.46273  0.99697  0.38630  1.0000
  H   H258      1.0  0.01708  0.36378  0.46477  1.0000
  C   C197      1.0  0.04442  0.39622  0.45869  1.0000
  H   H259      1.0  0.03101  0.40049  0.44927  1.0000
  S   S54       1.0  0.08837  0.19495  0.48167  1.0000
  H   H260      1.0  0.03330  0.34458  0.48310  1.0000
  C   C198      1.0  0.36427  0.04167  0.24137  1.0000
  S   S55       1.0  0.04420  0.28946  0.48199  1.0000
  C   C199      1.0  0.06957  0.17673  0.48512  1.0000
  S   S56       1.0  0.02156  0.12955  0.48970  1.0000
  H   H261      1.0  0.31011  0.06479  0.24214  1.0000
  C   C200      1.0  0.00268  0.19570  0.41605  1.0000
  C   C201      1.0  0.22730  0.99522  0.46602  1.0000
  H   H262      1.0  0.22133  0.99515  0.48256  1.0000
  Fe  Fe30      1.0  0.99635  0.38251  0.32427  1.0000
  H   H263      1.0  0.38155  0.99364  0.42006  1.0000
  H   H264      1.0  0.35120  0.99520  0.29308  1.0000
  C   C202      1.0  0.01253  0.34999  0.24140  1.0000
  H   H265      1.0  0.44370  0.11519  0.60972  1.0000
  Fe  Fe31      1.0  0.03410  0.25790  0.50122  1.0000
  C   C203      1.0  0.41541  0.00611  0.73360  1.0000
  H   H266      1.0  0.13271  0.01540  0.57186  1.0000
  H   H267      1.0  0.14598  0.03738  0.58996  1.0000
  C   C204      1.0  0.00033  0.38576  0.63525  1.0000
  C   C205      1.0  0.29034  0.99928  0.56598  1.0000
  S   S57       1.0  0.30871  0.01828  0.55843  1.0000
  Fe  Fe32      1.0  0.02304  0.38031  0.54457  1.0000
  S   S58       1.0  0.05815  0.36845  0.54909  1.0000
  H   H268      1.0  0.46475  0.06593  0.62726  1.0000
  H   H269      1.0  0.39825  0.03259  0.71193  1.0000
  H   H270      1.0  0.38332  0.09994  0.59976  1.0000
  H   H271      1.0  0.46919  0.10918  0.54000  1.0000
  C   C206      1.0  0.41234  0.10865  0.60649  1.0000
  C   C207      1.0  0.16252  0.03087  0.58279  1.0000
  C   C208      1.0  0.40030  0.10155  0.59411  1.0000
  H   H272      1.0  0.47367  0.08642  0.52732  1.0000
  Fe  Fe33      1.0  0.46377  0.06381  0.67160  1.0000
  S   S59       1.0  0.46124  0.06757  0.70518  1.0000
  C   C209      1.0  0.13182  0.99722  0.52736  1.0000
  Fe  Fe34      1.0  0.41477  0.07411  0.67092  1.0000
  S   S60       1.0  0.40778  0.07905  0.70464  1.0000
  S   S61       1.0  0.38695  0.07390  0.65297  1.0000
  Fe  Fe35      1.0  0.43643  0.09716  0.69597  1.0000
  S   S62       1.0  0.43989  0.12452  0.71106  1.0000
  Fe  Fe36      1.0  0.43310  0.04952  0.71161  1.0000
  H   H273      1.0  0.31728  0.01971  0.62921  1.0000
  S   S63       1.0  0.44135  0.09534  0.66117  1.0000
  S   S64       1.0  0.43768  0.04269  0.67894  1.0000
  H   H274      1.0  0.02616  0.34259  0.61252  1.0000
  Fe  Fe37      1.0  0.38396  0.99366  0.52466  1.0000
  S   S65       1.0  0.41168  0.02550  0.57587  1.0000
  C   C210      1.0  0.11031  0.99811  0.52343  1.0000
  C   C211      1.0  0.40245  0.99581  0.64934  1.0000
  H   H275      1.0  0.00666  0.26411  0.58859  1.0000
  C   C212      1.0  0.47864  0.05633  0.61983  1.0000
  C   C213      1.0  0.30532  0.00312  0.51004  1.0000
  H   H276      1.0  0.42205  0.00331  0.66972  1.0000
  H   H277      1.0  0.15541  0.01164  0.62519  1.0000
  H   H278      1.0  0.43904  0.10048  0.51409  1.0000
  N   N15       1.0  0.01583  0.28988  0.56228  1.0000
  H   H279      1.0  0.00046  0.26190  0.56330  1.0000
  H   H280      1.0  0.45929  0.99787  0.70430  1.0000
  H   H281      1.0  0.01794  0.38309  0.63442  1.0000
  H   H282      1.0  0.40467  0.11257  0.62159  1.0000
  C   C214      1.0  0.13652  0.99910  0.58146  1.0000
  H   H283      1.0  0.02577  0.42715  0.70280  1.0000
  C   C215      1.0  0.47855  0.05329  0.59925  1.0000
  H   H284      1.0  0.31813  0.99394  0.52010  1.0000
  H   H285      1.0  0.26323  0.02339  0.55517  1.0000
  H   H286      1.0  0.02714  0.38670  0.70981  1.0000
  C   C216      1.0  0.04267  0.42415  0.69465  1.0000
  H   H287      1.0  0.41398  0.10242  0.53148  1.0000
  C   C217      1.0  0.47492  0.99500  0.69371  1.0000
  H   H288      1.0  0.42337  0.06479  0.54983  1.0000
  S   S66       1.0  0.09927  0.29227  0.50118  1.0000
  H   H289      1.0  0.47907  0.00511  0.61548  1.0000
  H   H290      1.0  0.19087  0.00053  0.56594  1.0000
  C   C218      1.0  0.10563  0.03771  0.51501  1.0000
  C   C219      1.0  0.49293  0.01195  0.71388  1.0000
  S   S67       1.0  0.01493  0.46518  0.72269  1.0000
  C   C220      1.0  0.40408  0.03741  0.59837  1.0000
  C   C221      1.0  0.42055  0.04208  0.60789  1.0000
  C   C222      1.0  0.41538  0.05236  0.62522  1.0000
  C   C223      1.0  0.39359  0.05857  0.63294  1.0000
  C   C224      1.0  0.37697  0.05372  0.62364  1.0000
  C   C225      1.0  0.38220  0.04296  0.60648  1.0000
  H   H291      1.0  0.43744  0.03771  0.60194  1.0000
  H   H292      1.0  0.42825  0.05613  0.63217  1.0000
  H   H293      1.0  0.36005  0.05857  0.62951  1.0000
  H   H294      1.0  0.36935  0.03947  0.59925  1.0000
  C   C226      1.0  0.01915  0.30330  0.57685  1.0000
  H   H295      1.0  0.18182  0.02019  0.61693  1.0000
  C   C227      1.0  0.02431  0.33142  0.60297  1.0000
  H   H296      1.0  0.08772  0.38600  0.70393  1.0000
  H   H297      1.0  0.04740  0.28796  0.54284  1.0000
  C   C228      1.0  0.03955  0.31011  0.57631  1.0000
  N   N16       1.0  0.16975  0.00783  0.59367  1.0000
  C   C229      1.0  0.43435  0.10999  0.59980  1.0000
  H   H298      1.0  0.05457  0.31473  0.50781  1.0000
  H   H299      1.0  0.46445  0.06040  0.59110  1.0000
  H   H300      1.0  0.05323  0.36890  0.71132  1.0000
  H   H301      1.0  0.09553  0.05337  0.51070  1.0000
  C   C230      1.0  0.05472  0.40433  0.72845  1.0000
  H   H302      1.0  0.38729  0.00013  0.65909  1.0000
  S   S68       1.0  0.00384  0.40906  0.55688  1.0000
  C   C231      1.0  0.04198  0.32391  0.58923  1.0000
  C   C232      1.0  0.06920  0.34745  0.53556  1.0000
  C   C233      1.0  0.09148  0.33915  0.53497  1.0000
  C   C234      1.0  0.10052  0.32224  0.52431  1.0000
  C   C235      1.0  0.08726  0.31327  0.51457  1.0000
  C   C236      1.0  0.06491  0.32151  0.51526  1.0000
  C   C237      1.0  0.05593  0.33880  0.52552  1.0000
  H   H303      1.0  0.10178  0.34585  0.54268  1.0000
  H   H304      1.0  0.11782  0.31598  0.52376  1.0000
  H   H305      1.0  0.03876  0.34540  0.52578  1.0000
  H   H306      1.0  0.01561  0.17236  0.49947  1.0000
  H   H307      1.0  0.20352  0.01137  0.58302  1.0000
  C   C238      1.0  0.07769  0.40078  0.69520  1.0000
  H   H308      1.0  0.04575  0.26727  0.56722  1.0000
  H   H309      1.0  0.44730  0.05592  0.56302  1.0000
  C   C239      1.0  0.40142  0.01507  0.71797  1.0000
  S   S69       1.0  0.16771  0.01612  0.52731  1.0000
  S   S70       1.0  0.36984  0.02392  0.53719  1.0000
  H   H310      1.0  0.04165  0.19794  0.49688  1.0000
  H   H311      1.0  0.13352  0.05189  0.51700  1.0000
  H   H312      1.0  0.47595  0.08142  0.55494  1.0000
  C   C240      1.0  0.04478  0.38508  0.70336  1.0000
  H   H313      1.0  0.07841  0.39898  0.67849  1.0000
  H   H314      1.0  0.44952  0.06092  0.53460  1.0000
  C   C241      1.0  0.12708  0.03684  0.51887  1.0000
  Fe  Fe38      1.0  0.34439  0.00401  0.55647  1.0000
  C   C242      1.0  0.32510  0.00321  0.63550  1.0000
  N   N17       1.0  0.05487  0.40345  0.70590  1.0000
  C   C243      1.0  0.17177  0.00786  0.61606  1.0000
  H   H315      1.0  0.34003  0.01278  0.65848  1.0000
  H   H316      1.0  0.40038  0.08924  0.56659  1.0000
  C   C244      1.0  0.43268  0.09661  0.56780  1.0000
  C   C245      1.0  0.03656  0.27724  0.55401  1.0000
  H   H317      1.0  0.05380  0.30556  0.56559  1.0000
  H   H318      1.0  0.45655  0.01103  0.58551  1.0000
  H   H319      1.0  0.04140  0.42381  0.67788  1.0000
  C   C246      1.0  0.44063  0.06707  0.54877  1.0000
  H   H320      1.0  0.01641  0.31689  0.53504  1.0000
  S   S71       1.0  0.99989  0.39063  0.67614  1.0000
  N   N18       1.0  0.44280  0.09015  0.54755  1.0000
  C   C247      1.0  0.39228  0.00128  0.70930  1.0000
  H   H321      1.0  0.04532  0.38468  0.68626  1.0000
  H   H322      1.0  0.45633  0.99523  0.64789  1.0000
  H   H323      1.0  0.08580  0.41512  0.69419  1.0000
  C   C248      1.0  0.14032  0.01662  0.52464  1.0000
  H   H324      1.0  0.46158  0.10551  0.57664  1.0000
  C   C249      1.0  0.09732  0.01840  0.51683  1.0000
  C   C250      1.0  0.41029  0.09541  0.57516  1.0000
  Fe  Fe39      1.0  0.38897  0.00831  0.56472  1.0000
  H   H325      1.0  0.38242  0.00819  0.69643  1.0000
  S   S72       1.0  0.06605  0.24311  0.51326  1.0000
  S   S73       1.0  0.01399  0.39267  0.51166  1.0000
  C   C251      1.0  0.04739  0.18251  0.49215  1.0000
  H   H326      1.0  0.43192  0.12199  0.52879  1.0000
  C   C252      1.0  0.46639  0.09199  0.54227  1.0000
  C   C253      1.0  0.43145  0.10438  0.52971  1.0000
  H   H327      1.0  0.17385  0.04197  0.58378  1.0000
  Fe  Fe40      1.0  0.07701  0.27355  0.49186  1.0000
  H   H328      1.0  0.05752  0.32950  0.58799  1.0000
  H   H329      1.0  0.05022  0.43870  0.69424  1.0000
  C   C254      1.0  0.00108  0.27374  0.57321  1.0000
  C   C255      1.0  0.44444  0.10427  0.58067  1.0000
  H   H330      1.0  0.00308  0.29545  0.53226  1.0000
  C   C256      1.0  0.26854  0.00637  0.56225  1.0000
  H   H331      1.0  0.29350  0.01261  0.52044  1.0000
  H   H332      1.0  0.16221  0.03240  0.56543  1.0000
  H   H333      1.0  0.03361  0.26587  0.54457  1.0000
  H   H334      1.0  0.00072  0.38224  0.60300  1.0000
  C   C257      1.0  0.03266  0.16794  0.49372  1.0000
  H   H335      1.0  0.26366  0.00953  0.50583  1.0000
  H   H336      1.0  0.01661  0.99394  0.49561  1.0000
  C   C258      1.0  0.00582  0.30462  0.54387  1.0000
  H   H337      1.0  0.47514  0.00897  0.67962  1.0000
  S   S74       1.0  0.00179  0.25454  0.52067  1.0000
  H   H338      1.0  0.07213  0.43239  0.72118  1.0000
  C   C259      1.0  0.42213  0.99780  0.65522  1.0000
  H   H339      1.0  0.47667  0.01650  0.72272  1.0000
  C   C260      1.0  0.00138  0.31152  0.59087  1.0000
  C   C261      1.0  0.33794  0.99928  0.65193  1.0000
  S   S75       1.0  0.49516  0.03674  0.56391  1.0000
  S   S76       1.0  0.99677  0.35939  0.55537  1.0000
  C   C262      1.0  0.00405  0.32522  0.60382  1.0000
  S   S77       1.0  0.07126  0.01939  0.50983  1.0000
  H   H340      1.0  0.08858  0.38257  0.49699  1.0000
  C   C263      1.0  0.19164  0.00049  0.58291  1.0000
  H   H341      1.0  0.31295  0.01514  0.49689  1.0000
  C   C264      1.0  0.27460  0.00193  0.49339  1.0000
  H   H342      1.0  0.23704  0.99703  0.56398  1.0000
  C   C265      1.0  0.06490  0.42020  0.73353  1.0000
  C   C266      1.0  0.43202  0.11957  0.73886  1.0000
  H   H343      1.0  0.40636  0.10167  0.73847  1.0000
  C   C267      1.0  0.28182  0.44502  0.95097  1.0000
  H   H344      1.0  0.28051  0.43213  0.89085  1.0000
  C   C268      1.0  0.48506  0.43396  0.96948  1.0000
  H   H345      1.0  0.03562  0.37781  0.74369  1.0000
  H   H346      1.0  0.26309  0.35714  0.94013  1.0000
  H   H347      1.0  0.44588  0.10153  0.96513  1.0000
  H   H348      1.0  0.27381  0.40079  0.97640  1.0000
  C   C269      1.0  0.34804  0.32162  0.97008  1.0000
  Fe  Fe41      1.0  0.35058  0.41092  0.97289  1.0000
  C   C270      1.0  0.02660  0.45077  0.79254  1.0000
  S   S78       1.0  0.31452  0.41720  0.97063  1.0000
  C   C271      1.0  0.40610  0.99459  0.96650  1.0000
  S   S79       1.0  0.37916  0.39999  0.95007  1.0000
  H   H349      1.0  0.48317  0.33371  0.90809  1.0000
  H   H350      1.0  0.26612  0.34671  0.96793  1.0000
  S   S80       1.0  0.37751  0.23833  0.95318  1.0000
  H   H351      1.0  0.27128  0.43945  0.96537  1.0000
  C   C272      1.0  0.44403  0.32559  0.89516  1.0000
  Fe  Fe42      1.0  0.36447  0.20698  0.95741  1.0000
  S   S81       1.0  0.36437  0.19501  0.92755  1.0000
  C   C273      1.0  0.40841  0.10448  0.77037  1.0000
  H   H352      1.0  0.46696  0.18018  0.96942  1.0000
  C   C274      1.0  0.41888  0.20713  0.77853  1.0000
  C   C275      1.0  0.40622  0.17235  0.78856  1.0000
  H   H353      1.0  0.47967  0.12523  0.91137  1.0000
  H   H354      1.0  0.40576  0.15649  0.80042  1.0000
  H   H355      1.0  0.49446  0.24189  0.94501  1.0000
  S   S82       1.0  0.47085  0.17158  0.83770  1.0000
  S   S83       1.0  0.46840  0.11442  0.82180  1.0000
  H   H356      1.0  0.47401  0.09140  0.92631  1.0000
  Fe  Fe43      1.0  0.43854  0.10861  0.87965  1.0000
  S   S84       1.0  0.42848  0.13647  0.85299  1.0000
  S   S85       1.0  0.42497  0.10660  0.91429  1.0000
  Fe  Fe44      1.0  0.43327  0.11155  0.83289  1.0000
  C   C276      1.0  0.49320  0.12010  0.94133  1.0000
  Fe  Fe45      1.0  0.46444  0.13688  0.84443  1.0000
  C   C277      1.0  0.06538  0.42112  0.75467  1.0000
  S   S86       1.0  0.43943  0.08341  0.86060  1.0000
  H   H357      1.0  0.48628  0.40149  0.90152  1.0000
  S   S87       1.0  0.27526  0.48829  0.89461  1.0000
  H   H358      1.0  0.40497  0.00383  0.97873  1.0000
  N   N19       1.0  0.47758  0.35936  0.97411  1.0000
  H   H359      1.0  0.47030  0.02219  0.79800  1.0000
  C   C278      1.0  0.03694  0.46648  0.77735  1.0000
  S   S88       1.0  0.17885  0.46956  0.95043  1.0000
  C   C279      1.0  0.47989  0.33620  0.97246  1.0000
  H   H360      1.0  0.15923  0.46769  0.86441  1.0000
  H   H361      1.0  0.41957  0.27317  0.86812  1.0000
  C   C280      1.0  0.38328  0.19125  0.84768  1.0000
  C   C281      1.0  0.12202  0.46649  0.94747  1.0000
  C   C282      1.0  0.40488  0.48849  0.97193  1.0000
  C   C283      1.0  0.46542  0.43136  0.98290  1.0000
  C   C284      1.0  0.42254  0.20318  0.82532  1.0000
  H   H362      1.0  0.47640  0.07927  0.98308  1.0000
  C   C285      1.0  0.37960  0.16932  0.92515  1.0000
  C   C286      1.0  0.38172  0.16305  0.90568  1.0000
  C   C287      1.0  0.39526  0.14364  0.90241  1.0000
  C   C288      1.0  0.40653  0.13012  0.91876  1.0000
  C   C289      1.0  0.40338  0.13571  0.93871  1.0000
  C   C290      1.0  0.39017  0.15541  0.94182  1.0000
  H   H363      1.0  0.37279  0.17326  0.89313  1.0000
  H   H364      1.0  0.39647  0.13890  0.88742  1.0000
  H   H365      1.0  0.41113  0.12490  0.95181  1.0000
  H   H366      1.0  0.38800  0.15963  0.95717  1.0000
  C   C291      1.0  0.44183  0.23895  0.96536  1.0000
  C   C292      1.0  0.46449  0.23529  0.96409  1.0000
  S   S89       1.0  0.06204  0.46012  0.85957  1.0000
  C   C293      1.0  0.46686  0.25967  0.92923  1.0000
  C   C294      1.0  0.44408  0.26403  0.93078  1.0000
  C   C295      1.0  0.43152  0.25364  0.94891  1.0000
  C   C296      1.0  0.27287  0.46046  0.93413  1.0000
  H   H367      1.0  0.43613  0.27493  0.91785  1.0000
  H   H368      1.0  0.41398  0.25715  0.95017  1.0000
  H   H369      1.0  0.47458  0.09047  0.77915  1.0000
  H   H370      1.0  0.38961  0.20611  0.87195  1.0000
  S   S90       1.0  0.11907  0.47369  0.84713  1.0000
  H   H371      1.0  0.43327  0.30698  0.93775  1.0000
  H   H372      1.0  0.43816  0.06367  0.78001  1.0000
  H   H373      1.0  0.38918  0.18063  0.78669  1.0000
  H   H374      1.0  0.40591  0.06568  0.84157  1.0000
  H   H375      1.0  0.45460  0.04591  0.76392  1.0000
  H   H376      1.0  0.29484  0.40110  0.91721  1.0000
  C   C297      1.0  0.45122  0.35443  0.91022  1.0000
  H   H377      1.0  0.46145  0.31774  0.89329  1.0000
  H   H378      1.0  0.30038  0.36596  0.93680  1.0000
  C   C298      1.0  0.23420  0.42762  0.92555  1.0000
  H   H379      1.0  0.21742  0.43574  0.92776  1.0000
  H   H380      1.0  0.45081  0.04111  0.81104  1.0000
  H   H381      1.0  0.37848  0.03484  0.79583  1.0000
  C   C299      1.0  0.44206  0.17475  0.79480  1.0000
  C   C300      1.0  0.48617  0.09246  0.97478  1.0000
  H   H382      1.0  0.23059  0.40422  0.95477  1.0000
  C   C301      1.0  0.24199  0.40966  0.94102  1.0000
  Fe  Fe46      1.0  0.34914  0.24724  0.97688  1.0000
  H   H383      1.0  0.44103  0.33766  0.88002  1.0000
  H   H384      1.0  0.44294  0.36502  0.97227  1.0000
  C   C302      1.0  0.08399  0.45604  0.97375  1.0000
  C   C303      1.0  0.00785  0.44498  0.76504  1.0000
  C   C304      1.0  0.01189  0.44018  0.78638  1.0000
  C   C305      1.0  0.26970  0.42545  0.90470  1.0000
  H   H385      1.0  0.39153  0.02008  0.77580  1.0000
  H   H386      1.0  0.43427  0.31226  0.89688  1.0000
  H   H387      1.0  0.13687  0.47110  0.93790  1.0000
  C   C306      1.0  0.46845  0.01318  0.89378  1.0000
  C   C307      1.0  0.31770  0.44432  0.93056  1.0000
  C   C308      1.0  0.30423  0.43705  0.94931  1.0000
  C   C309      1.0  0.46541  0.44134  0.93871  1.0000
  H   H388      1.0  0.30535  0.38542  0.95095  1.0000
  H   H389      1.0  0.33500  0.43804  0.92910  1.0000
  S   S91       1.0  0.40878  0.39437  0.98923  1.0000
  C   C310      1.0  0.45802  0.37180  0.96438  1.0000
  H   H390      1.0  0.43709  0.01285  0.78625  1.0000
  H   H391      1.0  0.00384  0.42799  0.79801  1.0000
  S   S92       1.0  0.33410  0.21736  0.97859  1.0000
  C   C311      1.0  0.49353  0.17593  0.84765  1.0000
  C   C312      1.0  0.41067  0.01863  0.82300  1.0000
  C   C313      1.0  0.40516  0.04110  0.82411  1.0000
  C   C314      1.0  0.42140  0.00420  0.83981  1.0000
  C   C315      1.0  0.41025  0.04846  0.84102  1.0000
  C   C316      1.0  0.42645  0.01176  0.85655  1.0000
  C   C317      1.0  0.42093  0.03384  0.85715  1.0000
  H   H392      1.0  0.44503  0.13018  0.78379  1.0000
  H   H393      1.0  0.41919  0.01934  0.94140  1.0000
  C   C318      1.0  0.08540  0.45795  0.95172  1.0000
  C   C319      1.0  0.46559  0.30123  0.98219  1.0000
  C   C320      1.0  0.44414  0.31972  0.93313  1.0000
  H   H394      1.0  0.01342  0.44714  0.86283  1.0000
  C   C321      1.0  0.41426  0.00326  0.94556  1.0000
  H   H395      1.0  0.44588  0.41008  0.90620  1.0000
  H   H396      1.0  0.07269  0.46934  0.91033  1.0000
  H   H397      1.0  0.47020  0.22620  0.89620  1.0000
  C   C322      1.0  0.47443  0.35017  0.90765  1.0000
  H   H398      1.0  0.42331  0.99756  0.91385  1.0000
  H   H399      1.0  0.12831  0.43454  0.91592  1.0000
  C   C323      1.0  0.04443  0.38992  0.74588  1.0000
  C   C324      1.0  0.26036  0.36161  0.95598  1.0000
  S   S93       1.0  0.03285  0.44302  0.81896  1.0000
  H   H400      1.0  0.39699  0.05339  0.81216  1.0000
  H   H401      1.0  0.44243  0.32755  0.94695  1.0000
  H   H402      1.0  0.31902  0.46509  0.89895  1.0000
  Fe  Fe47      1.0  0.04561  0.46854  0.83004  1.0000
  H   H403      1.0  0.09114  0.45954  0.88977  1.0000
  H   H404      1.0  0.47875  0.18965  0.90723  1.0000
  H   H405      1.0  0.47861  0.47952  0.96753  1.0000
  H   H406      1.0  0.45369  0.18507  0.79671  1.0000
  H   H407      1.0  0.40764  0.29416  0.97771  1.0000
  H   H408      1.0  0.44329  0.15999  0.80805  1.0000
  H   H409      1.0  0.48343  0.27550  0.96710  1.0000
  H   H410      1.0  0.41326  0.16816  0.77292  1.0000
  C   C325      1.0  0.27775  0.40761  0.92015  1.0000
  C   C326      1.0  0.41498  0.10772  0.74829  1.0000
  C   C327      1.0  0.41922  0.11253  0.78328  1.0000
  C   C328      1.0  0.42662  0.00028  0.79434  1.0000
  C   C329      1.0  0.48806  0.03211  0.86138  1.0000
  N   N20       1.0  0.10675  0.46536  0.91453  1.0000
  H   H411      1.0  0.45441  0.12715  0.96428  1.0000
  S   S94       1.0  0.43041  0.02298  0.74087  1.0000
  S   S95       1.0  0.02394  0.48406  0.90363  1.0000
  H   H412      1.0  0.12831  0.45191  0.88972  1.0000
  C   C330      1.0  0.48178  0.08561  0.94126  1.0000
  H   H413      1.0  0.22054  0.46570  0.96511  1.0000
  Fe  Fe48      1.0  0.39367  0.22145  0.98210  1.0000
  H   H414      1.0  0.46545  0.44542  0.92159  1.0000
  C   C331      1.0  0.45383  0.39332  0.90635  1.0000
  C   C332      1.0  0.05545  0.40657  0.77135  1.0000
  C   C333      1.0  0.22379  0.43555  0.98850  1.0000
  C   C334      1.0  0.24803  0.43546  0.90741  1.0000
  S   S96       1.0  0.48302  0.27143  0.90643  1.0000
  H   H415      1.0  0.42493  0.03961  0.87018  1.0000
  H   H416      1.0  0.37612  0.99968  0.82268  1.0000
  C   C335      1.0  0.44592  0.43330  0.97425  1.0000
  H   H417      1.0  0.42463  0.20402  0.76224  1.0000
  H   H418      1.0  0.25552  0.46597  0.93546  1.0000
  H   H419      1.0  0.24944  0.38867  0.98224  1.0000
  C   C336      1.0  0.47509  0.03253  0.88097  1.0000
  N   N21       1.0  0.43852  0.33624  0.91367  1.0000
  C   C337      1.0  0.28624  0.46804  0.91545  1.0000
  H   H420      1.0  0.39220  0.24884  0.88544  1.0000
  H   H421      1.0  0.45544  0.38941  0.96512  1.0000
  C   C338      1.0  0.44274  0.12777  0.75178  1.0000
  Fe  Fe49      1.0  0.38916  0.37427  0.97839  1.0000
  H   H422      1.0  0.42374  0.38153  0.91150  1.0000
  H   H423      1.0  0.24215  0.44965  0.89562  1.0000
  H   H424      1.0  0.38074  0.17693  0.82234  1.0000
  C   C339      1.0  0.46730  0.18973  0.92222  1.0000
  H   H425      1.0  0.39487  0.09577  0.77742  1.0000
  N   N22       1.0  0.41922  0.18641  0.79493  1.0000
  N   N23       1.0  0.44413  0.19397  0.91819  1.0000
  C   C340      1.0  0.10733  0.48870  0.90411  1.0000
  C   C341      1.0  0.43041  0.19186  0.93927  1.0000
  C   C342      1.0  0.44085  0.17679  0.90771  1.0000
  C   C343      1.0  0.43778  0.21580  0.90450  1.0000
  C   C344      1.0  0.45306  0.23011  0.89423  1.0000
  C   C345      1.0  0.41573  0.22309  0.90062  1.0000
  C   C346      1.0  0.44646  0.25048  0.88120  1.0000
  C   C347      1.0  0.40926  0.24357  0.88773  1.0000
  C   C348      1.0  0.42461  0.25725  0.87803  1.0000
  C   C349      1.0  0.47697  0.24533  0.94592  1.0000
  Fe  Fe50      1.0  0.47448  0.08711  0.85044  1.0000
  C   C350      1.0  0.21345  0.45119  0.97272  1.0000
  H   H426      1.0  0.43146  0.20532  0.94707  1.0000
  H   H427      1.0  0.43549  0.17606  0.95040  1.0000
  H   H428      1.0  0.41289  0.19232  0.93813  1.0000
  H   H429      1.0  0.45083  0.17788  0.89174  1.0000
  H   H430      1.0  0.44537  0.16005  0.91745  1.0000
  H   H431      1.0  0.42351  0.17818  0.90522  1.0000
  C   C351      1.0  0.10468  0.46294  0.93792  1.0000
  H   H432      1.0  0.40324  0.21301  0.90762  1.0000
  C   C352      1.0  0.01860  0.46028  0.74974  1.0000
  C   C353      1.0  0.29574  0.37218  0.95174  1.0000
  H   H433      1.0  0.47719  0.20642  0.85566  1.0000
  C   C354      1.0  0.29872  0.47822  0.97853  1.0000
  Fe  Fe51      1.0  0.39695  0.42094  0.96246  1.0000
  H   H434      1.0  0.30123  0.35843  0.96488  1.0000
  H   H435      1.0  0.40914  0.35101  0.93046  1.0000
  C   C355      1.0  0.26408  0.39916  0.93888  1.0000
  H   H436      1.0  0.43786  0.20817  0.81734  1.0000
  C   C356      1.0  0.12724  0.45189  0.90697  1.0000
  C   C357      1.0  0.37541  0.28913  0.97485  1.0000
  H   H437      1.0  0.24241  0.36573  0.96027  1.0000
  C   C358      1.0  0.48684  0.36701  0.90444  1.0000
  C   C359      1.0  0.45665  0.11349  0.95586  1.0000
  N   N24       1.0  0.27189  0.38004  0.95543  1.0000
  C   C360      1.0  0.43657  0.12398  0.77397  1.0000
  H   H438      1.0  0.47148  0.17348  0.93299  1.0000
  H   H439      1.0  0.47245  0.22421  0.97698  1.0000
  H   H440      1.0  0.47075  0.20225  0.93007  1.0000
  S   S97       1.0  0.41049  0.10814  0.81091  1.0000
  C   C361      1.0  0.26718  0.38572  0.97668  1.0000
  S   S98       1.0  0.42186  0.43992  0.94088  1.0000
  S   S99       1.0  0.38374  0.18903  0.98415  1.0000
  H   H441      1.0  0.40207  0.21664  0.77841  1.0000
  S   S100      1.0  0.47446  0.10996  0.87199  1.0000
  H   H442      1.0  0.45882  0.01357  0.90911  1.0000
  H   H443      1.0  0.45495  0.08089  0.80134  1.0000
  C   C362      1.0  0.48242  0.29227  0.96855  1.0000
  H   H444      1.0  0.43085  0.43139  0.98473  1.0000
  H   H445      1.0  0.42965  0.21784  0.78140  1.0000
  H   H446      1.0  0.05534  0.40780  0.78770  1.0000
  H   H447      1.0  0.47064  0.04768  0.88649  1.0000
  C   C363      1.0  0.30863  0.45958  0.91352  1.0000
  H   H448      1.0  0.44836  0.16938  0.77958  1.0000
  H   H449      1.0  0.36798  0.18668  0.85639  1.0000
  H   H450      1.0  0.40539  0.32922  0.91945  1.0000
  S   S101      1.0  0.33379  0.28282  0.97262  1.0000
  H   H451      1.0  0.42468  0.21645  0.85222  1.0000
  C   C364      1.0  0.39542  0.20226  0.85644  1.0000
  H   H452      1.0  0.45595  0.13691  0.74457  1.0000
  C   C365      1.0  0.46419  0.32290  0.98404  1.0000
  C   C366      1.0  0.41505  0.20816  0.84530  1.0000
  C   C367      1.0  0.49447  0.05087  0.77321  1.0000
  C   C368      1.0  0.41447  0.34333  0.91642  1.0000
  C   C369      1.0  0.19348  0.44856  0.96779  1.0000
  C   C370      1.0  0.47657  0.38853  0.90382  1.0000
  C   C371      1.0  0.44593  0.43804  0.95212  1.0000
  C   C372      1.0  0.41087  0.19152  0.81612  1.0000
  C   C373      1.0  0.39083  0.18579  0.82790  1.0000
  H   H453      1.0  0.48320  0.10424  0.98544  1.0000
  H   H454      1.0  0.16911  0.42741  0.97377  1.0000
  C   C374      1.0  0.39105  0.30193  0.97551  1.0000
  H   H455      1.0  0.04840  0.47465  0.78190  1.0000
  C   C375      1.0  0.38509  0.32451  0.97396  1.0000
  H   H456      1.0  0.40473  0.04017  0.78106  1.0000
  H   H457      1.0  0.14218  0.45804  0.90851  1.0000
  C   C376      1.0  0.36360  0.33442  0.97105  1.0000
  C   C377      1.0  0.45458  0.06026  0.77086  1.0000
  C   C378      1.0  0.18454  0.42951  0.97766  1.0000
  C   C379      1.0  0.35380  0.29889  0.97234  1.0000
  C   C380      1.0  0.46777  0.03810  0.80297  1.0000
  C   C381      1.0  0.48184  0.17384  0.97661  1.0000
  H   H458      1.0  0.33145  0.32921  0.96793  1.0000
  H   H459      1.0  0.45041  0.12044  0.94024  1.0000
  C   C382      1.0  0.12057  0.46423  0.96952  1.0000
  C   C383      1.0  0.47128  0.07634  0.79248  1.0000
  Fe  Fe52      1.0  0.03980  0.48888  0.86927  1.0000
  C   C384      1.0  0.15329  0.48509  0.86056  1.0000
  H   H460      1.0  0.41036  0.47955  0.95929  1.0000
  C   C385      1.0  0.03303  0.47116  0.75596  1.0000
  C   C386      1.0  0.44124  0.37661  0.90947  1.0000
  C   C387      1.0  0.39463  0.02714  0.78893  1.0000
  H   H461      1.0  0.45843  0.26121  0.87388  1.0000
  H   H462      1.0  0.48345  0.07432  0.80367  1.0000
  H   H463      1.0  0.46109  0.31077  0.93104  1.0000
  H   H464      1.0  0.40888  0.35510  0.90199  1.0000
  H   H465      1.0  0.45958  0.37102  0.94740  1.0000
  H   H466      1.0  0.45587  0.07496  0.75760  1.0000
  H   H467      1.0  0.07283  0.43367  0.75818  1.0000
  S   S102      1.0  0.40461  0.34013  0.97582  1.0000
  S   S103      1.0  0.06921  0.49048  0.81113  1.0000
  N   N25       1.0  0.47234  0.05625  0.78449  1.0000
  S   S104      1.0  0.21146  0.49192  0.89844  1.0000
  S   S105      1.0  0.42715  0.22398  0.98724  1.0000
  H   H468      1.0  0.47335  0.07178  0.95065  1.0000
  H   H469      1.0  0.03654  0.38033  0.78002  1.0000
  H   H470      1.0  0.47832  0.03623  0.81558  1.0000
  H   H471      1.0  0.07110  0.45568  0.94586  1.0000
  N   N26       1.0  0.40589  0.01014  0.80530  1.0000
  H   H472      1.0  0.08663  0.44123  0.91507  1.0000
  H   H473      1.0  0.02407  0.47642  0.94898  1.0000
  Fe  Fe53      1.0  0.08373  0.48462  0.84178  1.0000
  C   C388      1.0  0.33445  0.48805  0.97548  1.0000
  S   S106      1.0  0.36731  0.43461  0.98243  1.0000
  C   C389      1.0  0.08843  0.45850  0.90731  1.0000
  C   C390      1.0  0.04485  0.39114  0.76697  1.0000
  H   H474      1.0  0.38009  0.27166  0.97658  1.0000
  H   H475      1.0  0.35896  0.35191  0.96961  1.0000
  H   H476      1.0  0.48559  0.05695  0.74086  1.0000
  H   H477      1.0  0.99679  0.43645  0.76038  1.0000
  H   H478      1.0  0.04130  0.48310  0.74423  1.0000
  C   C391      1.0  0.49408  0.01227  0.85456  1.0000
  C   C392      1.0  0.48492  0.43927  0.94737  1.0000
  H   H479      1.0  0.00226  0.42133  0.84853  1.0000
  C   C393      1.0  0.31860  0.47538  0.98634  1.0000
  H   H480      1.0  0.43471  0.00039  0.86913  1.0000
  C   C394      1.0  0.03227  0.49034  0.94163  1.0000
  H   H481      1.0  0.00365  0.46251  0.98443  1.0000
  H   H482      1.0  0.00201  0.43470  0.88888  1.0000
  C   C395      1.0  0.49116  0.12973  0.91955  1.0000
  C   C396      1.0  0.99822  0.44747  0.87441  1.0000
  H   H483      1.0  0.34993  0.48588  0.98154  1.0000
  H   H484      1.0  0.27444  0.37241  0.98922  1.0000
  H   H485      1.0  0.28639  0.46833  0.98701  1.0000
  N   N27       1.0  0.47983  0.10316  0.95325  1.0000
  H   H486      1.0  0.13427  0.46662  0.97641  1.0000
  C   C397      1.0  0.10159  0.45900  0.98263  1.0000
  C   C398      1.0  0.49225  0.19491  0.85540  1.0000
  H   H487      1.0  0.06911  0.45239  0.98402  1.0000
  H   H488      1.0  0.49489  0.38729  0.96548  1.0000
  C   C399      1.0  0.13410  0.49282  0.85097  1.0000
  H   H489      1.0  0.10623  0.49187  0.88675  1.0000
  C   C400      1.0  0.42076  0.98708  0.07785  1.0000
  S   S107      1.0  0.45536  0.92110  0.05849  1.0000
  C   C401      1.0  0.27712  0.64614  0.99873  1.0000
  Fe  Fe54      1.0  0.46337  0.89220  0.04300  1.0000
  S   S108      1.0  0.02958  0.50695  0.01492  1.0000
  C   C402      1.0  0.44005  0.98508  0.13797  1.0000
  H   H490      1.0  0.43877  0.98172  0.07579  1.0000
  C   C403      1.0  0.45560  0.92323  0.15226  1.0000
  H   H491      1.0  0.23476  0.64636  0.01568  1.0000
  Fe  Fe55      1.0  0.02793  0.53122  0.03525  1.0000
  S   S109      1.0  0.47377  0.96816  0.20172  1.0000
  S   S110      1.0  0.47307  0.92627  0.16955  1.0000
  Fe  Fe56      1.0  0.07709  0.52456  0.03447  1.0000
  C   C404      1.0  0.02260  0.51704  0.12139  1.0000
  N   N28       1.0  0.48295  0.85030  0.11023  1.0000
  C   C405      1.0  0.43283  0.98598  0.11854  1.0000
  C   C406      1.0  0.30003  0.50396  0.02774  1.0000
  Fe  Fe57      1.0  0.42548  0.90642  0.07410  1.0000
  C   C407      1.0  0.46445  0.92105  0.13152  1.0000
  S   S111      1.0  0.41359  0.90674  0.10880  1.0000
  Fe  Fe58      1.0  0.41739  0.89544  0.03300  1.0000
  S   S112      1.0  0.44658  0.90998  0.01474  1.0000
  S   S113      1.0  0.40282  0.88377  0.00921  1.0000
  H   H492      1.0  0.40826  0.78260  0.07223  1.0000
  Fe  Fe59      1.0  0.43531  0.93719  0.03192  1.0000
  S   S114      1.0  0.43191  0.97243  0.01416  1.0000
  S   S115      1.0  0.43489  0.87597  0.06055  1.0000
  S   S116      1.0  0.40469  0.92432  0.04820  1.0000
  H   H493      1.0  0.38898  0.74521  0.04721  1.0000
  C   C408      1.0  0.39061  0.86002  0.01456  1.0000
  C   C409      1.0  0.05878  0.50843  0.13234  1.0000
  C   C410      1.0  0.99807  0.57514  0.10668  1.0000
  C   C411      1.0  0.38928  0.85078  0.99743  1.0000
  C   C412      1.0  0.36968  0.83332  0.03809  1.0000
  C   C413      1.0  0.38108  0.85107  0.03500  1.0000
  C   C414      1.0  0.24947  0.59667  0.00333  1.0000
  H   H494      1.0  0.03656  0.55013  0.13106  1.0000
  H   H495      1.0  0.48410  0.88365  0.09351  1.0000
  H   H496      1.0  0.38176  0.85833  0.04823  1.0000
  H   H497      1.0  0.43398  0.61213  0.99378  1.0000
  C   C415      1.0  0.46485  0.97900  0.03366  1.0000
  C   C416      1.0  0.99688  0.55643  0.07201  1.0000
  C   C417      1.0  0.45990  0.86163  0.14237  1.0000
  C   C418      1.0  0.17830  0.51294  0.02004  1.0000
  C   C419      1.0  0.39002  0.51166  0.00425  1.0000
  H   H498      1.0  0.11115  0.56555  0.00026  1.0000
  S   S117      1.0  0.05401  0.54864  0.01402  1.0000
  H   H499      1.0  0.18505  0.55036  0.99310  1.0000
  C   C420      1.0  0.42058  0.91742  0.14530  1.0000
  C   C421      1.0  0.42960  0.91462  0.12474  1.0000
  H   H500      1.0  0.40368  0.91562  0.15087  1.0000
  C   C422      1.0  0.02595  0.49974  0.15786  1.0000
  H   H501      1.0  0.38746  0.78922  0.05448  1.0000
  C   C423      1.0  0.42774  0.74536  0.06020  1.0000
  C   C424      1.0  0.40042  0.75541  0.03612  1.0000
  H   H502      1.0  0.39039  0.49727  0.04859  1.0000
  S   S118      1.0  0.08303  0.49939  0.01443  1.0000
  H   H503      1.0  0.43495  0.97058  0.11366  1.0000
  C   C425      1.0  0.44431  0.76899  0.01711  1.0000
  C   C426      1.0  0.09197  0.51552  0.10764  1.0000
  S   S119      1.0  0.36567  0.57746  0.99687  1.0000
  H   H504      1.0  0.00827  0.50540  0.16244  1.0000
  H   H505      1.0  0.28791  0.57472  0.04715  1.0000
  C   C427      1.0  0.30786  0.52158  0.01292  1.0000
  H   H506      1.0  0.42649  0.92358  0.17495  1.0000
  C   C428      1.0  0.45932  0.78131  0.00361  1.0000
  C   C429      1.0  0.23899  0.64623  0.99841  1.0000
  H   H507      1.0  0.27389  0.64852  0.01540  1.0000
  H   H508      1.0  0.02919  0.56457  0.06095  1.0000
  H   H509      1.0  0.45857  0.91521  0.10197  1.0000
  H   H510      1.0  0.30932  0.49489  0.04054  1.0000
  H   H511      1.0  0.16827  0.50450  0.08294  1.0000
  H   H512      1.0  0.33449  0.70948  0.00988  1.0000
  H   H513      1.0  0.24177  0.56376  0.01094  1.0000
  Fe  Fe60      1.0  0.05791  0.52223  0.99549  1.0000
  H   H514      1.0  0.46938  0.84205  0.05674  1.0000
  H   H515      1.0  0.45195  0.83856  0.11434  1.0000
  S   S120      1.0  0.24285  0.50258  0.00754  1.0000
  H   H516      1.0  0.19542  0.50738  0.02378  1.0000
  H   H517      1.0  0.39039  0.76903  0.02608  1.0000
  H   H518      1.0  0.47378  0.87435  0.18565  1.0000
  H   H519      1.0  0.41764  0.73509  0.07294  1.0000
  N   N29       1.0  0.03531  0.51524  0.13915  1.0000
  H   H520      1.0  0.41035  0.74507  0.02545  1.0000
  H   H521      1.0  0.47305  0.80276  0.05638  1.0000
  C   C430      1.0  0.39909  0.77573  0.06287  1.0000
  C   C431      1.0  0.45144  0.91707  0.11773  1.0000
  H   H522      1.0  0.47615  0.86688  0.07859  1.0000
  C   C432      1.0  0.44765  0.98863  0.02166  1.0000
  C   C433      1.0  0.29572  0.53326  0.99645  1.0000
  H   H523      1.0  0.02997  0.58174  0.09130  1.0000
  C   C434      1.0  0.47578  0.86867  0.17092  1.0000
  C   C435      1.0  0.48325  0.83462  0.04748  1.0000
  N   N30       1.0  0.17725  0.51782  0.99676  1.0000
  Fe  Fe61      1.0  0.43939  0.98119  0.21324  1.0000
  H   H524      1.0  0.43940  0.75124  0.06784  1.0000
  C   C436      1.0  0.12383  0.51419  0.05624  1.0000
  H   H525      1.0  0.33991  0.66960  0.02567  1.0000
  C   C437      1.0  0.27577  0.52732  0.99485  1.0000
  H   H526      1.0  0.47421  0.81836  0.12422  1.0000
  Fe  Fe62      1.0  0.33967  0.55994  0.99237  1.0000
  C   C438      1.0  0.10377  0.49638  0.11833  1.0000
  N   N31       1.0  0.41406  0.76407  0.04760  1.0000
  C   C439      1.0  0.14044  0.51849  0.06583  1.0000
  H   H527      1.0  0.01481  0.54226  0.15089  1.0000
  C   C440      1.0  0.42831  0.77811  0.03201  1.0000
  S   S121      1.0  0.35902  0.74732  0.00681  1.0000
  C   C441      1.0  0.42724  0.80077  0.03143  1.0000
  C   C442      1.0  0.06986  0.52152  0.11448  1.0000
  C   C443      1.0  0.26785  0.50981  0.00975  1.0000
  C   C444      1.0  0.27544  0.60291  0.02399  1.0000
  H   H528      1.0  0.14863  0.55277  0.00786  1.0000
  C   C445      1.0  0.39031  0.65156  0.99213  1.0000
  H   H529      1.0  0.38875  0.76470  0.07446  1.0000
  Fe  Fe63      1.0  0.45973  0.93914  0.19940  1.0000
  H   H530      1.0  0.00181  0.50071  0.08844  1.0000
  H   H531      1.0  0.16858  0.49979  0.02853  1.0000
  H   H532      1.0  0.47191  0.77368  0.99299  1.0000
  H   H533      1.0  0.41509  0.80945  0.04147  1.0000
  C   C446      1.0  0.45859  0.80312  0.00431  1.0000
  H   H534      1.0  0.43755  0.73416  0.05020  1.0000
  H   H535      1.0  0.46541  0.70731  0.99883  1.0000
  H   H536      1.0  0.14104  0.53512  0.06670  1.0000
  H   H537      1.0  0.44737  0.96957  0.14715  1.0000
  H   H538      1.0  0.41286  0.97356  0.08877  1.0000
  H   H539      1.0  0.38383  0.52180  0.01570  1.0000
  S   S122      1.0  0.10367  0.53572  0.04642  1.0000
  C   C447      1.0  0.28005  0.49808  0.02617  1.0000
  H   H540      1.0  0.46859  0.96143  0.03854  1.0000
  H   H541      1.0  0.44566  0.75208  0.01607  1.0000
  C   C448      1.0  0.03216  0.53689  0.14489  1.0000
  H   H542      1.0  0.06152  0.53659  0.10559  1.0000
  H   H543      1.0  0.00477  0.52196  0.12595  1.0000
  H   H544      1.0  0.44149  0.83013  0.01789  1.0000
  C   C449      1.0  0.48088  0.85580  0.13137  1.0000
  C   C450      1.0  0.44227  0.81299  0.01776  1.0000
  S   S123      1.0  0.33628  0.63242  0.01008  1.0000
  C   C451      1.0  0.43347  0.92195  0.15897  1.0000
  H   H545      1.0  0.44129  0.87264  0.16977  1.0000
  C   C452      1.0  0.36834  0.82410  0.02090  1.0000
  H   H546      1.0  0.38644  0.65716  0.00744  1.0000
  H   H547      1.0  0.17201  0.52742  0.02718  1.0000
  H   H548      1.0  0.36229  0.50393  0.04313  1.0000
  H   H549      1.0  0.26665  0.54984  0.03844  1.0000
  H   H550      1.0  0.47239  0.82721  0.09608  1.0000
  H   H551      1.0  0.09998  0.52589  0.09396  1.0000
  C   C453      1.0  0.33510  0.67552  0.00982  1.0000
  H   H552      1.0  0.44513  0.86235  0.13558  1.0000
  H   H553      1.0  0.28563  0.61265  0.02829  1.0000
  H   H554      1.0  0.41522  0.98900  0.06200  1.0000
  C   C454      1.0  0.12050  0.55154  0.99440  1.0000
  S   S124      1.0  0.33290  0.52869  0.01514  1.0000
  Fe  Fe64      1.0  0.47609  0.95211  0.23617  1.0000
  S   S125      1.0  0.05055  0.50960  0.05736  1.0000
  H   H555      1.0  0.45717  0.87636  0.09934  1.0000
  C   C455      1.0  0.15587  0.50121  0.07495  1.0000
  C   C456      1.0  0.01585  0.57469  0.09051  1.0000
  C   C457      1.0  0.26217  0.61122  0.00718  1.0000
  H   H556      1.0  0.48156  0.92199  0.12625  1.0000
  S   S126      1.0  0.42498  0.95340  0.20857  1.0000
  S   S127      1.0  0.46538  0.92153  0.23283  1.0000
  Fe  Fe65      1.0  0.36006  0.78362  0.99837  1.0000
  C   C458      1.0  0.33217  0.69808  0.00086  1.0000
  S   S128      1.0  0.41936  0.71919  0.99568  1.0000
  C   C459      1.0  0.27693  0.58101  0.03508  1.0000
  H   H557      1.0  0.41957  0.67372  0.99813  1.0000
  H   H558      1.0  0.02526  0.50121  0.11626  1.0000
  H   H559      1.0  0.47085  0.81231  0.99461  1.0000
  C   C460      1.0  0.01542  0.56497  0.07335  1.0000
  C   C461      1.0  0.25104  0.57484  0.01460  1.0000
  H   H560      1.0  0.04220  0.53649  0.15757  1.0000
  C   C462      1.0  0.37843  0.83272  0.00062  1.0000
  S   S129      1.0  0.35390  0.80194  0.02506  1.0000
  H   H561      1.0  0.36168  0.82687  0.05378  1.0000
  H   H562      1.0  0.02735  0.52963  0.10716  1.0000
  C   C463      1.0  0.45748  0.86772  0.16194  1.0000
  C   C464      1.0  0.48539  0.81230  0.04735  1.0000
  C   C465      1.0  0.26496  0.56696  0.03023  1.0000
  C   C466      1.0  0.33193  0.66060  0.99836  1.0000
  C   C467      1.0  0.14194  0.54391  0.99889  1.0000
  H   H563      1.0  0.29413  0.63745  0.99605  1.0000
  C   C468      1.0  0.47468  0.87014  0.09478  1.0000
  N   N32       1.0  0.26116  0.63391  0.99416  1.0000
  H   H564      1.0  0.39201  0.93201  0.99571  1.0000
  C   C469      1.0  0.46981  0.83288  0.11134  1.0000
  C   C470      1.0  0.15431  0.52503  0.99236  1.0000
  H   H565      1.0  0.47847  0.95664  0.99973  1.0000
  H   H566      1.0  0.39991  0.63482  0.99521  1.0000
  S   S130      1.0  0.99868  0.58695  0.12829  1.0000
  H   H567      1.0  0.22625  0.63895  0.99377  1.0000
  C   C471      1.0  0.47781  0.99212  0.03882  1.0000
  H   H568      1.0  0.03405  0.49827  0.17221  1.0000
  H   H569      1.0  0.48958  0.96366  0.10663  1.0000
  H   H570      1.0  0.48407  0.86937  0.99533  1.0000
  C   C472      1.0  0.49191  0.97748  0.11252  1.0000
  H   H571      1.0  0.23854  0.60193  0.99125  1.0000
  H   H572      1.0  0.49127  0.98457  0.04793  1.0000
  Fe  Fe66      1.0  0.08825  0.90478  0.46745  1.0000
  S   S131      1.0  0.00013  0.71444  0.44443  1.0000
  C   C473      1.0  0.17533  0.87133  0.44858  1.0000
  H   H573      1.0  0.01964  0.80088  0.43626  1.0000
  C   C474      1.0  0.49334  0.90131  0.30543  1.0000
  H   H574      1.0  0.29378  0.98148  0.35386  1.0000
  S   S132      1.0  0.36760  0.94738  0.35289  1.0000
  H   H575      1.0  0.31830  0.96183  0.35692  1.0000
  C   C475      1.0  0.13523  0.96154  0.44953  1.0000
  C   C476      1.0  0.12730  0.93966  0.34947  1.0000
  H   H576      1.0  0.46650  0.87685  0.33519  1.0000
  H   H577      1.0  0.04085  0.84113  0.45466  1.0000
  C   C477      1.0  0.46112  0.88480  0.31930  1.0000
  H   H578      1.0  0.19638  0.94319  0.44243  1.0000
  H   H579      1.0  0.41482  0.94433  0.35201  1.0000
  H   H580      1.0  0.44297  0.88675  0.32118  1.0000
  S   S133      1.0  0.20658  0.93621  0.39738  1.0000
  H   H581      1.0  0.49439  0.92498  0.33144  1.0000
  N   N33       1.0  0.46922  0.90603  0.31067  1.0000
  H   H582      1.0  0.11666  0.95603  0.42699  1.0000
  C   C478      1.0  0.12021  0.97876  0.33943  1.0000
  H   H583      1.0  0.46618  0.93238  0.28303  1.0000
  C   C479      1.0  0.06536  0.98095  0.46646  1.0000
  S   S134      1.0  0.05402  0.70125  0.43407  1.0000
  C   C480      1.0  0.19505  0.87507  0.43609  1.0000
  H   H584      1.0  0.26380  0.97193  0.33578  1.0000
  S   S135      1.0  0.08481  0.75310  0.42975  1.0000
  Fe  Fe67      1.0  0.10240  0.88828  0.42690  1.0000
  S   S136      1.0  0.12722  0.88852  0.39795  1.0000
  C   C481      1.0  0.14323  0.97700  0.45700  1.0000
  S   S137      1.0  0.07337  0.87137  0.43087  1.0000
  C   C482      1.0  0.06439  0.94388  0.38574  1.0000
  C   C483      1.0  0.02880  0.98240  0.45830  1.0000
  N   N34       1.0  0.04255  0.97828  0.47569  1.0000
  C   C484      1.0  0.00206  0.99165  0.42507  1.0000
  H   H585      1.0  0.10851  0.97872  0.32837  1.0000
  S   S138      1.0  0.44276  0.96778  0.24790  1.0000
  S   S139      1.0  0.03236  0.73648  0.46470  1.0000
  C   C485      1.0  0.08562  0.69908  0.47852  1.0000
  S   S140      1.0  0.01692  0.70614  0.38669  1.0000
  C   C486      1.0  0.00243  0.67383  0.37415  1.0000
  C   C487      1.0  0.44715  0.94768  0.35596  1.0000
  H   H586      1.0  0.00563  0.55443  0.30855  1.0000
  C   C488      1.0  0.08175  0.77373  0.44437  1.0000
  C   C489      1.0  0.09087  0.79291  0.43550  1.0000
  C   C490      1.0  0.08872  0.80926  0.44722  1.0000
  C   C491      1.0  0.07795  0.80620  0.46809  1.0000
  S   S141      1.0  0.05774  0.88935  0.47542  1.0000
  C   C492      1.0  0.07101  0.77081  0.46522  1.0000
  H   H587      1.0  0.09946  0.79520  0.41947  1.0000
  H   H588      1.0  0.09570  0.82404  0.44022  1.0000
  H   H589      1.0  0.22219  0.89181  0.42975  1.0000
  H   H590      1.0  0.15243  0.97070  0.47037  1.0000
  H   H591      1.0  0.10156  0.69240  0.47036  1.0000
  C   C493      1.0  0.18403  0.92373  0.39744  1.0000
  C   C494      1.0  0.16676  0.92366  0.41409  1.0000
  C   C495      1.0  0.14940  0.91240  0.41470  1.0000
  C   C496      1.0  0.14925  0.90151  0.39847  1.0000
  C   C497      1.0  0.16645  0.90178  0.38178  1.0000
  C   C498      1.0  0.18384  0.91282  0.38129  1.0000
  H   H592      1.0  0.16705  0.93185  0.42672  1.0000
  H   H593      1.0  0.13617  0.91220  0.42766  1.0000
  H   H594      1.0  0.16636  0.89331  0.36926  1.0000
  H   H595      1.0  0.19726  0.91268  0.36853  1.0000
  C   C499      1.0  0.46012  0.91662  0.29041  1.0000
  H   H596      1.0  0.44144  0.95842  0.36701  1.0000
  H   H597      1.0  0.47334  0.98013  0.31440  1.0000
  H   H598      1.0  0.01183  0.66417  0.45968  1.0000
  C   C500      1.0  0.08523  0.94276  0.37411  1.0000
  H   H599      1.0  0.02211  0.62801  0.42120  1.0000
  H   H600      1.0  0.02894  0.82549  0.41952  1.0000
  H   H601      1.0  0.15223  0.95842  0.36495  1.0000
  S   S142      1.0  0.25142  0.95543  0.48005  1.0000
  C   C501      1.0  0.00506  0.65530  0.47496  1.0000
  H   H602      1.0  0.09174  0.92755  0.36914  1.0000
  H   H603      1.0  0.23265  0.92306  0.43248  1.0000
  H   H604      1.0  0.02698  0.66633  0.41870  1.0000
  C   C502      1.0  0.00482  0.97086  0.43830  1.0000
  Fe  Fe68      1.0  0.02882  0.70271  0.46274  1.0000
  C   C503      1.0  0.37886  0.94033  0.32837  1.0000
  C   C504      1.0  0.39005  0.95450  0.31209  1.0000
  C   C505      1.0  0.39898  0.94826  0.29278  1.0000
  C   C506      1.0  0.39689  0.92774  0.28977  1.0000
  C   C507      1.0  0.37678  0.91988  0.32528  1.0000
  H   H605      1.0  0.39244  0.96996  0.31451  1.0000
  H   H606      1.0  0.40759  0.95924  0.28037  1.0000
  H   H607      1.0  0.36835  0.90873  0.33783  1.0000
  C   C508      1.0  0.23439  0.91631  0.44966  1.0000
  C   C509      1.0  0.20000  0.93757  0.45925  1.0000
  Fe  Fe69      1.0  0.05394  0.90140  0.44077  1.0000
  H   H608      1.0  0.27705  0.97692  0.29860  1.0000
  Fe  Fe70      1.0  0.00665  0.74818  0.44314  1.0000
  H   H609      1.0  0.13336  0.94806  0.38724  1.0000
  H   H610      1.0  0.20043  0.86752  0.42249  1.0000
  C   C510      1.0  0.46945  0.94181  0.35018  1.0000
  H   H611      1.0  0.15243  0.87894  0.47510  1.0000
  S   S143      1.0  0.38526  0.99334  0.37558  1.0000
  C   C511      1.0  0.01552  0.53885  0.26120  1.0000
  H   H612      1.0  0.07825  0.71382  0.46738  1.0000
  H   H613      1.0  0.00105  0.80123  0.47238  1.0000
  H   H614      1.0  0.02589  0.80783  0.47777  1.0000
  C   C512      1.0  0.16786  0.88172  0.46551  1.0000
  Fe  Fe71      1.0  0.36632  0.98243  0.35477  1.0000
  N   N35       1.0  0.01223  0.82923  0.45049  1.0000
  H   H615      1.0  0.24479  0.89992  0.45152  1.0000
  H   H616      1.0  0.30460  0.92248  0.35036  1.0000
  S   S144      1.0  0.02280  0.91665  0.42645  1.0000
  C   C513      1.0  0.38570  0.91364  0.30605  1.0000
  C   C514      1.0  0.24258  0.97781  0.46040  1.0000
  N   N36       1.0  0.29758  0.95679  0.33553  1.0000
  C   C515      1.0  0.30078  0.96396  0.35474  1.0000
  C   C516      1.0  0.27398  0.95540  0.33714  1.0000
  C   C517      1.0  0.31020  0.93455  0.33596  1.0000
  C   C518      1.0  0.30560  0.97182  0.31578  1.0000
  C   C519      1.0  0.32678  0.97756  0.31318  1.0000
  C   C520      1.0  0.29343  0.98007  0.29817  1.0000
  C   C521      1.0  0.25037  0.97807  0.43902  1.0000
  H   H617      1.0  0.00593  0.66394  0.26496  1.0000
  H   H618      1.0  0.00848  0.69281  0.27960  1.0000
  S   S145      1.0  0.07451  0.82633  0.48323  1.0000
  H   H619      1.0  0.18418  0.93840  0.46981  1.0000
  H   H620      1.0  0.38410  0.89772  0.30385  1.0000
  C   C522      1.0  0.01939  0.54606  0.27859  1.0000
  C   C523      1.0  0.99776  0.91269  0.44234  1.0000
  C   C524      1.0  0.01261  0.67898  0.38952  1.0000
  H   H621      1.0  0.11349  0.72475  0.46226  1.0000
  H   H622      1.0  0.47184  0.96855  0.28104  1.0000
  H   H623      1.0  0.30866  0.92863  0.32160  1.0000
  C   C525      1.0  0.47690  0.92835  0.33554  1.0000
  H   H624      1.0  0.00117  0.65878  0.32367  1.0000
  C   C526      1.0  0.13493  0.96089  0.37239  1.0000
  S   S146      1.0  0.22949  0.98981  0.37270  1.0000
  H   H625      1.0  0.02460  0.85933  0.43536  1.0000
  C   C527      1.0  0.18003  0.89593  0.46997  1.0000
  S   S147      1.0  0.08254  0.91944  0.43354  1.0000
  S   S148      1.0  0.00396  0.60799  0.39446  1.0000
  C   C528      1.0  0.01918  0.66248  0.40676  1.0000
  C   C529      1.0  0.00637  0.63557  0.39268  1.0000
  H   H626      1.0  0.07626  0.97769  0.47914  1.0000
  H   H627      1.0  0.26227  0.96466  0.43470  1.0000
  H   H628      1.0  0.33720  0.97158  0.32559  1.0000
  H   H629      1.0  0.24360  0.92738  0.45431  1.0000
  C   C530      1.0  0.01632  0.64078  0.40818  1.0000
  S   S149      1.0  0.02946  0.75012  0.41294  1.0000
  C   C531      1.0  0.30199  0.99333  0.27936  1.0000
  H   H630      1.0  0.27059  0.94780  0.32458  1.0000
  H   H631      1.0  0.44393  0.96165  0.48899  1.0000
  H   H632      1.0  0.05005  0.94305  0.48033  1.0000
  C   C532      1.0  0.11848  0.99028  0.42291  1.0000
  H   H633      1.0  0.13834  0.94428  0.45716  1.0000
  C   C533      1.0  0.46203  0.92030  0.32624  1.0000
  H   H634      1.0  0.11643  0.93786  0.33837  1.0000
  S   S150      1.0  0.18879  0.98496  0.34893  1.0000
  H   H635      1.0  0.01706  0.56969  0.43180  1.0000
  H   H636      1.0  0.17335  0.90392  0.48300  1.0000
  H   H637      1.0  0.32796  0.93425  0.33615  1.0000
  H   H638      1.0  0.01977  0.94948  0.46392  1.0000
  S   S151      1.0  0.11044  0.87466  0.46029  1.0000
  H   H639      1.0  0.20909  0.94963  0.46242  1.0000
  C   C534      1.0  0.02643  0.81584  0.43618  1.0000
  S   S152      1.0  0.40889  0.91861  0.26643  1.0000
  H   H640      1.0  0.07489  0.68638  0.48091  1.0000
  C   C535      1.0  0.09716  0.96057  0.36974  1.0000
  C   C536      1.0  0.31020  0.97891  0.48537  1.0000
  H   H641      1.0  0.13686  0.97862  0.33029  1.0000
  C   C537      1.0  0.06630  0.98004  0.38992  1.0000
  H   H642      1.0  0.35268  0.95386  0.44294  1.0000
  H   H643      1.0  0.42712  0.92065  0.32664  1.0000
  C   C538      1.0  0.33509  0.99095  0.29441  1.0000
  H   H644      1.0  0.01593  0.85656  0.46343  1.0000
  H   H645      1.0  0.01129  0.90134  0.47206  1.0000
  H   H646      1.0  0.40468  0.98253  0.44933  1.0000
  C   C539      1.0  0.43218  0.93983  0.34739  1.0000
  H   H647      1.0  0.05568  0.93000  0.38914  1.0000
  C   C540      1.0  0.06939  0.78680  0.47713  1.0000
  H   H648      1.0  0.00039  0.82417  0.48417  1.0000
  S   S153      1.0  0.09551  0.92976  0.48349  1.0000
  C   C541      1.0  0.34080  0.96039  0.45480  1.0000
  C   C542      1.0  0.02381  0.84735  0.45098  1.0000
  H   H649      1.0  0.29292  0.95427  0.36970  1.0000
  C   C543      1.0  0.00185  0.65425  0.30808  1.0000
  C   C544      1.0  0.12289  0.96814  0.43255  1.0000
  H   H650      1.0  0.13200  0.97688  0.37718  1.0000
  H   H651      1.0  0.02836  0.53752  0.24802  1.0000
  N   N37       1.0  0.11947  0.95984  0.35791  1.0000
  C   C545      1.0  0.34625  0.95878  0.47505  1.0000
  C   C546      1.0  0.00974  0.81503  0.47216  1.0000
  H   H652      1.0  0.44203  0.92012  0.29256  1.0000
  H   H653      1.0  0.14407  0.93963  0.34061  1.0000
  H   H654      1.0  0.46712  0.87319  0.30850  1.0000
  H   H655      1.0  0.03516  0.55036  0.27898  1.0000
  Fe  Fe72      1.0  0.02534  0.71520  0.41560  1.0000
  H   H656      1.0  0.06485  0.75578  0.47258  1.0000
  H   H657      1.0  0.07226  0.96930  0.45586  1.0000
  C   C547      1.0  0.20032  0.89995  0.45775  1.0000
  C   C548      1.0  0.20745  0.88915  0.44051  1.0000
  Fe  Fe73      1.0  0.20122  0.97147  0.38060  1.0000
  H   H658      1.0  0.12934  0.77403  0.48840  1.0000
  Fe  Fe74      1.0  0.07943  0.86030  0.46501  1.0000
  Fe  Fe75      1.0  0.05527  0.73631  0.43458  1.0000
  H   H659      1.0  0.12832  0.92475  0.36254  1.0000
  H   H660      1.0  0.26792  0.94511  0.35264  1.0000
  H   H661      1.0  0.01664  0.57821  0.46387  1.0000
  C   C549      1.0  0.43943  0.92630  0.33281  1.0000
  N   N38       1.0  0.21277  0.91518  0.46284  1.0000
  H   H662      1.0  0.16554  0.86078  0.44482  1.0000
  C   C550      1.0  0.05500  0.96239  0.39371  1.0000
  H   H663      1.0  0.46471  0.90601  0.27858  1.0000
  C   C551      1.0  0.11244  0.73128  0.47630  1.0000
  C   C552      1.0  0.00275  0.54829  0.29526  1.0000
  H   H664      1.0  0.36241  0.95093  0.47893  1.0000
  H   H665      1.0  0.00090  0.50328  0.32227  1.0000
  H   H666      1.0  0.04294  0.80982  0.44132  1.0000
  C   C553      1.0  0.01810  0.96610  0.45460  1.0000
  C   C554      1.0  0.12291  0.74942  0.47375  1.0000
  H   H667      1.0  0.00627  0.55398  0.47953  1.0000
  H   H668      1.0  0.13118  0.75622  0.45824  1.0000
  C   C555      1.0  0.08707  0.97923  0.37809  1.0000
  H   H669      1.0  0.00072  0.59288  0.25499  1.0000
  H   H670      1.0  0.48110  0.94820  0.35665  1.0000
  C   C556      1.0  0.32016  0.97077  0.44971  1.0000
  C   C557      1.0  0.21669  0.90822  0.48555  1.0000
  H   H671      1.0  0.99804  0.63725  0.31166  1.0000
  H   H672      1.0  0.00653  0.54428  0.44258  1.0000
  C   C558      1.0  0.00181  0.56227  0.43707  1.0000
  H   H673      1.0  0.48285  0.95277  0.48337  1.0000
  H   H674      1.0  0.03903  0.96280  0.40309  1.0000
  C   C559      1.0  0.99907  0.65223  0.37586  1.0000
  H   H675      1.0  0.28923  0.98743  0.45976  1.0000
  C   C560      1.0  0.48834  0.97421  0.30526  1.0000
  H   H676      1.0  0.99717  0.68659  0.36088  1.0000
  C   C561      1.0  0.00144  0.57112  0.47077  1.0000
  C   C562      1.0  0.30495  0.97982  0.46473  1.0000
  H   H677      1.0  0.01904  0.65366  0.30028  1.0000
  C   C563      1.0  0.48745  0.96763  0.28634  1.0000
  H   H678      1.0  0.31606  0.97215  0.43387  1.0000
  Fe  Fe76      1.0  0.43162  0.93840  0.24238  1.0000
  C   C564      1.0  0.38868  0.99215  0.45165  1.0000
  C   C565      1.0  0.04304  0.95594  0.48953  1.0000
  H   H679      1.0  0.09532  0.99323  0.37570  1.0000
  C   C566      1.0  0.99659  0.90533  0.46446  1.0000
  H   H680      1.0  0.26472  0.99174  0.48849  1.0000
  H   H681      1.0  0.99683  0.95821  0.43574  1.0000
  H   H682      1.0  0.22726  0.91844  0.48959  1.0000
  C   C567      1.0  0.33117  0.96773  0.49019  1.0000
  H   H683      1.0  0.22479  0.89085  0.48933  1.0000
  H   H684      1.0  0.43275  0.92713  0.54133  1.0000
  Fe  Fe77      1.0  0.22193  0.95333  0.55654  1.0000
  C   C568      1.0  0.10040  0.73285  0.51326  1.0000
  S   S154      1.0  0.24162  0.95078  0.58314  1.0000
  Fe  Fe78      1.0  0.19154  0.93400  0.53662  1.0000
  H   H685      1.0  0.04332  0.99058  0.50367  1.0000
  S   S155      1.0  0.17433  0.90565  0.53826  1.0000
  C   C569      1.0  0.44768  0.92637  0.54785  1.0000
  C   C570      1.0  0.01090  0.65820  0.49379  1.0000
  H   H686      1.0  0.35619  0.94124  0.69187  1.0000
  S   S156      1.0  0.22791  0.92804  0.53663  1.0000
  S   S157      1.0  0.18538  0.95626  0.55967  1.0000
  S   S158      1.0  0.42002  0.90040  0.70945  1.0000
  H   H687      1.0  0.11014  0.75894  0.52366  1.0000
  S   S159      1.0  0.40541  0.97949  0.55060  1.0000
  N   N39       1.0  0.29472  0.98856  0.50163  1.0000
  C   C571      1.0  0.11688  0.92255  0.49935  1.0000
  H   H688      1.0  0.28067  0.95897  0.51350  1.0000
  H   H689      1.0  0.33762  0.91877  0.65114  1.0000
  H   H690      1.0  0.06540  0.71012  0.52697  1.0000
  Fe  Fe79      1.0  0.37716  0.96342  0.56846  1.0000
  S   S160      1.0  0.37855  0.92760  0.58296  1.0000
  H   H691      1.0  0.46862  0.94771  0.62615  1.0000
  C   C572      1.0  0.00653  0.57705  0.70672  1.0000
  C   C573      1.0  0.38231  0.93899  0.65562  1.0000
  C   C574      1.0  0.48473  0.92268  0.56774  1.0000
  Fe  Fe80      1.0  0.47028  0.92879  0.68335  1.0000
  H   H692      1.0  0.44802  0.98805  0.57967  1.0000
  H   H693      1.0  0.27583  0.97700  0.53167  1.0000
  C   C575      1.0  0.11085  0.75106  0.51050  1.0000
  H   H694      1.0  0.42098  0.97767  0.60402  1.0000
  S   S161      1.0  0.43511  0.87832  0.65683  1.0000
  C   C576      1.0  0.46735  0.95732  0.60957  1.0000
  H   H695      1.0  0.46375  0.98535  0.49858  1.0000
  H   H696      1.0  0.42918  0.95804  0.51497  1.0000
  C   C577      1.0  0.39594  0.91437  0.60218  1.0000
  C   C578      1.0  0.41035  0.92521  0.60843  1.0000
  C   C579      1.0  0.42296  0.91417  0.62494  1.0000
  C   C580      1.0  0.42103  0.89240  0.63514  1.0000
  C   C581      1.0  0.40727  0.88147  0.62819  1.0000
  C   C582      1.0  0.39471  0.89244  0.61184  1.0000
  H   H697      1.0  0.41157  0.94207  0.60070  1.0000
  H   H698      1.0  0.43411  0.92244  0.62977  1.0000
  H   H699      1.0  0.40595  0.86458  0.63579  1.0000
  H   H700      1.0  0.38373  0.88394  0.60690  1.0000
  C   C583      1.0  0.06556  0.70951  0.51007  1.0000
  H   H701      1.0  0.36486  0.90484  0.65433  1.0000
  C   C584      1.0  0.10016  0.72289  0.49601  1.0000
  H   H702      1.0  0.05368  0.95327  0.50234  1.0000
  H   H703      1.0  0.38771  0.94549  0.63853  1.0000
  C   C585      1.0  0.00236  0.64632  0.51350  1.0000
  C   C586      1.0  0.33301  0.96466  0.63460  1.0000
  H   H704      1.0  0.14803  0.93873  0.61239  1.0000
  H   H705      1.0  0.01768  0.52123  0.66295  1.0000
  H   H706      1.0  0.28731  0.94542  0.58796  1.0000
  C   C587      1.0  0.15176  0.91226  0.52390  1.0000
  C   C588      1.0  0.14266  0.93411  0.51673  1.0000
  H   H707      1.0  0.44253  0.93443  0.50437  1.0000
  C   C589      1.0  0.42195  0.98322  0.61818  1.0000
  C   C590      1.0  0.48349  0.93555  0.54715  1.0000
  C   C591      1.0  0.14313  0.89552  0.51908  1.0000
  C   C592      1.0  0.28206  0.96243  0.58075  1.0000
  H   H708      1.0  0.11658  0.95101  0.59173  1.0000
  C   C593      1.0  0.44922  0.91332  0.56834  1.0000
  H   H709      1.0  0.15005  0.87858  0.52471  1.0000
  C   C594      1.0  0.44224  0.98603  0.62314  1.0000
  H   H710      1.0  0.20139  0.90967  0.49680  1.0000
  C   C595      1.0  0.35505  0.92111  0.64843  1.0000
  H   H711      1.0  0.09228  0.72685  0.52897  1.0000
  C   C596      1.0  0.26033  0.96947  0.57663  1.0000
  H   H712      1.0  0.01320  0.52181  0.71561  1.0000
  S   S162      1.0  0.45155  0.93458  0.71429  1.0000
  C   C597      1.0  0.01388  0.55512  0.71529  1.0000
  N   N40       1.0  0.35858  0.93804  0.65917  1.0000
  C   C598      1.0  0.28809  0.97062  0.51938  1.0000
  H   H713      1.0  0.14192  0.98156  0.53217  1.0000
  N   N41       1.0  0.08796  0.70440  0.49896  1.0000
  H   H714      1.0  0.00696  0.64837  0.52809  1.0000
  H   H715      1.0  0.05532  0.69685  0.51064  1.0000
  H   H716      1.0  0.02367  0.55083  0.72837  1.0000
  C   C599      1.0  0.34828  0.97805  0.65985  1.0000
  H   H717      1.0  0.33062  0.95221  0.62689  1.0000
  Fe  Fe81      1.0  0.45135  0.89835  0.72267  1.0000
  C   C600      1.0  0.14460  0.95573  0.60409  1.0000
  H   H718      1.0  0.38684  0.94977  0.66468  1.0000
  H   H719      1.0  0.48305  0.95280  0.59969  1.0000
  H   H720      1.0  0.11929  0.88771  0.50286  1.0000
  N   N42       1.0  0.46273  0.98113  0.60899  1.0000
  H   H721      1.0  0.39219  0.92256  0.66068  1.0000
  H   H722      1.0  0.38696  0.98734  0.62614  1.0000
  C   C601      1.0  0.40234  0.98845  0.63091  1.0000
  H   H723      1.0  0.00317  0.49809  0.67024  1.0000
  Fe  Fe82      1.0  0.44140  0.89840  0.67847  1.0000
  C   C602      1.0  0.34642  0.96011  0.65123  1.0000
  C   C603      1.0  0.49395  0.97218  0.72228  1.0000
  C   C604      1.0  0.35194  0.93061  0.68237  1.0000
  H   H724      1.0  0.48103  0.97626  0.51900  1.0000
  H   H725      1.0  0.10092  0.68709  0.52815  1.0000
  S   S163      1.0  0.39891  0.99167  0.49098  1.0000
  S   S164      1.0  0.19152  0.96105  0.50734  1.0000
  C   C605      1.0  0.46524  0.97442  0.51463  1.0000
  C   C606      1.0  0.46496  0.93776  0.53649  1.0000
  C   C607      1.0  0.12583  0.90067  0.50663  1.0000
  S   S165      1.0  0.47279  0.89232  0.69272  1.0000
  H   H726      1.0  0.47451  0.98008  0.68786  1.0000
  H   H727      1.0  0.33402  0.93053  0.68588  1.0000
  H   H728      1.0  0.99542  0.49902  0.50944  1.0000
  C   C608      1.0  0.41000  0.96981  0.73283  1.0000
  H   H729      1.0  0.45435  0.95174  0.60351  1.0000
  C   C609      1.0  0.15469  0.99267  0.59327  1.0000
  H   H730      1.0  0.31259  0.98913  0.61406  1.0000
  S   S166      1.0  0.44037  0.93458  0.66706  1.0000
  Fe  Fe83      1.0  0.42156  0.93625  0.69909  1.0000
  H   H731      1.0  0.36024  0.92544  0.63093  1.0000
  H   H732      1.0  0.46865  0.90145  0.59427  1.0000
  H   H733      1.0  0.10391  0.98309  0.52507  1.0000
  H   H734      1.0  0.17227  0.96413  0.61320  1.0000
  C   C610      1.0  0.09960  0.68461  0.51212  1.0000
  S   S167      1.0  0.39126  0.96115  0.70183  1.0000
  H   H735      1.0  0.45187  0.98088  0.52607  1.0000
  H   H736      1.0  0.30210  0.96103  0.52772  1.0000
  H   H737      1.0  0.43605  0.90442  0.57653  1.0000
  H   H738      1.0  0.35808  0.97583  0.67261  1.0000
  H   H739      1.0  0.48560  0.97786  0.63120  1.0000
  C   C611      1.0  0.44412  0.95123  0.50541  1.0000
  C   C612      1.0  0.46762  0.91157  0.57833  1.0000
  C   C613      1.0  0.39738  0.97859  0.71616  1.0000
  H   H740      1.0  0.11650  0.68018  0.50435  1.0000
  H   H741      1.0  0.36042  0.91379  0.68866  1.0000
  C   C614      1.0  0.32246  0.98592  0.62702  1.0000
  H   H742      1.0  0.31399  0.97162  0.57798  1.0000
  H   H743      1.0  0.09097  0.67025  0.51459  1.0000
  H   H744      1.0  0.14886  0.94704  0.52082  1.0000
  C   C615      1.0  0.00782  0.53859  0.70779  1.0000
  S   S168      1.0  0.35690  0.97521  0.54149  1.0000
  C   C616      1.0  0.12511  0.93923  0.50468  1.0000
  C   C617      1.0  0.12693  0.96258  0.59241  1.0000
  H   H745      1.0  0.48357  0.92565  0.50024  1.0000
  C   C618      1.0  0.48319  0.94323  0.50011  1.0000
  N   N43       1.0  0.46422  0.95135  0.51457  1.0000
  H   H746      1.0  0.01070  0.58979  0.71302  1.0000
  Fe  Fe84      1.0  0.22736  0.95674  0.50914  1.0000
  H   H747      1.0  0.11796  0.95616  0.49938  1.0000
  C   C619      1.0  0.29716  0.97724  0.57510  1.0000
  H   H748      1.0  0.02649  0.95299  0.49753  1.0000
  S   S169      1.0  0.22436  0.98165  0.52877  1.0000
  C   C620      1.0  0.25367  0.99146  0.56727  1.0000
  H   H749      1.0  0.05696  0.72549  0.50188  1.0000
  C   C621      1.0  0.00749  0.51155  0.67614  1.0000
  H   H750      1.0  0.01790  0.50346  0.68895  1.0000
  H   H751      1.0  0.33615  0.96600  0.50568  1.0000
  Fe  Fe85      1.0  0.18829  0.98294  0.53027  1.0000
  C   C622      1.0  0.48191  0.98741  0.61520  1.0000
  C   C623      1.0  0.15832  0.97048  0.60454  1.0000
  C   C624      1.0  0.12286  0.98422  0.58120  1.0000
  S   S170      1.0  0.02880  0.67661  0.49291  1.0000
  H   H752      1.0  0.19877  0.98358  0.59060  1.0000
  H   H753      1.0  0.00054  0.50519  0.56046  1.0000
  H   H754      1.0  0.06144  0.78413  0.49339  1.0000
  H   H755      1.0  0.47618  0.99035  0.57598  1.0000
  C   C625      1.0  0.46068  0.99308  0.58665  1.0000
  S   S171      1.0  0.36244  0.99079  0.58506  1.0000
  C   C626      1.0  0.44179  0.99308  0.64239  1.0000
  H   H756      1.0  0.10927  0.98942  0.57184  1.0000
  N   N44       1.0  0.49415  0.99222  0.70506  1.0000
  H   H757      1.0  0.17998  0.99186  0.62462  1.0000
  H   H758      1.0  0.41335  0.95231  0.73844  1.0000
  C   C627      1.0  0.12185  0.75950  0.49070  1.0000
  H   H759      1.0  0.12269  0.49407  0.90576  1.0000
  C   C628      1.0  0.40762  0.87331  0.80879  1.0000
  C   C629      1.0  0.40516  0.51097  0.96766  1.0000
  Fe  Fe86      1.0  0.21418  0.53973  0.92493  1.0000
  S   S172      1.0  0.18234  0.52982  0.92273  1.0000
  S   S173      1.0  0.21593  0.56587  0.94238  1.0000
  H   H760      1.0  0.12433  0.56173  0.87608  1.0000
  H   H761      1.0  0.39061  0.87653  0.80474  1.0000
  Fe  Fe87      1.0  0.19653  0.52723  0.88939  1.0000
  S   S174      1.0  0.17207  0.54103  0.86571  1.0000
  S   S175      1.0  0.22924  0.50526  0.93789  1.0000
  S   S176      1.0  0.22744  0.53982  0.89080  1.0000
  H   H762      1.0  0.44478  0.86254  0.92079  1.0000
  C   C630      1.0  0.36478  0.87681  0.87524  1.0000
  C   C631      1.0  0.31321  0.54518  0.92991  1.0000
  C   C632      1.0  0.38566  0.90634  0.86092  1.0000
  H   H763      1.0  0.41299  0.96116  0.92287  1.0000
  Fe  Fe88      1.0  0.39113  0.74498  0.98625  1.0000
  Fe  Fe89      1.0  0.04551  0.51664  0.82427  1.0000
  C   C633      1.0  0.47433  0.72412  0.91254  1.0000
  C   C634      1.0  0.01512  0.54445  0.78650  1.0000
  H   H764      1.0  0.49139  0.97786  0.86163  1.0000
  Fe  Fe90      1.0  0.43208  0.90830  0.89669  1.0000
  C   C635      1.0  0.45071  0.85710  0.96524  1.0000
  H   H765      1.0  0.26616  0.65045  0.96090  1.0000
  C   C636      1.0  0.38139  0.93427  0.98301  1.0000
  H   H766      1.0  0.39636  0.85782  0.98155  1.0000
  H   H767      1.0  0.38760  0.98640  0.80092  1.0000
  H   H768      1.0  0.38919  0.92227  0.86124  1.0000
  H   H769      1.0  0.27624  0.51613  0.92287  1.0000
  H   H770      1.0  0.44305  0.84781  0.82474  1.0000
  Fe  Fe91      1.0  0.37627  0.78390  0.95189  1.0000
  S   S177      1.0  0.37713  0.74786  0.95627  1.0000
  S   S178      1.0  0.38908  0.80188  0.91946  1.0000
  H   H771      1.0  0.30624  0.55048  0.94504  1.0000
  H   H772      1.0  0.46121  0.53741  0.96767  1.0000
  S   S179      1.0  0.32053  0.73425  0.96974  1.0000
  Fe  Fe92      1.0  0.34120  0.60799  0.98915  1.0000
  Fe  Fe93      1.0  0.34480  0.75305  0.97616  1.0000
  H   H773      1.0  0.43032  0.68989  0.91019  1.0000
  H   H774      1.0  0.45729  0.50015  0.97468  1.0000
  S   S180      1.0  0.34252  0.78985  0.96940  1.0000
  Fe  Fe94      1.0  0.32697  0.59359  0.95319  1.0000
  S   S181      1.0  0.35042  0.56200  0.95754  1.0000
  S   S182      1.0  0.30508  0.60312  0.92721  1.0000
  H   H775      1.0  0.13749  0.53363  0.90486  1.0000
  C   C637      1.0  0.29436  0.49403  0.96008  1.0000
  H   H776      1.0  0.47264  0.85306  0.91184  1.0000
  Fe  Fe95      1.0  0.37449  0.58223  0.96147  1.0000
  S   S183      1.0  0.40916  0.57595  0.94558  1.0000
  C   C638      1.0  0.46340  0.68884  0.91605  1.0000
  H   H777      1.0  0.38736  0.94015  0.92940  1.0000
  S   S184      1.0  0.35203  0.61428  0.95394  1.0000
  C   C639      1.0  0.43810  0.60564  0.97952  1.0000
  C   C640      1.0  0.44065  0.92533  0.80243  1.0000
  Fe  Fe96      1.0  0.47925  0.89794  0.87741  1.0000
  C   C641      1.0  0.40287  0.83892  0.83256  1.0000
  C   C642      1.0  0.45354  0.73445  0.90751  1.0000
  H   H778      1.0  0.41076  0.51962  0.95175  1.0000
  H   H779      1.0  0.42606  0.98687  0.84011  1.0000
  C   C643      1.0  0.32214  0.69101  0.96917  1.0000
  N   N45       1.0  0.40212  0.66684  0.97522  1.0000
  C   C644      1.0  0.48644  0.96680  0.98516  1.0000
  H   H780      1.0  0.32358  0.65692  0.96879  1.0000
  H   H781      1.0  0.31698  0.69704  0.95347  1.0000
  C   C645      1.0  0.39787  0.87132  0.91892  1.0000
  C   C646      1.0  0.40766  0.86132  0.90210  1.0000
  C   C647      1.0  0.40445  0.84017  0.90217  1.0000
  C   C648      1.0  0.39136  0.82889  0.91911  1.0000
  C   C649      1.0  0.38103  0.83899  0.93576  1.0000
  C   C650      1.0  0.38413  0.86032  0.93556  1.0000
  H   H782      1.0  0.41771  0.86981  0.88897  1.0000
  H   H783      1.0  0.41234  0.83239  0.88926  1.0000
  H   H784      1.0  0.37078  0.83032  0.94884  1.0000
  H   H785      1.0  0.37210  0.68935  0.96903  1.0000
  H   H786      1.0  0.39964  0.97870  0.82496  1.0000
  C   C651      1.0  0.46168  0.89242  0.79227  1.0000
  H   H787      1.0  0.42287  0.75159  0.95668  1.0000
  C   C652      1.0  0.47072  0.49669  0.96189  1.0000
  S   S185      1.0  0.02106  0.49496  0.84144  1.0000
  H   H788      1.0  0.36476  0.95250  0.94570  1.0000
  H   H789      1.0  0.43333  0.65179  0.98613  1.0000
  H   H790      1.0  0.42150  0.73026  0.90334  1.0000
  H   H791      1.0  0.42343  0.83841  0.94832  1.0000
  H   H792      1.0  0.43640  0.98742  0.80527  1.0000
  C   C653      1.0  0.47400  0.81197  0.93554  1.0000
  H   H793      1.0  0.42420  0.92196  0.97137  1.0000
  H   H794      1.0  0.43715  0.81429  0.96449  1.0000
  C   C654      1.0  0.04508  0.51562  0.90992  1.0000
  C   C655      1.0  0.48800  0.84013  0.95718  1.0000
  C   C656      1.0  0.45679  0.75457  0.94918  1.0000
  C   C657      1.0  0.32539  0.70592  0.98064  1.0000
  Fe  Fe97      1.0  0.44715  0.93044  0.85114  1.0000
  C   C658      1.0  0.43175  0.85722  0.83562  1.0000
  H   H795      1.0  0.30178  0.54674  0.98487  1.0000
  S   S186      1.0  0.03176  0.54855  0.80394  1.0000
  H   H796      1.0  0.37723  0.82594  0.98725  1.0000
  C   C659      1.0  0.37890  0.93899  0.94593  1.0000
  H   H797      1.0  0.48570  0.73475  0.91282  1.0000
  S   S187      1.0  0.48045  0.93234  0.85811  1.0000
  C   C660      1.0  0.01431  0.52331  0.78432  1.0000
  C   C661      1.0  0.39457  0.87330  0.84600  1.0000
  C   C662      1.0  0.28237  0.53009  0.92614  1.0000
  C   C663      1.0  0.03427  0.49777  0.91939  1.0000
  H   H798      1.0  0.35981  0.90632  0.88710  1.0000
  C   C664      1.0  0.31820  0.51660  0.91052  1.0000
  H   H799      1.0  0.48710  0.99106  0.94620  1.0000
  C   C665      1.0  0.45655  0.90671  0.80642  1.0000
  N   N46       1.0  0.40881  0.86078  0.83108  1.0000
  H   H800      1.0  0.09330  0.49946  0.91099  1.0000
  C   C666      1.0  0.15777  0.52232  0.85983  1.0000
  C   C667      1.0  0.13885  0.53010  0.84970  1.0000
  C   C668      1.0  0.12679  0.51538  0.84565  1.0000
  C   C669      1.0  0.41288  0.92234  0.95980  1.0000
  C   C670      1.0  0.46197  0.95985  0.96396  1.0000
  C   C671      1.0  0.41027  0.97024  0.93535  1.0000
  C   C672      1.0  0.12232  0.52196  0.97676  1.0000
  C   C673      1.0  0.37727  0.86482  0.86081  1.0000
  H   H801      1.0  0.39685  0.70086  0.95945  1.0000
  C   C674      1.0  0.38886  0.68904  0.97256  1.0000
  C   C675      1.0  0.47978  0.70089  0.91738  1.0000
  C   C676      1.0  0.39817  0.89455  0.84638  1.0000
  H   H802      1.0  0.48039  0.59839  0.94059  1.0000
  H   H803      1.0  0.37241  0.92315  0.94991  1.0000
  C   C677      1.0  0.46303  0.72040  0.98491  1.0000
  C   C678      1.0  0.42994  0.92963  0.78431  1.0000
  H   H804      1.0  0.04610  0.52194  0.89294  1.0000
  H   H805      1.0  0.41742  0.94383  0.78129  1.0000
  H   H806      1.0  0.33123  0.54377  0.92831  1.0000
  C   C679      1.0  0.45737  0.86658  0.97986  1.0000
  C   C680      1.0  0.24093  0.57573  0.93797  1.0000
  C   C681      1.0  0.25087  0.57638  0.95546  1.0000
  C   C682      1.0  0.27076  0.58437  0.95238  1.0000
  C   C683      1.0  0.28022  0.59281  0.93175  1.0000
  C   C684      1.0  0.27000  0.59259  0.91424  1.0000
  C   C685      1.0  0.25058  0.58373  0.91731  1.0000
  H   H807      1.0  0.24333  0.57021  0.97140  1.0000
  H   H808      1.0  0.27867  0.58408  0.96597  1.0000
  H   H809      1.0  0.27728  0.59904  0.89823  1.0000
  H   H810      1.0  0.24286  0.58350  0.90372  1.0000
  H   H811      1.0  0.40436  0.82819  0.84871  1.0000
  C   C686      1.0  0.33040  0.50370  0.95685  1.0000
  H   H812      1.0  0.34341  0.51274  0.94886  1.0000
  N   N47       1.0  0.48537  0.95866  0.96590  1.0000
  H   H813      1.0  0.36708  0.94711  0.98544  1.0000
  H   H814      1.0  0.47768  0.98389  0.98417  1.0000
  H   H815      1.0  0.30828  0.55881  0.91644  1.0000
  H   H816      1.0  0.38591  0.84036  0.82887  1.0000
  C   C687      1.0  0.11071  0.54056  0.98343  1.0000
  C   C688      1.0  0.39169  0.99305  0.81387  1.0000
  N   N48       1.0  0.45851  0.83177  0.93947  1.0000
  H   H817      1.0  0.46317  0.49715  0.94744  1.0000
  H   H818      1.0  0.06251  0.53955  0.91489  1.0000
  H   H819      1.0  0.48418  0.54771  0.95121  1.0000
  H   H820      1.0  0.46705  0.95349  0.77190  1.0000
  Fe  Fe98      1.0  0.19889  0.49524  0.93177  1.0000
  H   H821      1.0  0.10749  0.58687  0.88082  1.0000
  S   S188      1.0  0.39360  0.78062  0.98013  1.0000
  H   H822      1.0  0.41828  0.86451  0.79701  1.0000
  H   H823      1.0  0.27852  0.49540  0.95512  1.0000
  C   C689      1.0  0.47907  0.86228  0.98369  1.0000
  S   S189      1.0  0.43373  0.94335  0.81990  1.0000
  H   H824      1.0  0.38664  0.69555  0.98732  1.0000
  H   H825      1.0  0.15198  0.49986  0.97530  1.0000
  C   C690      1.0  0.19005  0.53561  0.98615  1.0000
  H   H826      1.0  0.09391  0.54625  0.98048  1.0000
  C   C691      1.0  0.48676  0.99307  0.86703  1.0000
  C   C692      1.0  0.14388  0.51428  0.98100  1.0000
  H   H827      1.0  0.43331  0.84817  0.85235  1.0000
  H   H828      1.0  0.35219  0.86970  0.88691  1.0000
  H   H829      1.0  0.45953  0.95596  0.94887  1.0000
  C   C693      1.0  0.40542  0.65924  0.95499  1.0000
  C   C694      1.0  0.38718  0.65818  0.94522  1.0000
  C   C695      1.0  0.42643  0.65189  0.94490  1.0000
  C   C696      1.0  0.38980  0.64986  0.92681  1.0000
  C   C697      1.0  0.42885  0.64336  0.92662  1.0000
  C   C698      1.0  0.41058  0.64219  0.91770  1.0000
  C   C699      1.0  0.40098  0.96130  0.95632  1.0000
  H   H830      1.0  0.09456  0.58984  0.92025  1.0000
  C   C700      1.0  0.47355  0.53492  0.95371  1.0000
  C   C701      1.0  0.43767  0.72212  0.90697  1.0000
  H   H831      1.0  0.37341  0.84870  0.86207  1.0000
  H   H832      1.0  0.46656  0.67116  0.91887  1.0000
  H   H833      1.0  0.12891  0.53521  0.93208  1.0000
  H   H834      1.0  0.43805  0.87284  0.83348  1.0000
  H   H835      1.0  0.09996  0.56531  0.94052  1.0000
  H   H836      1.0  0.37065  0.66323  0.95207  1.0000
  H   H837      1.0  0.44125  0.65192  0.95120  1.0000
  H   H838      1.0  0.37558  0.64878  0.91992  1.0000
  H   H839      1.0  0.44496  0.63696  0.91972  1.0000
  H   H840      1.0  0.41249  0.63497  0.90392  1.0000
  H   H841      1.0  0.43019  0.97631  0.75328  1.0000
  H   H842      1.0  0.46507  0.90339  0.82026  1.0000
  H   H843      1.0  0.31273  0.50155  0.90902  1.0000
  H   H844      1.0  0.18807  0.54070  0.96893  1.0000
  H   H845      1.0  0.00219  0.57872  0.77721  1.0000
  C   C702      1.0  0.05257  0.51816  0.94462  1.0000
  H   H846      1.0  0.08325  0.56565  0.92127  1.0000
  H   H847      1.0  0.41104  0.90210  0.83569  1.0000
  H   H848      1.0  0.41380  0.83010  0.82097  1.0000
  H   H849      1.0  0.41315  0.88942  0.80590  1.0000
  H   H850      1.0  0.09656  0.56163  0.88693  1.0000
  H   H851      1.0  0.46430  0.53828  0.93977  1.0000
  H   H852      1.0  0.40795  0.90577  0.96334  1.0000
  C   C703      1.0  0.30998  0.50761  0.94885  1.0000
  H   H853      1.0  0.11213  0.52149  0.83800  1.0000
  C   C704      1.0  0.44265  0.69936  0.91101  1.0000
  H   H854      1.0  0.44959  0.75218  0.90430  1.0000
  C   C705      1.0  0.47844  0.95318  0.75749  1.0000
  C   C706      1.0  0.16487  0.49975  0.86528  1.0000
  Fe  Fe99      1.0  0.24077  0.50436  0.90360  1.0000
  H   H855      1.0  0.11438  0.51328  0.96855  1.0000
  H   H856      1.0  0.18762  0.59939  0.91474  1.0000
  H   H857      1.0  0.31574  0.52895  0.89541  1.0000
  C   C707      1.0  0.39964  0.97389  0.97194  1.0000
  H   H858      1.0  0.02488  0.50944  0.79240  1.0000
  Fe  Fe100     1.0  0.46229  0.94231  0.88796  1.0000
  S   S190      1.0  0.42906  0.94335  0.87929  1.0000
  N   N49       1.0  0.30584  0.52457  0.92928  1.0000
  H   H859      1.0  0.45426  0.76774  0.93538  1.0000
  H   H860      1.0  0.10957  0.53151  0.91646  1.0000
  H   H861      1.0  0.13357  0.54754  0.84480  1.0000
  S   S191      1.0  0.40372  0.89690  0.91999  1.0000
  N   N50       1.0  0.39362  0.93966  0.96132  1.0000
  H   H862      1.0  0.42223  0.92464  0.94356  1.0000
  C   C708      1.0  0.46447  0.59752  0.94981  1.0000
  H   H863      1.0  0.27939  0.54376  0.91211  1.0000
  C   C709      1.0  0.16041  0.58384  0.93190  1.0000
  C   C710      1.0  0.43699  0.82453  0.94801  1.0000
  C   C711      1.0  0.46572  0.84262  0.95423  1.0000
  H   H864      1.0  0.20787  0.53046  0.98725  1.0000
  S   S192      1.0  0.46395  0.90799  0.90795  1.0000
  H   H865      1.0  0.27211  0.53507  0.94036  1.0000
  C   C712      1.0  0.17327  0.59284  0.91352  1.0000
  H   H866      1.0  0.33604  0.51255  0.91165  1.0000
  S   S193      1.0  0.45821  0.87975  0.75574  1.0000
  C   C713      1.0  0.44202  0.72871  0.97942  1.0000
  H   H867      1.0  0.46756  0.80299  0.92584  1.0000
  C   C714      1.0  0.45668  0.84759  0.91886  1.0000
  H   H868      1.0  0.43218  0.67993  0.97120  1.0000
  S   S194      1.0  0.44737  0.89547  0.86777  1.0000
  S   S195      1.0  0.46529  0.96962  0.90321  1.0000
  H   H869      1.0  0.47410  0.87811  0.79526  1.0000
  C   C715      1.0  0.42271  0.59629  0.97278  1.0000
  H   H870      1.0  0.43224  0.81463  0.93804  1.0000
  C   C716      1.0  0.42817  0.58756  0.95451  1.0000
  S   S196      1.0  0.06517  0.53084  0.95953  1.0000
  C   C717      1.0  0.47771  0.74673  0.95495  1.0000
  C   C718      1.0  0.45130  0.89705  0.77388  1.0000
  C   C719      1.0  0.36905  0.89745  0.87540  1.0000
  H   H871      1.0  0.43374  0.86136  0.96267  1.0000
  H   H872      1.0  0.17865  0.59903  0.87932  1.0000
  C   C720      1.0  0.26576  0.63369  0.97106  1.0000
  C   C721      1.0  0.32581  0.66833  0.97784  1.0000
  H   H873      1.0  0.39771  0.54003  0.98028  1.0000
  H   H874      1.0  0.37635  0.86800  0.94859  1.0000
  H   H875      1.0  0.48972  0.81595  0.92622  1.0000
  C   C722      1.0  0.43897  0.74550  0.96136  1.0000
  C   C723      1.0  0.43529  0.91551  0.77008  1.0000
  C   C724      1.0  0.48091  0.72949  0.97267  1.0000
  C   C725      1.0  0.14232  0.57470  0.93041  1.0000
  C   C726      1.0  0.16817  0.59268  0.89358  1.0000
  H   H876      1.0  0.13347  0.56712  0.94514  1.0000
  H   H877      1.0  0.45336  0.58142  0.92892  1.0000
  N   N51       1.0  0.11765  0.56410  0.90910  1.0000
  C   C727      1.0  0.11124  0.56891  0.88729  1.0000
  C   C728      1.0  0.13639  0.57460  0.91031  1.0000
  C   C729      1.0  0.15003  0.58375  0.89188  1.0000
  H   H878      1.0  0.49004  0.65999  0.94312  1.0000
  H   H879      1.0  0.14753  0.58362  0.87591  1.0000
  C   C730      1.0  0.44914  0.58799  0.94317  1.0000
  H   H880      1.0  0.16499  0.58335  0.94736  1.0000
  S   S197      1.0  0.47678  0.62105  0.97483  1.0000
  C   C731      1.0  0.45881  0.60671  0.96781  1.0000
  C   C732      1.0  0.09813  0.57162  0.92337  1.0000
  C   C733      1.0  0.12360  0.54004  0.91594  1.0000
  H   H881      1.0  0.42675  0.91855  0.75633  1.0000
  H   H882      1.0  0.37496  0.91851  0.98586  1.0000
  C   C734      1.0  0.05422  0.52574  0.92246  1.0000
  H   H883      1.0  0.45136  0.84033  0.90703  1.0000
  S   S198      1.0  0.06237  0.51305  0.85317  1.0000
  H   H884      1.0  0.48952  0.93445  0.93538  1.0000
  H   H885      1.0  0.45411  0.94828  0.97742  1.0000
  H   H886      1.0  0.45269  0.97653  0.96420  1.0000
  H   H887      1.0  0.25333  0.62688  0.96543  1.0000
  H   H888      1.0  0.28190  0.62375  0.96726  1.0000
  H   H889      1.0  0.18885  0.50084  0.97123  1.0000
  H   H890      1.0  0.47737  0.80027  0.95078  1.0000
  N   N52       1.0  0.48641  0.51249  0.95717  1.0000
  C   C735      1.0  0.39779  0.52247  0.98378  1.0000
  H   H891      1.0  0.40662  0.59591  0.98168  1.0000
  C   C736      1.0  0.42277  0.66806  0.98285  1.0000
  H   H892      1.0  0.37461  0.64979  0.98766  1.0000
  C   C737      1.0  0.18803  0.49794  0.98883  1.0000
  H   H893      1.0  0.49092  0.91889  0.76723  1.0000
  C   C738      1.0  0.49440  0.84919  0.97223  1.0000
  S   S199      1.0  0.31437  0.58991  0.98782  1.0000
  H   H894      1.0  0.26661  0.53605  0.98191  1.0000
  H   H895      1.0  0.39383  0.96809  0.98855  1.0000
  C   C739      1.0  0.04143  0.50050  0.95427  1.0000
  C   C740      1.0  0.41648  0.99103  0.93006  1.0000
  H   H896      1.0  0.48946  0.68159  0.95659  1.0000
  C   C741      1.0  0.00152  0.56232  0.77570  1.0000
  C   C742      1.0  0.41916  0.98350  0.74151  1.0000
  H   H897      1.0  0.49395  0.96978  0.93186  1.0000
  C   C743      1.0  0.47920  0.97211  0.74134  1.0000
  H   H898      1.0  0.46773  0.98648  0.74372  1.0000
  H   H899      1.0  0.42352  0.99222  0.78204  1.0000
  C   C744      1.0  0.99945  0.51999  0.77197  1.0000
  H   H900      1.0  0.99854  0.50354  0.77074  1.0000
  C   C745      1.0  0.49181  0.93365  0.75490  1.0000
  C   C746      1.0  0.47410  0.99346  0.88677  1.0000
  H   H901      1.0  0.04024  0.49447  0.97134  1.0000
  H   H902      1.0  0.17962  0.49355  0.87261  1.0000
  H   H903      1.0  0.44557  0.87717  0.98842  1.0000
  C   C747      1.0  0.49527  0.97377  0.94723  1.0000
  H   H904      1.0  0.27670  0.66283  0.98822  1.0000
  H   H905      1.0  0.23769  0.66358  0.98934  1.0000
  H   H906      1.0  0.48631  0.51289  0.99024  1.0000
  S   S200      1.0  0.96630  0.38145  0.18031  1.0000
  C   C748      1.0  0.75601  0.47535  0.06053  1.0000
  C   C749      1.0  0.98357  0.41286  0.05663  1.0000
  H   H907      1.0  0.98558  0.44810  0.18275  1.0000
  C   C750      1.0  0.93117  0.47508  0.12840  1.0000
  S   S201      1.0  0.73422  0.46073  0.06299  1.0000
  Fe  Fe101     1.0  0.67296  0.46817  0.01973  1.0000
  S   S202      1.0  0.64314  0.45127  0.02850  1.0000
  C   C751      1.0  0.50166  0.14750  0.00300  1.0000
  S   S203      1.0  0.70853  0.45346  0.01710  1.0000
  C   C752      1.0  0.88136  0.44995  0.16468  1.0000
  Fe  Fe102     1.0  0.87850  0.45536  0.07023  1.0000
  S   S204      1.0  0.90775  0.46986  0.05287  1.0000
  S   S205      1.0  0.88309  0.42076  0.08919  1.0000
  H   H908      1.0  0.94219  0.44271  0.02995  1.0000
  C   C753      1.0  0.87690  0.42426  0.14311  1.0000
  H   H909      1.0  0.91430  0.40334  0.15481  1.0000
  C   C754      1.0  0.88866  0.45527  0.18199  1.0000
  H   H910      1.0  0.94015  0.47997  0.01688  1.0000
  H   H911      1.0  0.52050  0.05883  0.12689  1.0000
  H   H912      1.0  0.99157  0.44247  0.09845  1.0000
  S   S206      1.0  0.85997  0.46532  0.04176  1.0000
  H   H913      1.0  0.92681  0.48203  0.15971  1.0000
  N   N53       1.0  0.88598  0.42708  0.16174  1.0000
  H   H914      1.0  0.52865  0.04152  0.23695  1.0000
  H   H915      1.0  0.98423  0.41801  0.23794  1.0000
  S   S207      1.0  0.94206  0.43845  0.19528  1.0000
  H   H916      1.0  0.97046  0.44935  0.08144  1.0000
  S   S208      1.0  0.98394  0.42512  0.14807  1.0000
  C   C755      1.0  0.94548  0.47383  0.10971  1.0000
  C   C756      1.0  0.51764  0.04458  0.12115  1.0000
  C   C757      1.0  0.95387  0.48994  0.21521  1.0000
  C   C758      1.0  0.97644  0.48894  0.20928  1.0000
  H   H917      1.0  0.85863  0.41787  0.18456  1.0000
  C   C759      1.0  0.65330  0.42485  0.99912  1.0000
  H   H918      1.0  0.96404  0.49012  0.15671  1.0000
  H   H919      1.0  0.91779  0.41904  0.17293  1.0000
  H   H920      1.0  0.89182  0.48052  0.19763  1.0000
  C   C760      1.0  0.97353  0.48409  0.12498  1.0000
  C   C761      1.0  0.79419  0.47576  0.06318  1.0000
  H   H921      1.0  0.61289  0.47889  0.99285  1.0000
  C   C762      1.0  0.63708  0.43476  0.01278  1.0000
  C   C763      1.0  0.87648  0.41233  0.18094  1.0000
  C   C764      1.0  0.96707  0.47846  0.10733  1.0000
  C   C765      1.0  0.88554  0.47684  0.18458  1.0000
  H   H922      1.0  0.60408  0.23127  0.00107  1.0000
  C   C766      1.0  0.61546  0.43121  0.01440  1.0000
  Fe  Fe103     1.0  0.98429  0.39021  0.14734  1.0000
  C   C767      1.0  0.90998  0.41992  0.15857  1.0000
  H   H923      1.0  0.81492  0.48269  0.01925  1.0000
  H   H924      1.0  0.60285  0.43883  0.02496  1.0000
  S   S209      1.0  0.86327  0.48434  0.08445  1.0000
  C   C768      1.0  0.95028  0.39316  0.11082  1.0000
  C   C769      1.0  0.93779  0.37968  0.10564  1.0000
  C   C770      1.0  0.91719  0.38833  0.09910  1.0000
  C   C771      1.0  0.90936  0.41073  0.09671  1.0000
  C   C772      1.0  0.92208  0.42447  0.10131  1.0000
  C   C773      1.0  0.94236  0.41557  0.10885  1.0000
  H   H925      1.0  0.94393  0.36238  0.10699  1.0000
  H   H926      1.0  0.90742  0.37765  0.09561  1.0000
  H   H927      1.0  0.91598  0.44178  0.09963  1.0000
  H   H928      1.0  0.95201  0.42597  0.11289  1.0000
  H   H929      1.0  0.52344  0.01569  0.15815  1.0000
  N   N54       1.0  0.68730  0.41005  0.07549  1.0000
  C   C774      1.0  0.67501  0.43266  0.07201  1.0000
  C   C775      1.0  0.68028  0.39821  0.09742  1.0000
  C   C776      1.0  0.71080  0.41169  0.07415  1.0000
  C   C777      1.0  0.68266  0.39864  0.05979  1.0000
  C   C778      1.0  0.66088  0.39611  0.05889  1.0000
  C   C779      1.0  0.69923  0.38993  0.04500  1.0000
  C   C780      1.0  0.65601  0.38548  0.04422  1.0000
  C   C781      1.0  0.80917  0.47522  0.00787  1.0000
  N   N55       1.0  0.50082  0.03287  0.13582  1.0000
  H   H930      1.0  0.65702  0.43315  0.07523  1.0000
  H   H931      1.0  0.67938  0.44254  0.08221  1.0000
  H   H932      1.0  0.67852  0.44132  0.05517  1.0000
  H   H933      1.0  0.68863  0.38089  0.10041  1.0000
  H   H934      1.0  0.66238  0.39798  0.10036  1.0000
  H   H935      1.0  0.68408  0.40605  0.10965  1.0000
  H   H936      1.0  0.71701  0.42116  0.05826  1.0000
  H   H937      1.0  0.71373  0.42062  0.08593  1.0000
  H   H938      1.0  0.72109  0.39527  0.07738  1.0000
  H   H939      1.0  0.64732  0.40288  0.06913  1.0000
  H   H940      1.0  0.71621  0.39134  0.04418  1.0000
  H   H941      1.0  0.63917  0.38441  0.04333  1.0000
  H   H942      1.0  0.59327  0.41515  0.00381  1.0000
  H   H943      1.0  0.86370  0.46527  0.13690  1.0000
  H   H944      1.0  0.51278  0.05166  0.10495  1.0000
  S   S210      1.0  0.97634  0.38181  0.11820  1.0000
  H   H945      1.0  0.87882  0.39516  0.17879  1.0000
  C   C782      1.0  0.86697  0.48908  0.15329  1.0000
  H   H946      1.0  0.92574  0.47477  0.21601  1.0000
  H   H947      1.0  0.50245  0.13309  0.01580  1.0000
  C   C783      1.0  0.94302  0.47453  0.21083  1.0000
  H   H948      1.0  0.77899  0.44662  0.07150  1.0000
  C   C784      1.0  0.51975  0.15864  0.99628  1.0000
  C   C785      1.0  0.98799  0.47321  0.19833  1.0000
  Fe  Fe104     1.0  0.71176  0.47582  0.03792  1.0000
  H   H949      1.0  0.52014  0.28823  0.99253  1.0000
  C   C786      1.0  0.97611  0.44822  0.02109  1.0000
  C   C787      1.0  0.95468  0.45877  0.19983  1.0000
  C   C788      1.0  0.77658  0.46421  0.06575  1.0000
  C   C789      1.0  0.53640  0.25538  0.99221  1.0000
  H   H950      1.0  0.59048  0.21048  0.99700  1.0000
  N   N56       1.0  0.98184  0.47713  0.08729  1.0000
  Fe  Fe105     1.0  0.96925  0.41544  0.18198  1.0000
  H   H951      1.0  0.52925  0.12061  0.23266  1.0000
  C   C790      1.0  0.69414  0.37934  0.03037  1.0000
  H   H952      1.0  0.98636  0.39936  0.07025  1.0000
  C   C791      1.0  0.96251  0.42041  0.05121  1.0000
  H   H953      1.0  0.53348  0.03348  0.11942  1.0000
  C   C792      1.0  0.87010  0.46756  0.15046  1.0000
  C   C793      1.0  0.93795  0.48081  0.14530  1.0000
  H   H954      1.0  0.88420  0.41156  0.19533  1.0000
  H   H955      1.0  0.88363  0.43465  0.12804  1.0000
  C   C794      1.0  0.97184  0.49195  0.06886  1.0000
  H   H956      1.0  0.88107  0.40709  0.14082  1.0000
  H   H957      1.0  0.98312  0.49236  0.05372  1.0000
  C   C795      1.0  0.95904  0.48539  0.14355  1.0000
  H   H958      1.0  0.49716  0.16442  0.08621  1.0000
  H   H959      1.0  0.85877  0.42842  0.14480  1.0000
  H   H960      1.0  0.91800  0.43145  0.14522  1.0000
  H   H961      1.0  0.93933  0.46971  0.09690  1.0000
  H   H962      1.0  0.91452  0.47228  0.12952  1.0000
  H   H963      1.0  0.51023  0.04198  0.16254  1.0000
  H   H964      1.0  0.95660  0.48707  0.06630  1.0000
  H   H965      1.0  0.82315  0.46347  0.00230  1.0000
  S   S211      1.0  0.67577  0.48823  0.04296  1.0000
  C   C796      1.0  0.97693  0.45876  0.19290  1.0000
  C   C797      1.0  0.49798  0.01363  0.12811  1.0000
  H   H966      1.0  0.94899  0.41265  0.06059  1.0000
  H   H967      1.0  0.66861  0.36937  0.01831  1.0000
  H   H968      1.0  0.89724  0.44278  0.19348  1.0000
  C   C798      1.0  0.67260  0.37710  0.03001  1.0000
  H   H969      1.0  0.81010  0.46707  0.06693  1.0000
  S   S212      1.0  0.50099  0.06949  0.19879  1.0000
  H   H970      1.0  0.52239  0.24787  0.00061  1.0000
  C   C799      1.0  0.95880  0.43772  0.03367  1.0000
  H   H971      1.0  0.70693  0.37312  0.01899  1.0000
  H   H972      1.0  0.50115  0.10220  0.13786  1.0000
  C   C800      1.0  0.60999  0.41786  0.00241  1.0000
  N   N57       1.0  0.97166  0.46642  0.00248  1.0000
  C   C801      1.0  0.98558  0.45434  0.08420  1.0000
  H   H973      1.0  0.86947  0.45927  0.99849  1.0000
  H   H974      1.0  0.53442  0.15275  0.00394  1.0000
  H   H975      1.0  0.79635  0.46571  0.01748  1.0000
  H   H976      1.0  0.96280  0.49070  0.02170  1.0000
  Fe  Fe106     1.0  0.88816  0.48260  0.02543  1.0000
  C   C802      1.0  0.50772  0.02718  0.15749  1.0000
  H   H977      1.0  0.98965  0.48752  0.12491  1.0000
  H   H978      1.0  0.67004  0.42739  0.99790  1.0000
  C   C803      1.0  0.95627  0.48475  0.00967  1.0000
  H   H979      1.0  0.94553  0.45348  0.99409  1.0000
  S   S213      1.0  0.90491  0.48452  0.99161  1.0000
  H   H980      1.0  0.49607  0.15101  0.05385  1.0000
  H   H981      1.0  0.49563  0.02524  0.21801  1.0000
  C   C804      1.0  0.99153  0.47533  0.99075  1.0000
  Fe  Fe107     1.0  0.71297  0.48274  0.99069  1.0000
  C   C805      1.0  0.62209  0.06922  0.25425  1.0000
  S   S214      1.0  0.91298  0.25134  0.42507  1.0000
  H   H982      1.0  0.71844  0.08890  0.40715  1.0000
  Fe  Fe108     1.0  0.90143  0.28758  0.41930  1.0000
  S   S215      1.0  0.88815  0.30396  0.38855  1.0000
  Fe  Fe109     1.0  0.93888  0.25889  0.44033  1.0000
  S   S216      1.0  0.97229  0.23949  0.43905  1.0000
  Fe  Fe110     1.0  0.86754  0.11321  0.44936  1.0000
  C   C806      1.0  0.74610  0.10859  0.47894  1.0000
  S   S217      1.0  0.88063  0.14326  0.42948  1.0000
  Fe  Fe111     1.0  0.85303  0.07198  0.44391  1.0000
  H   H983      1.0  0.58103  0.04948  0.40397  1.0000
  S   S218      1.0  0.84669  0.05214  0.42200  1.0000
  H   H984      1.0  0.50935  0.12360  0.29836  1.0000
  H   H985      1.0  0.63963  0.00264  0.40551  1.0000
  H   H986      1.0  0.89592  0.39160  0.45351  1.0000
  H   H987      1.0  0.60666  0.06223  0.25771  1.0000
  C   C807      1.0  0.53341  0.03505  0.43696  1.0000
  S   S219      1.0  0.88582  0.08164  0.44193  1.0000
  H   H988      1.0  0.67412  0.10244  0.46150  1.0000
  H   H989      1.0  0.98674  0.48697  0.40583  1.0000
  H   H990      1.0  0.64562  0.09589  0.26227  1.0000
  N   N58       1.0  0.97401  0.47748  0.43929  1.0000
  S   S220      1.0  0.98325  0.37283  0.40474  1.0000
  H   H991      1.0  0.66376  0.07289  0.25468  1.0000
  H   H992      1.0  0.97978  0.41724  0.40849  1.0000
  H   H993      1.0  0.78700  0.02518  0.47643  1.0000
  Fe  Fe112     1.0  0.71210  0.03380  0.36053  1.0000
  S   S221      1.0  0.69435  0.03710  0.33249  1.0000
  Fe  Fe113     1.0  0.74120  0.05313  0.38133  1.0000
  S   S222      1.0  0.73604  0.02958  0.41270  1.0000
  S   S223      1.0  0.75964  0.08069  0.37937  1.0000
  Fe  Fe114     1.0  0.70089  0.03588  0.40711  1.0000
  S   S224      1.0  0.67068  0.04066  0.43040  1.0000
  S   S225      1.0  0.70561  0.06156  0.37735  1.0000
  C   C808      1.0  0.98027  0.24331  0.46210  1.0000
  C   C809      1.0  0.69437  0.09633  0.43295  1.0000
  C   C810      1.0  0.53094  0.00527  0.42090  1.0000
  C   C811      1.0  0.94672  0.31882  0.48000  1.0000
  C   C812      1.0  0.89258  0.01419  0.44454  1.0000
  C   C813      1.0  0.95351  0.43184  0.25141  1.0000
  Fe  Fe115     1.0  0.55857  0.03978  0.31610  1.0000
  C   C814      1.0  0.49707  0.02397  0.26260  1.0000
  S   S226      1.0  0.56604  0.06223  0.28416  1.0000
  C   C815      1.0  0.98814  0.44051  0.25741  1.0000
  Fe  Fe116     1.0  0.89305  0.25018  0.45705  1.0000
  C   C816      1.0  0.53109  0.11433  0.24936  1.0000
  H   H994      1.0  0.91926  0.32960  0.39485  1.0000
  S   S227      1.0  0.57624  0.03755  0.34382  1.0000
  C   C817      1.0  0.86232  0.36731  0.40096  1.0000
  Fe  Fe117     1.0  0.98133  0.42756  0.33407  1.0000
  S   S228      1.0  0.97183  0.41080  0.31109  1.0000
  C   C818      1.0  0.95527  0.04805  0.48867  1.0000
  S   S229      1.0  0.97236  0.36697  0.35006  1.0000
  H   H995      1.0  0.60840  0.03201  0.28377  1.0000
  H   H996      1.0  0.98349  0.39045  0.44285  1.0000
  Fe  Fe118     1.0  0.94868  0.39690  0.33888  1.0000
  S   S230      1.0  0.91439  0.39442  0.33602  1.0000
  S   S231      1.0  0.92005  0.25537  0.47290  1.0000
  S   S232      1.0  0.95577  0.41613  0.36076  1.0000
  C   C819      1.0  0.64084  0.04113  0.28045  1.0000
  H   H997      1.0  0.89883  0.40160  0.39449  1.0000
  H   H998      1.0  0.92411  0.44770  0.26687  1.0000
  C   C820      1.0  0.54836  0.08698  0.27719  1.0000
  H   H999      1.0  0.98650  0.11508  0.40841  1.0000
  H   H1000     1.0  0.53619  0.09013  0.30941  1.0000
  C   C821      1.0  0.67249  0.02212  0.33957  1.0000
  H   H1001     1.0  0.99388  0.47599  0.46371  1.0000
  C   C822      1.0  0.95747  0.48948  0.37103  1.0000
  C   C823      1.0  0.92880  0.18097  0.48271  1.0000
  H   H1002     1.0  0.50734  0.06337  0.24149  1.0000
  C   C824      1.0  0.65206  0.03220  0.33354  1.0000
  C   C825      1.0  0.59902  0.04644  0.39901  1.0000
  S   S233      1.0  0.52643  0.03627  0.33647  1.0000
  H   H1003     1.0  0.95796  0.31431  0.39363  1.0000
  H   H1004     1.0  0.64988  0.04923  0.32551  1.0000
  C   C826      1.0  0.67590  0.04598  0.45406  1.0000
  C   C827      1.0  0.65879  0.05531  0.46741  1.0000
  H   H1005     1.0  0.99235  0.16293  0.46489  1.0000
  H   H1006     1.0  0.53274  0.05985  0.25220  1.0000
  H   H1007     1.0  0.88239  0.00567  0.41806  1.0000
  C   C828      1.0  0.69695  0.04046  0.45999  1.0000
  H   H1008     1.0  0.64244  0.05953  0.46293  1.0000
  C   C829      1.0  0.94178  0.44586  0.26417  1.0000
  H   H1009     1.0  0.70346  0.00085  0.44410  1.0000
  H   H1010     1.0  0.71023  0.03337  0.44992  1.0000
  H   H1011     1.0  0.63613  0.02354  0.38175  1.0000
  H   H1012     1.0  0.88982  0.34224  0.44289  1.0000
  N   N59       1.0  0.93856  0.11977  0.48246  1.0000
  C   C830      1.0  0.53349  0.02708  0.41867  1.0000
  C   C831      1.0  0.54703  0.09624  0.25554  1.0000
  C   C832      1.0  0.53066  0.02133  0.45737  1.0000
  H   H1013     1.0  0.94152  0.39383  0.42799  1.0000
  H   H1014     1.0  0.93914  0.48035  0.44753  1.0000
  H   H1015     1.0  0.94498  0.48573  0.38429  1.0000
  H   H1016     1.0  0.53054  0.02762  0.47139  1.0000
  C   C833      1.0  0.96472  0.17019  0.42575  1.0000
  H   H1017     1.0  0.64044  0.03078  0.40515  1.0000
  H   H1018     1.0  0.95804  0.45983  0.36052  1.0000
  C   C834      1.0  0.90221  0.00652  0.46338  1.0000
  S   S234      1.0  0.70448  0.00875  0.39005  1.0000
  C   C835      1.0  0.82164  0.05979  0.41158  1.0000
  C   C836      1.0  0.81394  0.04487  0.40309  1.0000
  C   C837      1.0  0.79435  0.05089  0.39398  1.0000
  C   C838      1.0  0.78295  0.07218  0.39252  1.0000
  C   C839      1.0  0.79064  0.08712  0.40100  1.0000
  C   C840      1.0  0.80969  0.08076  0.41096  1.0000
  H   H1019     1.0  0.82324  0.02872  0.40329  1.0000
  H   H1020     1.0  0.78854  0.03936  0.38731  1.0000
  H   H1021     1.0  0.78194  0.10368  0.39964  1.0000
  H   H1022     1.0  0.81558  0.09238  0.41728  1.0000
  C   C841      1.0  0.58845  0.00151  0.43978  1.0000
  H   H1023     1.0  0.93429  0.39185  0.40330  1.0000
  C   C842      1.0  0.95863  0.05680  0.44421  1.0000
  C   C843      1.0  0.98051  0.47967  0.33991  1.0000
  H   H1024     1.0  0.53904  0.01119  0.26748  1.0000
  H   H1025     1.0  0.95986  0.06014  0.42699  1.0000
  H   H1026     1.0  0.98065  0.20975  0.47916  1.0000
  H   H1027     1.0  0.96190  0.27570  0.39123  1.0000
  S   S235      1.0  0.85113  0.05670  0.47877  1.0000
  C   C844      1.0  0.93650  0.05083  0.47874  1.0000
  C   C845      1.0  0.65361  0.99533  0.29504  1.0000
  C   C846      1.0  0.93838  0.05445  0.45654  1.0000
  C   C847      1.0  0.90838  0.37667  0.45321  1.0000
  H   H1028     1.0  0.92435  0.05515  0.44879  1.0000
  H   H1029     1.0  0.86892  0.39661  0.37814  1.0000
  C   C848      1.0  0.88523  0.20194  0.44043  1.0000
  C   C849      1.0  0.88655  0.18424  0.43073  1.0000
  C   C850      1.0  0.87795  0.16540  0.44196  1.0000
  C   C851      1.0  0.71564  0.09148  0.42330  1.0000
  C   C852      1.0  0.95825  0.13909  0.41374  1.0000
  H   H1030     1.0  0.92627  0.33929  0.44141  1.0000
  H   H1031     1.0  0.89406  0.18531  0.41440  1.0000
  H   H1032     1.0  0.98345  0.46314  0.27875  1.0000
  C   C853      1.0  0.96482  0.47476  0.35751  1.0000
  C   C854      1.0  0.59844  0.01034  0.39450  1.0000
  H   H1033     1.0  0.94709  0.13029  0.40941  1.0000
  C   C855      1.0  0.89520  0.32950  0.37500  1.0000
  C   C856      1.0  0.88467  0.34103  0.35736  1.0000
  C   C857      1.0  0.89049  0.36106  0.34561  1.0000
  C   C858      1.0  0.90718  0.36946  0.35118  1.0000
  C   C859      1.0  0.91766  0.35803  0.36894  1.0000
  C   C860      1.0  0.91148  0.33817  0.38101  1.0000
  H   H1034     1.0  0.87202  0.33440  0.35271  1.0000
  H   H1035     1.0  0.88229  0.36991  0.33198  1.0000
  H   H1036     1.0  0.93000  0.36485  0.37376  1.0000
  C   C861      1.0  0.86657  0.18212  0.47264  1.0000
  H   H1037     1.0  0.94369  0.46768  0.28403  1.0000
  H   H1038     1.0  0.62380  0.03734  0.43634  1.0000
  H   H1039     1.0  0.68354  0.00049  0.47828  1.0000
  C   C862      1.0  0.95282  0.45727  0.27362  1.0000
  C   C863      1.0  0.96450  0.32692  0.48406  1.0000
  C   C864      1.0  0.83454  0.99986  0.45428  1.0000
  C   C865      1.0  0.60804  0.02005  0.46512  1.0000
  H   H1040     1.0  0.50638  0.01367  0.25149  1.0000
  C   C866      1.0  0.92744  0.39312  0.41994  1.0000
  C   C867      1.0  0.49857  0.04906  0.28481  1.0000
  H   H1041     1.0  0.86018  0.33792  0.42520  1.0000
  C   C868      1.0  0.63479  0.02016  0.33726  1.0000
  H   H1042     1.0  0.70448  0.09851  0.48165  1.0000
  H   H1043     1.0  0.63260  0.06205  0.24133  1.0000
  H   H1044     1.0  0.92433  0.13157  0.45295  1.0000
  C   C869      1.0  0.97406  0.32616  0.31717  1.0000
  H   H1045     1.0  0.67568  0.04182  0.28090  1.0000
  C   C870      1.0  0.97728  0.48321  0.45922  1.0000
  S   S236      1.0  0.83488  0.10481  0.44785  1.0000
  H   H1046     1.0  0.52445  0.01085  0.29357  1.0000
  C   C871      1.0  0.53508  0.09707  0.29267  1.0000
  S   S237      1.0  0.87915  0.28602  0.45013  1.0000
  N   N60       1.0  0.91619  0.37420  0.43102  1.0000
  H   H1047     1.0  0.60492  0.06328  0.29708  1.0000
  H   H1048     1.0  0.79750  0.09565  0.33977  1.0000
  C   C872      1.0  0.98262  0.22596  0.47989  1.0000
  H   H1049     1.0  0.61958  0.02787  0.33141  1.0000
  H   H1050     1.0  0.92007  0.10445  0.46656  1.0000
  C   C873      1.0  0.67545  0.00003  0.35010  1.0000
  N   N61       1.0  0.98434  0.29812  0.37450  1.0000
  H   H1051     1.0  0.84943  0.36492  0.39298  1.0000
  S   S238      1.0  0.74844  0.02749  0.36157  1.0000
  C   C874      1.0  0.98978  0.48779  0.42191  1.0000
  H   H1052     1.0  0.62660  0.07292  0.30445  1.0000
  C   C875      1.0  0.86846  0.35208  0.41908  1.0000
  H   H1053     1.0  0.98867  0.26786  0.39829  1.0000
  H   H1054     1.0  0.93315  0.16549  0.42038  1.0000
  N   N62       1.0  0.63351  0.06499  0.27341  1.0000
  H   H1055     1.0  0.88682  0.03153  0.43930  1.0000
  C   C876      1.0  0.69071  0.09935  0.45378  1.0000
  C   C877      1.0  0.99491  0.14193  0.41863  1.0000
  N   N63       1.0  0.74858  0.08998  0.46822  1.0000
  H   H1056     1.0  0.94934  0.30739  0.46962  1.0000
  H   H1057     1.0  0.90070  0.36252  0.46295  1.0000
  C   C878      1.0  0.97703  0.44542  0.42210  1.0000
  H   H1058     1.0  0.91629  0.40898  0.41959  1.0000
  S   S239      1.0  0.56769  0.00399  0.31553  1.0000
  H   H1059     1.0  0.54138  0.03108  0.28205  1.0000
  H   H1060     1.0  0.53537  0.05191  0.43538  1.0000
  C   C879      1.0  0.61279  0.02556  0.44292  1.0000
  H   H1061     1.0  0.61726  0.08707  0.24781  1.0000
  H   H1062     1.0  0.61010  0.09040  0.28510  1.0000
  H   H1063     1.0  0.50501  0.08190  0.26835  1.0000
  C   C880      1.0  0.73337  0.08959  0.43442  1.0000
  C   C881      1.0  0.97564  0.45464  0.27037  1.0000
  H   H1064     1.0  0.78893  0.99885  0.38725  1.0000
  H   H1065     1.0  0.77110  0.10363  0.44188  1.0000
  C   C882      1.0  0.51730  0.12407  0.26479  1.0000
  H   H1066     1.0  0.60180  0.05200  0.38133  1.0000
  C   C883      1.0  0.97717  0.05532  0.45406  1.0000
  C   C884      1.0  0.97695  0.45355  0.44059  1.0000
  C   C885      1.0  0.97364  0.30716  0.35488  1.0000
  H   H1067     1.0  0.98018  0.32913  0.38345  1.0000
  C   C886      1.0  0.95099  0.30702  0.35536  1.0000
  H   H1068     1.0  0.99049  0.28397  0.48264  1.0000
  C   C887      1.0  0.94036  0.31610  0.33726  1.0000
  C   C888      1.0  0.95183  0.32576  0.31825  1.0000
  H   H1069     1.0  0.97261  0.10464  0.48244  1.0000
  C   C889      1.0  0.92123  0.12091  0.46904  1.0000
  H   H1070     1.0  0.96571  0.12177  0.45757  1.0000
  H   H1071     1.0  0.79044  0.13480  0.34112  1.0000
  S   S240      1.0  0.53570  0.04495  0.39335  1.0000
  H   H1072     1.0  0.93840  0.35123  0.41519  1.0000
  C   C890      1.0  0.97891  0.43771  0.46007  1.0000
  H   H1073     1.0  0.83288  0.00911  0.43766  1.0000
  C   C891      1.0  0.66908  0.00937  0.29053  1.0000
  C   C892      1.0  0.97957  0.42295  0.42293  1.0000
  H   H1074     1.0  0.94107  0.30038  0.36983  1.0000
  S   S241      1.0  0.87421  0.22269  0.47422  1.0000
  H   H1075     1.0  0.92299  0.31604  0.33813  1.0000
  H   H1076     1.0  0.94343  0.33321  0.30438  1.0000
  Fe  Fe119     1.0  0.88249  0.06930  0.47731  1.0000
  H   H1077     1.0  0.60305  0.01513  0.37700  1.0000
  H   H1078     1.0  0.79559  0.99969  0.44228  1.0000
  C   C893      1.0  0.98128  0.41525  0.46075  1.0000
  C   C894      1.0  0.88567  0.35459  0.42893  1.0000
  C   C895      1.0  0.59356  0.00540  0.47459  1.0000
  C   C896      1.0  0.98743  0.16200  0.42538  1.0000
  S   S242      1.0  0.92971  0.29543  0.43151  1.0000
  H   H1079     1.0  0.74380  0.12458  0.46732  1.0000
  C   C897      1.0  0.52038  0.05106  0.24909  1.0000
  C   C898      1.0  0.95153  0.48736  0.43469  1.0000
  C   C899      1.0  0.63204  0.01984  0.39943  1.0000
  N   N64       1.0  0.60805  0.02297  0.40604  1.0000
  H   H1080     1.0  0.55751  0.08870  0.24349  1.0000
  C   C900      1.0  0.66292  0.03194  0.28330  1.0000
  H   H1081     1.0  0.61543  0.02734  0.47506  1.0000
  C   C901      1.0  0.60323  0.01637  0.42953  1.0000
  Fe  Fe120     1.0  0.83506  0.09028  0.48280  1.0000
  H   H1082     1.0  0.98614  0.20570  0.41539  1.0000
  H   H1083     1.0  0.49989  0.02173  0.38699  1.0000
  S   S243      1.0  0.86624  0.10165  0.48481  1.0000
  H   H1084     1.0  0.86085  0.15005  0.47165  1.0000
  C   C902      1.0  0.98170  0.40788  0.44222  1.0000
  S   S244      1.0  0.98951  0.46179  0.32233  1.0000
  C   C903      1.0  0.70830  0.09729  0.46513  1.0000
  H   H1085     1.0  0.98078  0.32164  0.47688  1.0000
  C   C904      1.0  0.70086  0.04365  0.47939  1.0000
  H   H1086     1.0  0.99179  0.99520  0.41244  1.0000
  H   H1087     1.0  0.97817  0.18950  0.45363  1.0000
  H   H1088     1.0  0.84611  0.00722  0.46057  1.0000
  C   C905      1.0  0.97559  0.05028  0.47633  1.0000
  Fe  Fe121     1.0  0.54523  0.02998  0.36444  1.0000
  C   C906      1.0  0.97601  0.31239  0.38991  1.0000
  C   C907      1.0  0.89021  0.99966  0.43248  1.0000
  H   H1089     1.0  0.95784  0.09512  0.46644  1.0000
  Fe  Fe122     1.0  0.90827  0.29145  0.46295  1.0000
  N   N65       1.0  0.84929  0.12790  0.37905  1.0000
  C   C908      1.0  0.86203  0.14337  0.36338  1.0000
  C   C909      1.0  0.83513  0.13992  0.39454  1.0000
  C   C910      1.0  0.86496  0.11079  0.39111  1.0000
  C   C911      1.0  0.83577  0.11889  0.36771  1.0000
  C   C912      1.0  0.81797  0.13260  0.35788  1.0000
  C   C913      1.0  0.83985  0.09662  0.36582  1.0000
  C   C914      1.0  0.80442  0.12426  0.34787  1.0000
  C   C915      1.0  0.82631  0.08854  0.35558  1.0000
  C   C916      1.0  0.80848  0.10224  0.34688  1.0000
  H   H1090     1.0  0.85128  0.15737  0.35449  1.0000
  H   H1091     1.0  0.87250  0.15044  0.37134  1.0000
  H   H1092     1.0  0.87285  0.13504  0.35139  1.0000
  H   H1093     1.0  0.82551  0.15542  0.38668  1.0000
  H   H1094     1.0  0.84481  0.14482  0.40500  1.0000
  H   H1095     1.0  0.82340  0.12969  0.40505  1.0000
  H   H1096     1.0  0.87747  0.10232  0.38037  1.0000
  H   H1097     1.0  0.87422  0.11785  0.40026  1.0000
  H   H1098     1.0  0.85637  0.09829  0.40282  1.0000
  H   H1099     1.0  0.81420  0.14982  0.35809  1.0000
  H   H1100     1.0  0.85291  0.08483  0.37276  1.0000
  Fe  Fe123     1.0  0.74013  0.00456  0.39283  1.0000
  H   H1101     1.0  0.82912  0.07130  0.35513  1.0000
  C   C917      1.0  0.86784  0.16438  0.46293  1.0000
  H   H1102     1.0  0.80167  0.03276  0.45045  1.0000
  C   C918      1.0  0.95042  0.15887  0.42000  1.0000
  Fe  Fe124     1.0  0.98139  0.38715  0.36996  1.0000
  C   C919      1.0  0.51995  0.11601  0.28640  1.0000
  C   C920      1.0  0.62555  0.02627  0.28508  1.0000
  H   H1103     1.0  0.60659  0.05721  0.40584  1.0000
  C   C921      1.0  0.95955  0.10994  0.47181  1.0000
  C   C922      1.0  0.87535  0.20095  0.46145  1.0000
  C   C923      1.0  0.97632  0.42915  0.24799  1.0000
  C   C924      1.0  0.73023  0.09267  0.45569  1.0000
  C   C925      1.0  0.77036  0.08889  0.45512  1.0000
  H   H1104     1.0  0.89150  0.21647  0.43144  1.0000
  H   H1105     1.0  0.96498  0.47754  0.47287  1.0000
  C   C926      1.0  0.89753  0.37237  0.42068  1.0000
  C   C927      1.0  0.98217  0.26442  0.46340  1.0000
  C   C928      1.0  0.87329  0.38518  0.39268  1.0000
  N   N66       1.0  0.51126  0.03684  0.26893  1.0000
  H   H1106     1.0  0.95782  0.18555  0.43035  1.0000
  H   H1107     1.0  0.92202  0.37782  0.46165  1.0000
  H   H1108     1.0  0.98940  0.38304  0.27610  1.0000
  C   C929      1.0  0.61817  0.07325  0.29068  1.0000
  H   H1109     1.0  0.98992  0.04828  0.48409  1.0000
  H   H1110     1.0  0.58025  0.01339  0.39711  1.0000
  H   H1111     1.0  0.94735  0.35520  0.43856  1.0000
  C   C930      1.0  0.80354  0.02365  0.46712  1.0000
  H   H1112     1.0  0.98304  0.30580  0.40525  1.0000
  H   H1113     1.0  0.68069  0.09719  0.42444  1.0000
  H   H1114     1.0  0.77450  0.07397  0.44833  1.0000
  C   C931      1.0  0.63776  0.99796  0.34732  1.0000
  H   H1115     1.0  0.66034  0.07665  0.28178  1.0000
  C   C932      1.0  0.52980  0.02176  0.27838  1.0000
  H   H1116     1.0  0.98013  0.27793  0.44976  1.0000
  H   H1117     1.0  0.68581  0.00285  0.29347  1.0000
  C   C933      1.0  0.89066  0.38778  0.40228  1.0000
  C   C934      1.0  0.93270  0.35410  0.43156  1.0000
  H   H1118     1.0  0.74930  0.08544  0.42602  1.0000
  C   C935      1.0  0.63191  0.00375  0.29227  1.0000
  C   C936      1.0  0.98044  0.13061  0.41310  1.0000
  H   H1119     1.0  0.94815  0.48458  0.41945  1.0000
  C   C937      1.0  0.98491  0.31708  0.33514  1.0000
  H   H1120     1.0  0.97851  0.44220  0.47507  1.0000
  H   H1121     1.0  0.98288  0.33391  0.30237  1.0000
  H   H1122     1.0  0.97495  0.45638  0.40680  1.0000
  H   H1123     1.0  0.76067  0.10807  0.48684  1.0000
  H   H1124     1.0  0.98871  0.33848  0.44153  1.0000
  H   H1125     1.0  0.81418  0.03221  0.47329  1.0000
  C   C938      1.0  0.97936  0.27573  0.38453  1.0000
  H   H1126     1.0  0.98266  0.40346  0.47582  1.0000
  H   H1127     1.0  0.90339  0.01873  0.47192  1.0000
  C   C939      1.0  0.65167  0.07810  0.26777  1.0000
  H   H1128     1.0  0.53079  0.99893  0.40703  1.0000
  C   C940      1.0  0.66295  0.05959  0.48639  1.0000
  H   H1129     1.0  0.85874  0.18128  0.48886  1.0000
  C   C941      1.0  0.52752  0.99970  0.45953  1.0000
  Fe  Fe125     1.0  0.58331  0.00157  0.34476  1.0000
  H   H1130     1.0  0.98336  0.26498  0.37282  1.0000
  H   H1131     1.0  0.91351  0.16147  0.46948  1.0000
  H   H1132     1.0  0.78371  0.08809  0.46478  1.0000
  H   H1133     1.0  0.94488  0.42309  0.24391  1.0000
  H   H1134     1.0  0.71704  0.03872  0.48415  1.0000
  Fe  Fe126     1.0  0.53657  0.00018  0.33768  1.0000
  H   H1135     1.0  0.82807  0.99426  0.39243  1.0000
  C   C942      1.0  0.98753  0.26797  0.48211  1.0000
  H   H1136     1.0  0.74952  0.05513  0.47728  1.0000
  S   S245      1.0  0.90295  0.31590  0.48427  1.0000
  N   N67       1.0  0.81315  0.00031  0.46796  1.0000
  C   C943      1.0  0.74851  0.06937  0.48466  1.0000
  H   H1137     1.0  0.91765  0.19574  0.47703  1.0000
  S   S246      1.0  0.55321  0.99375  0.36713  1.0000
  C   C944      1.0  0.92658  0.16101  0.47851  1.0000
  C   C945      1.0  0.94074  0.14134  0.48604  1.0000
  H   H1138     1.0  0.90478  0.12718  0.47661  1.0000
  C   C946      1.0  0.99417  0.17854  0.45305  1.0000
  C   C947      1.0  0.58387  0.99609  0.46200  1.0000
  C   C948      1.0  0.92566  0.32553  0.48938  1.0000
  S   S247      1.0  0.49537  0.14466  0.25729  1.0000
  C   C949      1.0  0.49644  0.07212  0.28184  1.0000
  H   H1139     1.0  0.57988  0.99410  0.43104  1.0000
  H   H1140     1.0  0.98546  0.37652  0.24070  1.0000
  S   S248      1.0  0.77611  0.01247  0.56828  1.0000
  H   H1141     1.0  0.63867  0.02970  0.53152  1.0000
  H   H1142     1.0  0.66391  0.05482  0.58182  1.0000
  H   H1143     1.0  0.97228  0.16393  0.51063  1.0000
  H   H1144     1.0  0.98252  0.47318  0.57238  1.0000
  H   H1145     1.0  0.51486  0.00717  0.67747  1.0000
  H   H1146     1.0  0.52818  0.02174  0.59314  1.0000
  C   C950      1.0  0.65104  0.04477  0.58660  1.0000
  C   C951      1.0  0.49673  0.04713  0.63067  1.0000
  H   H1147     1.0  0.92422  0.48004  0.62586  1.0000
  H   H1148     1.0  0.56337  0.07177  0.58790  1.0000
  S   S249      1.0  0.98457  0.35168  0.50111  1.0000
  C   C952      1.0  0.89844  0.21354  0.54062  1.0000
  C   C953      1.0  0.96461  0.39326  0.65495  1.0000
  H   H1149     1.0  0.90424  0.29463  0.53089  1.0000
  H   H1150     1.0  0.92848  0.27918  0.50347  1.0000
  Fe  Fe127     1.0  0.97652  0.38934  0.56492  1.0000
  H   H1151     1.0  0.73336  0.06975  0.49629  1.0000
  C   C954      1.0  0.88821  0.45323  0.72527  1.0000
  S   S250      1.0  0.49702  0.05090  0.65642  1.0000
  S   S251      1.0  0.98825  0.41232  0.73017  1.0000
  C   C955      1.0  0.97930  0.48485  0.58253  1.0000
  H   H1152     1.0  0.97737  0.44258  0.62872  1.0000
  C   C956      1.0  0.51447  0.03153  0.60037  1.0000
  N   N68       1.0  0.59141  0.04895  0.57896  1.0000
  H   H1153     1.0  0.99014  0.33186  0.61394  1.0000
  C   C957      1.0  0.95678  0.46651  0.53149  1.0000
  S   S252      1.0  0.59994  0.01564  0.52643  1.0000
  H   H1154     1.0  0.57843  0.05660  0.60943  1.0000
  H   H1155     1.0  0.73212  0.10851  0.49187  1.0000
  H   H1156     1.0  0.95329  0.45028  0.53258  1.0000
  C   C958      1.0  0.77377  0.07284  0.52998  1.0000
  C   C959      1.0  0.94170  0.48124  0.54152  1.0000
  H   H1157     1.0  0.90056  0.19610  0.54757  1.0000
  H   H1158     1.0  0.93069  0.08864  0.50124  1.0000
  C   C960      1.0  0.80592  0.03786  0.54422  1.0000
  C   C961      1.0  0.59324  0.06058  0.55614  1.0000
  Fe  Fe128     1.0  0.95215  0.42257  0.73801  1.0000
  C   C962      1.0  0.87912  0.24505  0.51867  1.0000
  H   H1159     1.0  0.98504  0.30834  0.59135  1.0000
  S   S253      1.0  0.95290  0.45861  0.72762  1.0000
  S   S254      1.0  0.98380  0.44797  0.68449  1.0000
  S   S255      1.0  0.70328  0.99672  0.52673  1.0000
  C   C963      1.0  0.58011  0.06469  0.59217  1.0000
  H   H1160     1.0  0.99041  0.21603  0.51222  1.0000
  H   H1161     1.0  0.87266  0.45889  0.69701  1.0000
  C   C964      1.0  0.81024  0.99659  0.50821  1.0000
  S   S256      1.0  0.94437  0.41900  0.70658  1.0000
  C   C965      1.0  0.89297  0.25827  0.52215  1.0000
  H   H1162     1.0  0.66797  0.01273  0.55373  1.0000
  H   H1163     1.0  0.87141  0.21253  0.52454  1.0000
  H   H1164     1.0  0.75074  0.05315  0.55008  1.0000
  H   H1165     1.0  0.95847  0.46097  0.64226  1.0000
  S   S257      1.0  0.92614  0.47547  0.67210  1.0000
  C   C966      1.0  0.92257  0.34024  0.50297  1.0000
  C   C967      1.0  0.94044  0.34840  0.50698  1.0000
  H   H1166     1.0  0.92370  0.48212  0.59791  1.0000
  C   C968      1.0  0.63916  0.01037  0.60441  1.0000
  C   C969      1.0  0.95734  0.14306  0.49764  1.0000
  H   H1167     1.0  0.90629  0.34549  0.51031  1.0000
  H   H1168     1.0  0.93795  0.35986  0.51733  1.0000
  S   S258      1.0  0.95505  0.38807  0.59642  1.0000
  C   C970      1.0  0.63022  0.05304  0.58052  1.0000
  C   C971      1.0  0.95699  0.44765  0.59530  1.0000
  H   H1169     1.0  0.92514  0.21832  0.55394  1.0000
  C   C972      1.0  0.57744  0.03188  0.58144  1.0000
  H   H1170     1.0  0.76254  0.06611  0.49399  1.0000
  C   C973      1.0  0.62034  0.00285  0.54276  1.0000
  C   C974      1.0  0.94503  0.18200  0.49443  1.0000
  S   S259      1.0  0.80243  0.09646  0.50209  1.0000
  H   H1171     1.0  0.95252  0.26368  0.55369  1.0000
  C   C975      1.0  0.98736  0.38994  0.65400  1.0000
  H   H1172     1.0  0.90451  0.00079  0.50701  1.0000
  H   H1173     1.0  0.62759  0.06976  0.57159  1.0000
  H   H1174     1.0  0.95446  0.39621  0.66939  1.0000
  C   C976      1.0  0.96147  0.34177  0.49742  1.0000
  C   C977      1.0  0.81183  0.05630  0.52908  1.0000
  H   H1175     1.0  0.57292  0.02413  0.59847  1.0000
  H   H1176     1.0  0.81839  0.02445  0.54990  1.0000
  H   H1177     1.0  0.80260  0.01340  0.50757  1.0000
  H   H1178     1.0  0.64917  0.00427  0.50080  1.0000
  C   C978      1.0  0.91246  0.22659  0.54418  1.0000
  H   H1179     1.0  0.94608  0.10167  0.51379  1.0000
  S   S260      1.0  0.74724  0.01817  0.52062  1.0000
  H   H1180     1.0  0.58578  0.01889  0.57277  1.0000
  H   H1181     1.0  0.95156  0.27919  0.51611  1.0000
  H   H1182     1.0  0.57714  0.06507  0.54991  1.0000
  Fe  Fe129     1.0  0.52175  0.01272  0.55056  1.0000
  Fe  Fe130     1.0  0.71147  0.02836  0.52962  1.0000
  H   H1183     1.0  0.94984  0.43751  0.63813  1.0000
  C   C979      1.0  0.99006  0.25066  0.49983  1.0000
  H   H1184     1.0  0.89061  0.27530  0.51394  1.0000
  H   H1185     1.0  0.50555  0.00939  0.72472  1.0000
  H   H1186     1.0  0.98388  0.28159  0.57637  1.0000
  H   H1187     1.0  0.91762  0.11196  0.51202  1.0000
  S   S261      1.0  0.96323  0.40245  0.53328  1.0000
  Fe  Fe131     1.0  0.56890  0.00135  0.53329  1.0000
  C   C980      1.0  0.96476  0.48217  0.60186  1.0000
  C   C981      1.0  0.95999  0.45054  0.63058  1.0000
  H   H1188     1.0  0.86657  0.25200  0.50824  1.0000
  N   N69       1.0  0.95303  0.46312  0.60982  1.0000
  C   C982      1.0  0.61335  0.03989  0.58564  1.0000
  H   H1189     1.0  0.59985  0.07615  0.55325  1.0000
  C   C983      1.0  0.87421  0.46519  0.71063  1.0000
  H   H1190     1.0  0.52869  0.02754  0.62932  1.0000
  S   S262      1.0  0.68974  0.05871  0.51582  1.0000
  S   S263      1.0  0.54011  0.02182  0.51789  1.0000
  Fe  Fe132     1.0  0.99250  0.41987  0.52466  1.0000
  H   H1191     1.0  0.93275  0.24686  0.56850  1.0000
  H   H1192     1.0  0.76129  0.08646  0.52481  1.0000
  H   H1193     1.0  0.58921  0.07857  0.59023  1.0000
  C   C984      1.0  0.65551  0.02346  0.59849  1.0000
  S   S264      1.0  0.71204  0.01899  0.56485  1.0000
  H   H1194     1.0  0.90283  0.28002  0.55827  1.0000
  C   C985      1.0  0.65484  0.00383  0.55413  1.0000
  C   C986      1.0  0.51471  0.03479  0.62090  1.0000
  C   C987      1.0  0.61838  0.01832  0.59811  1.0000
  C   C988      1.0  0.92913  0.47096  0.61280  1.0000
  H   H1195     1.0  0.92557  0.29408  0.54562  1.0000
  Fe  Fe133     1.0  0.98849  0.44830  0.71773  1.0000
  H   H1196     1.0  0.95174  0.45583  0.57948  1.0000
  H   H1197     1.0  0.94764  0.43374  0.60171  1.0000
  C   C989      1.0  0.95940  0.16311  0.50174  1.0000
  H   H1198     1.0  0.82885  0.05715  0.52327  1.0000
  C   C990      1.0  0.63794  0.01366  0.54185  1.0000
  H   H1199     1.0  0.92662  0.47629  0.55032  1.0000
  H   H1200     1.0  0.93727  0.39469  0.63825  1.0000
  H   H1201     1.0  0.95256  0.23829  0.54718  1.0000
  C   C991      1.0  0.94146  0.25246  0.55232  1.0000
  C   C992      1.0  0.97609  0.47292  0.51985  1.0000
  C   C993      1.0  0.91016  0.24945  0.53494  1.0000
  H   H1202     1.0  0.58964  0.00144  0.49174  1.0000
  H   H1203     1.0  0.98980  0.31406  0.54892  1.0000
  H   H1204     1.0  0.60406  0.05012  0.54598  1.0000
  H   H1205     1.0  0.93126  0.00429  0.49270  1.0000
  H   H1206     1.0  0.56168  0.03876  0.57488  1.0000
  H   H1207     1.0  0.91955  0.45716  0.61719  1.0000
  H   H1208     1.0  0.97448  0.44014  0.59305  1.0000
  C   C994      1.0  0.95489  0.39231  0.63731  1.0000
  C   C995      1.0  0.93305  0.10491  0.50327  1.0000
  C   C996      1.0  0.91407  0.28381  0.54322  1.0000
  Fe  Fe134     1.0  0.98063  0.41268  0.69746  1.0000
  S   S265      1.0  0.91088  0.05011  0.49432  1.0000
  Fe  Fe135     1.0  0.94808  0.45439  0.69553  1.0000
  C   C997      1.0  0.78384  0.03654  0.55152  1.0000
  H   H1209     1.0  0.52239  0.04880  0.72348  1.0000
  H   H1210     1.0  0.60675  0.00704  0.60284  1.0000
  H   H1211     1.0  0.94681  0.25449  0.50975  1.0000
  C   C998      1.0  0.76779  0.05404  0.54435  1.0000
  C   C999      1.0  0.88191  0.22273  0.52779  1.0000
  C   C1000     1.0  0.79572  0.07375  0.52187  1.0000
  C   C1001     1.0  0.96783  0.38849  0.61846  1.0000
  N   N70       1.0  0.92583  0.26341  0.53674  1.0000
  C   C1002     1.0  0.93879  0.26937  0.51568  1.0000
  C   C1003     1.0  0.98755  0.22961  0.49881  1.0000
  H   H1212     1.0  0.89723  0.43741  0.72324  1.0000
  Fe  Fe136     1.0  0.98596  0.37386  0.52312  1.0000
  H   H1213     1.0  0.94641  0.19751  0.49780  1.0000
  H   H1214     1.0  0.96889  0.12887  0.50371  1.0000
  H   H1215     1.0  0.67179  0.01689  0.60279  1.0000
  H   H1216     1.0  0.95402  0.04471  0.50589  1.0000
  C   C1004     1.0  0.86255  0.48546  0.71330  1.0000
  H   H1217     1.0  0.64985  0.06710  0.49658  1.0000
  C   C1005     1.0  0.99060  0.38529  0.61743  1.0000
  Fe  Fe137     1.0  0.74735  0.00606  0.55597  1.0000
  C   C1006     1.0  0.68403  0.05373  0.49231  1.0000
  S   S266      1.0  0.99473  0.45455  0.50702  1.0000
  H   H1218     1.0  0.49539  0.02673  0.70103  1.0000
  C   C1007     1.0  0.49637  0.04082  0.58946  1.0000
  H   H1219     1.0  0.64295  0.99361  0.61323  1.0000
  S   S267      1.0  0.55101  0.99463  0.56630  1.0000
  H   H1220     1.0  0.54077  0.46718  0.92291  1.0000
  C   C1008     1.0  0.59124  0.22386  0.95502  1.0000
  H   H1221     1.0  0.63778  0.42490  0.86568  1.0000
  C   C1009     1.0  0.95709  0.44764  0.90098  1.0000
  H   H1222     1.0  0.50998  0.12247  0.96759  1.0000
  N   N71       1.0  0.61444  0.49274  0.82129  1.0000
  C   C1010     1.0  0.94158  0.45633  0.80006  1.0000
  H   H1223     1.0  0.63474  0.45150  0.96190  1.0000
  H   H1224     1.0  0.90422  0.44079  0.91915  1.0000
  C   C1011     1.0  0.80495  0.44058  0.92236  1.0000
  Fe  Fe138     1.0  0.58858  0.39874  0.96049  1.0000
  H   H1225     1.0  0.58507  0.28337  0.96057  1.0000
  H   H1226     1.0  0.88225  0.45942  0.78492  1.0000
  H   H1227     1.0  0.74349  0.44491  0.87884  1.0000
  C   C1012     1.0  0.63522  0.48499  0.88376  1.0000
  Fe  Fe139     1.0  0.85667  0.47494  0.89290  1.0000
  S   S268      1.0  0.86518  0.45526  0.86744  1.0000
  S   S269      1.0  0.85377  0.45827  0.92782  1.0000
  Fe  Fe140     1.0  0.88529  0.48119  0.85020  1.0000
  S   S270      1.0  0.91885  0.47590  0.83195  1.0000
  Fe  Fe141     1.0  0.83755  0.47808  0.85216  1.0000
  S   S271      1.0  0.81679  0.46646  0.83367  1.0000
  C   C1013     1.0  0.57440  0.25146  0.97502  1.0000
  H   H1228     1.0  0.50457  0.36340  0.90246  1.0000
  Fe  Fe142     1.0  0.56409  0.24828  0.90685  1.0000
  S   S272      1.0  0.57060  0.21148  0.91376  1.0000
  S   S273      1.0  0.58971  0.26910  0.90568  1.0000
  Fe  Fe143     1.0  0.54703  0.21460  0.89047  1.0000
  S   S274      1.0  0.55361  0.19019  0.86952  1.0000
  Fe  Fe144     1.0  0.57267  0.42897  0.92121  1.0000
  S   S275      1.0  0.59130  0.39483  0.92660  1.0000
  S   S276      1.0  0.58117  0.45657  0.89405  1.0000
  Fe  Fe145     1.0  0.54045  0.41925  0.96126  1.0000
  C   C1014     1.0  0.92084  0.43700  0.88837  1.0000
  H   H1229     1.0  0.52723  0.32647  0.91345  1.0000
  H   H1230     1.0  0.78190  0.44635  0.86938  1.0000
  S   S277      1.0  0.57162  0.43357  0.95440  1.0000
  S   S278      1.0  0.54013  0.41781  0.92744  1.0000
  C   C1015     1.0  0.66404  0.44242  0.84977  1.0000
  H   H1231     1.0  0.95853  0.44222  0.77377  1.0000
  C   C1016     1.0  0.51296  0.04501  0.78452  1.0000
  H   H1232     1.0  0.95286  0.46778  0.79809  1.0000
  S   S279      1.0  0.55724  0.38456  0.97087  1.0000
  H   H1233     1.0  0.58805  0.33887  0.92626  1.0000
  C   C1017     1.0  0.74879  0.48591  0.90157  1.0000
  C   C1018     1.0  0.57713  0.29470  0.91096  1.0000
  C   C1019     1.0  0.55478  0.30135  0.90988  1.0000
  C   C1020     1.0  0.54447  0.32140  0.91465  1.0000
  C   C1021     1.0  0.55635  0.33493  0.92067  1.0000
  C   C1022     1.0  0.57877  0.32841  0.92174  1.0000
  C   C1023     1.0  0.58919  0.30832  0.91673  1.0000
  H   H1234     1.0  0.54547  0.29124  0.90493  1.0000
  H   H1235     1.0  0.60943  0.45210  0.84978  1.0000
  C   C1024     1.0  0.63122  0.47503  0.83084  1.0000
  H   H1236     1.0  0.60654  0.30330  0.91740  1.0000
  N   N72       1.0  0.62099  0.48568  0.95852  1.0000
  C   C1025     1.0  0.64796  0.41082  0.98771  1.0000
  H   H1237     1.0  0.97040  0.45203  0.90677  1.0000
  C   C1026     1.0  0.86826  0.46582  0.94516  1.0000
  H   H1238     1.0  0.53152  0.14987  0.94665  1.0000
  H   H1239     1.0  0.73874  0.45408  0.93431  1.0000
  C   C1027     1.0  0.64225  0.43938  0.85429  1.0000
  S   S280      1.0  0.54192  0.19059  0.97054  1.0000
  C   C1028     1.0  0.96160  0.45871  0.98715  1.0000
  H   H1240     1.0  0.99510  0.46392  0.87841  1.0000
  H   H1241     1.0  0.61710  0.25938  0.96902  1.0000
  H   H1242     1.0  0.72487  0.46970  0.88043  1.0000
  H   H1243     1.0  0.80274  0.46793  0.97054  1.0000
  H   H1244     1.0  0.60573  0.45678  0.96975  1.0000
  C   C1029     1.0  0.74235  0.46204  0.88063  1.0000
  C   C1030     1.0  0.51307  0.16119  0.84713  1.0000
  C   C1031     1.0  0.93745  0.44687  0.91474  1.0000
  S   S281      1.0  0.49691  0.05615  0.84532  1.0000
  S   S282      1.0  0.51775  0.21352  0.91513  1.0000
  C   C1032     1.0  0.49999  0.18471  0.96969  1.0000
  H   H1245     1.0  0.49909  0.19922  0.95712  1.0000
  C   C1033     1.0  0.86284  0.45885  0.96721  1.0000
  C   C1034     1.0  0.94028  0.43783  0.87447  1.0000
  H   H1246     1.0  0.51130  0.04443  0.80145  1.0000
  H   H1247     1.0  0.81962  0.43059  0.87270  1.0000
  H   H1248     1.0  0.55384  0.03802  0.74424  1.0000
  C   C1035     1.0  0.94480  0.44190  0.78618  1.0000
  C   C1036     1.0  0.51900  0.17715  0.97942  1.0000
  C   C1037     1.0  0.65030  0.46860  0.89439  1.0000
  H   H1249     1.0  0.87823  0.48168  0.79792  1.0000
  C   C1038     1.0  0.61393  0.48127  0.88395  1.0000
  C   C1039     1.0  0.60764  0.46116  0.89467  1.0000
  C   C1040     1.0  0.62258  0.44489  0.90562  1.0000
  C   C1041     1.0  0.64392  0.44860  0.90546  1.0000
  H   H1250     1.0  0.67645  0.43033  0.85759  1.0000
  H   H1251     1.0  0.50370  0.08492  0.97387  1.0000
  H   H1252     1.0  0.61781  0.42938  0.91413  1.0000
  H   H1253     1.0  0.65543  0.43598  0.91395  1.0000
  H   H1254     1.0  0.71834  0.45865  0.91731  1.0000
  H   H1255     1.0  0.79290  0.47388  0.79837  1.0000
  C   C1042     1.0  0.53028  0.18477  0.86146  1.0000
  C   C1043     1.0  0.90906  0.44156  0.81823  1.0000
  H   H1256     1.0  0.61658  0.46132  0.94220  1.0000
  C   C1044     1.0  0.62600  0.45533  0.84497  1.0000
  H   H1257     1.0  0.54677  0.15460  0.85295  1.0000
  C   C1045     1.0  0.92342  0.45653  0.81580  1.0000
  H   H1258     1.0  0.89514  0.44142  0.83044  1.0000
  H   H1259     1.0  0.97454  0.41934  0.84880  1.0000
  H   H1260     1.0  0.96347  0.45819  0.83725  1.0000
  H   H1261     1.0  0.50905  0.33549  0.94870  1.0000
  C   C1046     1.0  0.53504  0.27809  0.98746  1.0000
  C   C1047     1.0  0.98613  0.42217  0.85864  1.0000
  H   H1262     1.0  0.97004  0.47724  0.85056  1.0000
  H   H1263     1.0  0.68675  0.46353  0.83200  1.0000
  H   H1264     1.0  0.85004  0.44893  0.97322  1.0000
  H   H1265     1.0  0.94036  0.43465  0.85888  1.0000
  C   C1048     1.0  0.78737  0.44475  0.88463  1.0000
  C   C1049     1.0  0.80926  0.43563  0.88630  1.0000
  C   C1050     1.0  0.65369  0.47711  0.82587  1.0000
  H   H1266     1.0  0.61816  0.21150  0.98577  1.0000
  C   C1051     1.0  0.90666  0.49109  0.76357  1.0000
  H   H1267     1.0  0.64126  0.47544  0.98392  1.0000
  H   H1268     1.0  0.75571  0.48776  0.91550  1.0000
  C   C1052     1.0  0.89060  0.47729  0.97392  1.0000
  H   H1269     1.0  0.58468  0.23471  0.94065  1.0000
  H   H1270     1.0  0.50956  0.21395  0.86833  1.0000
  H   H1271     1.0  0.75139  0.47138  0.86624  1.0000
  C   C1053     1.0  0.50789  0.12809  0.95092  1.0000
  C   C1054     1.0  0.78304  0.44963  0.92093  1.0000
  C   C1055     1.0  0.51859  0.15242  0.91751  1.0000
  C   C1056     1.0  0.61321  0.24924  0.95885  1.0000
  C   C1057     1.0  0.62626  0.40741  0.98922  1.0000
  C   C1058     1.0  0.51052  0.19917  0.86259  1.0000
  H   H1272     1.0  0.49923  0.07894  0.93695  1.0000
  C   C1059     1.0  0.50387  0.14542  0.90783  1.0000
  S   S283      1.0  0.62004  0.38918  0.97543  1.0000
  H   H1273     1.0  0.77372  0.45534  0.93460  1.0000
  H   H1274     1.0  0.51069  0.29798  0.94569  1.0000
  H   H1275     1.0  0.73795  0.43387  0.91945  1.0000
  C   C1060     1.0  0.91941  0.44146  0.90847  1.0000
  H   H1276     1.0  0.90676  0.43295  0.88345  1.0000
  C   C1061     1.0  0.61946  0.46287  0.95809  1.0000
  C   C1062     1.0  0.66978  0.46115  0.83544  1.0000
  S   S284      1.0  0.50929  0.43148  0.98072  1.0000
  C   C1063     1.0  0.49850  0.05208  0.75085  1.0000
  C   C1064     1.0  0.97582  0.46112  0.84616  1.0000
  H   H1277     1.0  0.95819  0.47192  0.97283  1.0000
  H   H1278     1.0  0.55135  0.30550  0.97143  1.0000
  S   S285      1.0  0.67665  0.47364  0.89485  1.0000
  H   H1279     1.0  0.60652  0.21364  0.94945  1.0000
  H   H1280     1.0  0.50442  0.01175  0.83960  1.0000
  S   S286      1.0  0.54219  0.35961  0.92693  1.0000
  H   H1281     1.0  0.60930  0.26010  0.94332  1.0000
  H   H1282     1.0  0.93609  0.45052  0.93037  1.0000
  C   C1065     1.0  0.49657  0.37026  0.96308  1.0000
  H   H1283     1.0  0.52854  0.16452  0.90831  1.0000
  S   S287      1.0  0.53645  0.24963  0.93325  1.0000
  S   S288      1.0  0.54312  0.25143  0.88112  1.0000
  C   C1066     1.0  0.91251  0.42688  0.80455  1.0000
  C   C1067     1.0  0.93005  0.42740  0.78812  1.0000
  H   H1284     1.0  0.98735  0.40823  0.87271  1.0000
  C   C1068     1.0  0.87380  0.46475  0.98155  1.0000
  C   C1069     1.0  0.52038  0.14398  0.93907  1.0000
  Fe  Fe146     1.0  0.51581  0.25009  0.90812  1.0000
  H   H1285     1.0  0.61608  0.47884  0.79401  1.0000
  H   H1286     1.0  0.51213  0.36118  0.96898  1.0000
  C   C1070     1.0  0.89085  0.46163  0.74244  1.0000
  C   C1071     1.0  0.79261  0.48418  0.82755  1.0000
  N   N73       1.0  0.97955  0.44345  0.86532  1.0000
  S   S289      1.0  0.93253  0.41070  0.76960  1.0000
  H   H1287     1.0  0.85670  0.47731  0.78501  1.0000
  H   H1288     1.0  0.58805  0.47407  0.82569  1.0000
  H   H1289     1.0  0.51417  0.14660  0.84104  1.0000
  C   C1072     1.0  0.53742  0.04144  0.75225  1.0000
  C   C1073     1.0  0.77353  0.45197  0.90200  1.0000
  C   C1074     1.0  0.53150  0.16577  0.85378  1.0000
  N   N74       1.0  0.88302  0.49111  0.76358  1.0000
  H   H1290     1.0  0.54790  0.03596  0.78317  1.0000
  H   H1291     1.0  0.97235  0.44453  0.98174  1.0000
  C   C1075     1.0  0.73589  0.45178  0.91869  1.0000
  C   C1076     1.0  0.51558  0.48753  0.93926  1.0000
  C   C1077     1.0  0.81804  0.43361  0.90508  1.0000
  C   C1078     1.0  0.87468  0.47683  0.78371  1.0000
  H   H1292     1.0  0.83515  0.42702  0.90615  1.0000
  C   C1079     1.0  0.95911  0.44296  0.88037  1.0000
  C   C1080     1.0  0.57214  0.27474  0.96967  1.0000
  Fe  Fe147     1.0  0.54088  0.21311  0.93798  1.0000
  Fe  Fe148     1.0  0.55851  0.38383  0.93640  1.0000
  C   C1081     1.0  0.79044  0.48022  0.97749  1.0000
  C   C1082     1.0  0.78434  0.48446  0.80884  1.0000
  H   H1293     1.0  0.81204  0.43939  0.93677  1.0000
  C   C1083     1.0  0.49665  0.32660  0.95844  1.0000
  H   H1294     1.0  0.99095  0.46254  0.83462  1.0000
  H   H1295     1.0  0.63943  0.49064  0.92692  1.0000
  H   H1296     1.0  0.91622  0.47439  0.76559  1.0000
  H   H1297     1.0  0.90114  0.41558  0.80623  1.0000
  H   H1298     1.0  0.77747  0.47136  0.98781  1.0000
  C   C1084     1.0  0.62545  0.48582  0.98016  1.0000
  H   H1299     1.0  0.62846  0.23800  0.95499  1.0000
  N   N75       1.0  0.75057  0.46264  0.90058  1.0000
  H   H1300     1.0  0.58855  0.48706  0.84731  1.0000
  C   C1085     1.0  0.88508  0.47838  0.93747  1.0000
  C   C1086     1.0  0.59167  0.48896  0.82966  1.0000
  H   H1301     1.0  0.57933  0.21253  0.96255  1.0000
  N   N76       1.0  0.59499  0.23706  0.96955  1.0000
  H   H1302     1.0  0.50226  0.15224  0.89115  1.0000
  C   C1087     1.0  0.89639  0.48388  0.95184  1.0000
  H   H1303     1.0  0.66061  0.40268  0.97758  1.0000
  H   H1304     1.0  0.90177  0.45153  0.75342  1.0000
  C   C1088     1.0  0.53406  0.04027  0.77415  1.0000
  C   C1089     1.0  0.55572  0.24222  0.98603  1.0000
  C   C1090     1.0  0.55270  0.28777  0.97584  1.0000
  H   H1305     1.0  0.49835  0.37193  0.94551  1.0000
  C   C1091     1.0  0.49774  0.30500  0.95650  1.0000
  H   H1306     1.0  0.88944  0.48376  0.92052  1.0000
  C   C1092     1.0  0.64009  0.49247  0.94326  1.0000
  S   S290      1.0  0.73753  0.48346  0.96171  1.0000
  H   H1307     1.0  0.65899  0.49131  0.81482  1.0000
  H   H1308     1.0  0.51392  0.47421  0.95303  1.0000
  H   H1309     1.0  0.49968  0.44237  0.93686  1.0000
  H   H1310     1.0  0.65575  0.48228  0.94791  1.0000
  C   C1093     1.0  0.87973  0.48254  0.74532  1.0000
  C   C1094     1.0  0.53104  0.48329  0.92211  1.0000
  H   H1311     1.0  0.78213  0.49186  0.96445  1.0000
  C   C1095     1.0  0.51969  0.04741  0.74061  1.0000
  N   N77       1.0  0.80066  0.49181  0.98959  1.0000
  H   H1312     1.0  0.98765  0.48885  0.97676  1.0000
  H   H1313     1.0  0.50644  0.49230  0.98088  1.0000
  C   C1096     1.0  0.60222  0.22196  0.98922  1.0000
  H   H1314     1.0  0.55585  0.22468  0.98980  1.0000
  H   H1315     1.0  0.50660  0.83796  0.08601  1.0000
  Fe  Fe149     1.0  0.94650  0.58443  0.19797  1.0000
  S   S291      1.0  0.93956  0.59218  0.16379  1.0000
  H   H1316     1.0  0.85856  0.50229  0.14215  1.0000
  Fe  Fe150     1.0  0.97070  0.53966  0.19553  1.0000
  S   S292      1.0  0.96610  0.54239  0.16167  1.0000
  H   H1317     1.0  0.96759  0.50909  0.07117  1.0000
  Fe  Fe151     1.0  0.97428  0.57613  0.15668  1.0000
  H   H1318     1.0  0.95273  0.49889  0.99613  1.0000
  Fe  Fe152     1.0  0.93178  0.55792  0.17071  1.0000
  S   S293      1.0  0.90197  0.55057  0.15993  1.0000
  S   S294      1.0  0.98205  0.57185  0.19006  1.0000
  S   S295      1.0  0.93560  0.55154  0.20547  1.0000
  C   C1097     1.0  0.51903  0.81483  0.02337  1.0000
  H   H1319     1.0  0.91265  0.59907  0.02212  1.0000
  Fe  Fe153     1.0  0.68215  0.51442  0.01379  1.0000
  S   S296      1.0  0.98977  0.50920  0.21260  1.0000
  C   C1098     1.0  0.97915  0.55722  0.08802  1.0000
  H   H1320     1.0  0.62713  0.59214  0.03379  1.0000
  H   H1321     1.0  0.63263  0.62852  0.02581  1.0000
  H   H1322     1.0  0.73708  0.50688  0.04965  1.0000
  C   C1099     1.0  0.92618  0.59334  0.07210  1.0000
  H   H1323     1.0  0.51074  0.86442  0.16746  1.0000
  C   C1100     1.0  0.60554  0.53240  0.01285  1.0000
  H   H1324     1.0  0.60147  0.66534  0.00483  1.0000
  H   H1325     1.0  0.49791  0.95806  0.14350  1.0000
  C   C1101     1.0  0.75299  0.49810  0.05327  1.0000
  S   S297      1.0  0.56224  0.77111  0.99645  1.0000
  C   C1102     1.0  0.59395  0.55113  0.00100  1.0000
  C   C1103     1.0  0.57901  0.57334  0.04404  1.0000
  C   C1104     1.0  0.59730  0.61089  0.02061  1.0000
  C   C1105     1.0  0.94479  0.60394  0.06886  1.0000
  S   S298      1.0  0.91560  0.51642  0.07429  1.0000
  C   C1106     1.0  0.92068  0.59742  0.10928  1.0000
  N   N78       1.0  0.92009  0.58574  0.05441  1.0000
  H   H1326     1.0  0.52708  0.89273  0.99748  1.0000
  H   H1327     1.0  0.51584  0.85302  0.13379  1.0000
  H   H1328     1.0  0.51626  0.85542  0.09859  1.0000
  H   H1329     1.0  0.59442  0.64940  0.03115  1.0000
  C   C1107     1.0  0.56612  0.59081  0.03220  1.0000
  H   H1330     1.0  0.59747  0.51846  0.02065  1.0000
  C   C1108     1.0  0.90564  0.54061  0.13638  1.0000
  C   C1109     1.0  0.92643  0.53629  0.12539  1.0000
  C   C1110     1.0  0.92912  0.52825  0.10678  1.0000
  C   C1111     1.0  0.91116  0.52442  0.09892  1.0000
  C   C1112     1.0  0.89025  0.52866  0.10984  1.0000
  C   C1113     1.0  0.88751  0.53693  0.12848  1.0000
  H   H1331     1.0  0.94050  0.53904  0.13122  1.0000
  H   H1332     1.0  0.94528  0.52444  0.09872  1.0000
  H   H1333     1.0  0.87621  0.52609  0.10370  1.0000
  H   H1334     1.0  0.87130  0.54060  0.13675  1.0000
  H   H1335     1.0  0.50282  0.98843  0.15748  1.0000
  C   C1114     1.0  0.89865  0.57782  0.05951  1.0000
  H   H1336     1.0  0.93881  0.55376  0.06329  1.0000
  H   H1337     1.0  0.94351  0.61406  0.11797  1.0000
  C   C1115     1.0  0.62755  0.53169  0.01482  1.0000
  C   C1116     1.0  0.93853  0.60851  0.10528  1.0000
  H   H1338     1.0  0.93287  0.56072  0.03636  1.0000
  H   H1339     1.0  0.91177  0.59425  0.12523  1.0000
  S   S299      1.0  0.66522  0.54936  0.00823  1.0000
  H   H1340     1.0  0.95533  0.60587  0.05386  1.0000
  H   H1341     1.0  0.88526  0.59069  0.06405  1.0000
  C   C1117     1.0  0.51725  0.83697  0.02404  1.0000
  H   H1342     1.0  0.56443  0.62230  0.01153  1.0000
  S   S300      1.0  0.81287  0.51363  0.05119  1.0000
  H   H1343     1.0  0.96517  0.61930  0.08249  1.0000
  C   C1118     1.0  0.63784  0.54995  0.00544  1.0000
  Fe  Fe154     1.0  0.52677  0.76774  0.00536  1.0000
  H   H1344     1.0  0.63638  0.51718  0.02402  1.0000
  C   C1119     1.0  0.79112  0.49855  0.05579  1.0000
  C   C1120     1.0  0.49948  0.99209  0.14114  1.0000
  C   C1121     1.0  0.95065  0.61163  0.08517  1.0000
  H   H1345     1.0  0.90074  0.58113  0.09741  1.0000
  C   C1122     1.0  0.57502  0.60937  0.02075  1.0000
  H   H1346     1.0  0.93487  0.60886  0.02830  1.0000
  C   C1123     1.0  0.91873  0.60386  0.03517  1.0000
  N   N79       1.0  0.60658  0.63025  0.00738  1.0000
  H   H1347     1.0  0.89422  0.57265  0.04582  1.0000
  H   H1348     1.0  0.76790  0.52730  0.04559  1.0000
  S   S301      1.0  0.49759  0.87466  0.03684  1.0000
  H   H1349     1.0  0.51316  0.82765  0.11276  1.0000
  S   S302      1.0  0.87410  0.51396  0.03582  1.0000
  H   H1350     1.0  0.87284  0.51053  0.17206  1.0000
  H   H1351     1.0  0.53288  0.80731  0.01398  1.0000
  H   H1352     1.0  0.54933  0.58957  0.03131  1.0000
  H   H1353     1.0  0.52973  0.84638  0.01512  1.0000
  H   H1354     1.0  0.96464  0.55128  0.08679  1.0000
  C   C1124     1.0  0.60993  0.59288  0.03315  1.0000
  S   S303      1.0  0.71847  0.50420  0.01113  1.0000
  H   H1355     1.0  0.89888  0.56307  0.07271  1.0000
  H   H1356     1.0  0.95335  0.57263  0.04377  1.0000
  C   C1125     1.0  0.60081  0.57443  0.04462  1.0000
  H   H1357     1.0  0.78956  0.51664  0.00811  1.0000
  H   H1358     1.0  0.64035  0.61500  0.00359  1.0000
  H   H1359     1.0  0.94480  0.50245  0.22328  1.0000
  H   H1360     1.0  0.61097  0.56049  0.05331  1.0000
  H   H1361     1.0  0.50728  0.92896  0.99857  1.0000
  C   C1126     1.0  0.77042  0.50967  0.05113  1.0000
  H   H1362     1.0  0.57703  0.65374  0.01077  1.0000
  C   C1127     1.0  0.91450  0.58991  0.09301  1.0000
  C   C1128     1.0  0.97990  0.56607  0.10552  1.0000
  H   H1363     1.0  0.90749  0.61857  0.03899  1.0000
  H   H1364     1.0  0.57226  0.55863  0.05221  1.0000
  H   H1365     1.0  0.96595  0.56673  0.11765  1.0000
  C   C1129     1.0  0.63003  0.62938  0.00911  1.0000
  H   H1366     1.0  0.97958  0.59421  0.22567  1.0000
  S   S304      1.0  0.50584  0.77442  0.03519  1.0000
  C   C1130     1.0  0.93700  0.56752  0.04915  1.0000
  S   S305      1.0  0.99523  0.54486  0.05051  1.0000
  C   C1131     1.0  0.49926  0.85676  0.14107  1.0000
  C   C1132     1.0  0.49661  0.97436  0.13330  1.0000
  S   S306      1.0  0.93299  0.60511  0.22240  1.0000
  C   C1133     1.0  0.59435  0.65048  0.01384  1.0000
  C   C1134     1.0  0.50327  0.80237  0.03527  1.0000
  C   C1135     1.0  0.50578  0.84245  0.10170  1.0000
  H   H1367     1.0  0.82825  0.51293  0.00325  1.0000
  C   C1136     1.0  0.62632  0.56861  0.99343  1.0000
  Fe  Fe155     1.0  0.89136  0.49985  0.06473  1.0000
  S   S307      1.0  0.52942  0.73739  0.99266  1.0000
  C   C1137     1.0  0.49932  0.84694  0.03604  1.0000
  H   H1368     1.0  0.76963  0.50005  0.00798  1.0000
  S   S308      1.0  0.56617  0.55197  0.99972  1.0000
  C   C1138     1.0  0.60444  0.56911  0.99093  1.0000
  H   H1369     1.0  0.63647  0.64422  0.99908  1.0000
  C   C1139     1.0  0.78332  0.50800  0.99796  1.0000
  C   C1140     1.0  0.87486  0.49375  0.17018  1.0000
  Fe  Fe156     1.0  0.84714  0.49572  0.05432  1.0000
  C   C1141     1.0  0.49660  0.86319  0.16054  1.0000
  S   S309      1.0  0.67713  0.49530  0.99086  1.0000
  H   H1370     1.0  0.54341  0.96570  0.30525  1.0000
  H   H1371     1.0  0.66056  0.97077  0.36166  1.0000
  S   S310      1.0  0.61642  0.98241  0.35150  1.0000
  S   S311      1.0  0.50660  0.95036  0.25117  1.0000
  H   H1372     1.0  0.84241  0.98302  0.45294  1.0000
  S   S312      1.0  0.88473  0.74709  0.44770  1.0000
  H   H1373     1.0  0.50039  0.91665  0.29824  1.0000
  Fe  Fe157     1.0  0.88299  0.71589  0.43826  1.0000
  S   S313      1.0  0.90634  0.70721  0.41035  1.0000
  H   H1374     1.0  0.82396  0.82534  0.45961  1.0000
  H   H1375     1.0  0.89337  0.64856  0.48528  1.0000
  H   H1376     1.0  0.94873  0.50546  0.43303  1.0000
  C   C1142     1.0  0.86056  0.90039  0.36023  1.0000
  H   H1377     1.0  0.84856  0.90017  0.34951  1.0000
  H   H1378     1.0  0.95754  0.53172  0.24371  1.0000
  C   C1143     1.0  0.80953  0.91709  0.38939  1.0000
  C   C1144     1.0  0.64642  0.95610  0.48852  1.0000
  S   S314      1.0  0.85519  0.95993  0.41860  1.0000
  Fe  Fe158     1.0  0.93526  0.60782  0.36433  1.0000
  S   S315      1.0  0.95198  0.58625  0.39134  1.0000
  S   S316      1.0  0.90191  0.62625  0.37239  1.0000
  Fe  Fe159     1.0  0.97252  0.59642  0.33109  1.0000
  H   H1379     1.0  0.96673  0.50488  0.25916  1.0000
  H   H1380     1.0  0.92989  0.59880  0.47858  1.0000
  Fe  Fe160     1.0  0.96099  0.56194  0.37035  1.0000
  S   S317      1.0  0.95727  0.52672  0.38502  1.0000
  H   H1381     1.0  0.93408  0.50869  0.29748  1.0000
  H   H1382     1.0  0.98627  0.63846  0.46127  1.0000
  S   S318      1.0  0.94167  0.58239  0.34443  1.0000
  S   S319      1.0  0.96448  0.62379  0.34866  1.0000
  C   C1145     1.0  0.94997  0.51402  0.29736  1.0000
  H   H1383     1.0  0.86788  0.61629  0.41249  1.0000
  S   S320      1.0  0.84631  0.72023  0.44300  1.0000
  H   H1384     1.0  0.93241  0.86361  0.42658  1.0000
  C   C1146     1.0  0.95460  0.52008  0.25928  1.0000
  H   H1385     1.0  0.77530  0.91816  0.40110  1.0000
  S   S321      1.0  0.84899  0.73193  0.48913  1.0000
  H   H1386     1.0  0.86721  0.79392  0.47481  1.0000
  H   H1387     1.0  0.81570  0.85598  0.41892  1.0000
  Fe  Fe161     1.0  0.86696  0.92788  0.44043  1.0000
  C   C1147     1.0  0.99035  0.83830  0.44375  1.0000
  C   C1148     1.0  0.96578  0.50919  0.36708  1.0000
  C   C1149     1.0  0.99505  0.53362  0.26054  1.0000
  H   H1388     1.0  0.93173  0.68612  0.34894  1.0000
  C   C1150     1.0  0.94964  0.60690  0.27951  1.0000
  C   C1151     1.0  0.84488  0.63751  0.45553  1.0000
  H   H1389     1.0  0.49817  0.89090  0.29340  1.0000
  H   H1390     1.0  0.99318  0.52837  0.24650  1.0000
  C   C1152     1.0  0.86353  0.80095  0.42674  1.0000
  H   H1391     1.0  0.97122  0.72582  0.37768  1.0000
  C   C1153     1.0  0.78278  0.93609  0.48309  1.0000
  C   C1154     1.0  0.95817  0.91611  0.44510  1.0000
  H   H1392     1.0  0.71122  0.96414  0.42326  1.0000
  C   C1155     1.0  0.95701  0.90881  0.46723  1.0000
  C   C1156     1.0  0.81401  0.87310  0.41071  1.0000
  H   H1393     1.0  0.94124  0.61044  0.29447  1.0000
  H   H1394     1.0  0.99314  0.60496  0.43955  1.0000
  H   H1395     1.0  0.95275  0.74986  0.36917  1.0000
  C   C1157     1.0  0.91551  0.60127  0.46988  1.0000
  N   N80       1.0  0.85042  0.91324  0.37655  1.0000
  Fe  Fe162     1.0  0.84837  0.74998  0.45507  1.0000
  C   C1158     1.0  0.96836  0.56058  0.46257  1.0000
  C   C1159     1.0  0.79836  0.99052  0.45875  1.0000
  C   C1160     1.0  0.92188  0.76379  0.47315  1.0000
  S   S322      1.0  0.75631  0.97021  0.40497  1.0000
  C   C1161     1.0  0.84582  0.93663  0.36544  1.0000
  H   H1396     1.0  0.90529  0.66831  0.33782  1.0000
  S   S323      1.0  0.90040  0.90906  0.43347  1.0000
  H   H1397     1.0  0.87484  0.90725  0.35018  1.0000
  C   C1162     1.0  0.79602  0.98472  0.39835  1.0000
  S   S324      1.0  0.87079  0.92636  0.47435  1.0000
  C   C1163     1.0  0.93870  0.77436  0.46061  1.0000
  H   H1398     1.0  0.92476  0.63352  0.43605  1.0000
  H   H1399     1.0  0.97932  0.92398  0.41559  1.0000
  C   C1164     1.0  0.89776  0.97738  0.43906  1.0000
  C   C1165     1.0  0.83074  0.90432  0.38855  1.0000
  H   H1400     1.0  0.93504  0.78814  0.44757  1.0000
  H   H1401     1.0  0.68948  0.94957  0.43617  1.0000
  H   H1402     1.0  0.86092  0.94287  0.35663  1.0000
  C   C1166     1.0  0.90458  0.68339  0.40221  1.0000
  C   C1167     1.0  0.88441  0.67856  0.40002  1.0000
  C   C1168     1.0  0.88364  0.66099  0.39078  1.0000
  C   C1169     1.0  0.90296  0.64773  0.38456  1.0000
  C   C1170     1.0  0.92305  0.65202  0.38767  1.0000
  C   C1171     1.0  0.92388  0.67009  0.39605  1.0000
  H   H1403     1.0  0.86947  0.68893  0.40456  1.0000
  H   H1404     1.0  0.86806  0.65779  0.38832  1.0000
  H   H1405     1.0  0.93802  0.64180  0.38308  1.0000
  H   H1406     1.0  0.93953  0.67385  0.39758  1.0000
  C   C1172     1.0  0.97241  0.60150  0.27674  1.0000
  C   C1173     1.0  0.79126  0.90798  0.40056  1.0000
  C   C1174     1.0  0.50851  0.97362  0.31216  1.0000
  C   C1175     1.0  0.52778  0.96629  0.30006  1.0000
  C   C1176     1.0  0.52688  0.95940  0.28133  1.0000
  C   C1177     1.0  0.50675  0.96000  0.27439  1.0000
  H   H1407     1.0  0.98738  0.64531  0.27593  1.0000
  N   N81       1.0  0.70112  0.96674  0.45605  1.0000
  H   H1408     1.0  0.92015  0.61291  0.26464  1.0000
  H   H1409     1.0  0.54188  0.95348  0.27220  1.0000
  C   C1178     1.0  0.95739  0.67909  0.32389  1.0000
  C   C1179     1.0  0.85322  0.83840  0.44394  1.0000
  C   C1180     1.0  0.78341  0.96855  0.40921  1.0000
  C   C1181     1.0  0.79267  0.95030  0.42340  1.0000
  C   C1182     1.0  0.81444  0.94810  0.42677  1.0000
  C   C1183     1.0  0.82737  0.96371  0.41551  1.0000
  H   H1410     1.0  0.94363  0.87243  0.45765  1.0000
  H   H1411     1.0  0.70864  0.93161  0.46704  1.0000
  H   H1412     1.0  0.78298  0.93779  0.43184  1.0000
  H   H1413     1.0  0.82103  0.93439  0.43828  1.0000
  H   H1414     1.0  0.67038  0.93917  0.46855  1.0000
  S   S325      1.0  0.88820  0.87355  0.47833  1.0000
  N   N82       1.0  0.95220  0.73979  0.40345  1.0000
  H   H1415     1.0  0.68423  0.97895  0.42840  1.0000
  C   C1184     1.0  0.95467  0.73476  0.38196  1.0000
  C   C1185     1.0  0.93184  0.75588  0.40551  1.0000
  C   C1186     1.0  0.95188  0.71987  0.42088  1.0000
  C   C1187     1.0  0.94322  0.72134  0.44212  1.0000
  C   C1188     1.0  0.96149  0.69865  0.41760  1.0000
  C   C1189     1.0  0.94311  0.70276  0.45873  1.0000
  C   C1190     1.0  0.96132  0.68012  0.43431  1.0000
  C   C1191     1.0  0.95194  0.68217  0.45480  1.0000
  C   C1192     1.0  0.95961  0.55699  0.48450  1.0000
  C   C1193     1.0  0.97624  0.90356  0.47689  1.0000
  C   C1194     1.0  0.97546  0.85272  0.45492  1.0000
  C   C1195     1.0  0.81629  0.98749  0.48977  1.0000
  C   C1196     1.0  0.81811  0.98215  0.40133  1.0000
  H   H1416     1.0  0.99273  0.82140  0.41756  1.0000
  H   H1417     1.0  0.93056  0.76363  0.41931  1.0000
  H   H1418     1.0  0.93088  0.76974  0.39138  1.0000
  H   H1419     1.0  0.91713  0.74798  0.40729  1.0000
  H   H1420     1.0  0.93664  0.73682  0.44618  1.0000
  H   H1421     1.0  0.97969  0.85725  0.46851  1.0000
  C   C1197     1.0  0.84639  0.63041  0.43666  1.0000
  H   H1422     1.0  0.96873  0.66418  0.43127  1.0000
  H   H1423     1.0  0.95178  0.66790  0.46781  1.0000
  N   N83       1.0  0.90457  0.62441  0.46616  1.0000
  H   H1424     1.0  0.93817  0.51568  0.25986  1.0000
  C   C1198     1.0  0.92738  0.65899  0.31140  1.0000
  H   H1425     1.0  0.85923  0.92064  0.40406  1.0000
  H   H1426     1.0  0.65830  0.97797  0.30139  1.0000
  Fe  Fe163     1.0  0.85073  0.70184  0.47661  1.0000
  C   C1199     1.0  0.97949  0.59525  0.44501  1.0000
  C   C1200     1.0  0.83885  0.82298  0.44883  1.0000
  C   C1201     1.0  0.52768  0.99173  0.44126  1.0000
  S   S326      1.0  0.89124  0.85380  0.42442  1.0000
  C   C1202     1.0  0.96391  0.66958  0.30575  1.0000
  C   C1203     1.0  0.94845  0.60370  0.24310  1.0000
  H   H1427     1.0  0.95062  0.81193  0.48697  1.0000
  H   H1428     1.0  0.83192  0.63218  0.42900  1.0000
  H   H1429     1.0  0.93626  0.70436  0.47478  1.0000
  H   H1430     1.0  0.86108  0.64136  0.47990  1.0000
  H   H1431     1.0  0.92901  0.54061  0.44520  1.0000
  H   H1432     1.0  0.83898  0.94732  0.37699  1.0000
  H   H1433     1.0  0.77770  0.94274  0.46747  1.0000
  H   H1434     1.0  0.97993  0.70429  0.28139  1.0000
  H   H1435     1.0  0.98183  0.74231  0.48389  1.0000
  H   H1436     1.0  0.90535  0.76960  0.46971  1.0000
  C   C1204     1.0  0.95661  0.55452  0.44863  1.0000
  H   H1437     1.0  0.90079  0.61334  0.42872  1.0000
  H   H1438     1.0  0.96150  0.55759  0.43164  1.0000
  C   C1205     1.0  0.69625  0.96471  0.43514  1.0000
  C   C1206     1.0  0.92139  0.66892  0.32879  1.0000
  H   H1439     1.0  0.96264  0.49912  0.29938  1.0000
  S   S327      1.0  0.52277  0.98231  0.48474  1.0000
  Fe  Fe164     1.0  0.88517  0.72692  0.48085  1.0000
  H   H1440     1.0  0.72879  0.98295  0.44100  1.0000
  H   H1441     1.0  0.99323  0.58110  0.48250  1.0000
  H   H1442     1.0  0.89600  0.96610  0.42958  1.0000
  C   C1207     1.0  0.88444  0.62654  0.45632  1.0000
  C   C1208     1.0  0.90053  0.63100  0.48702  1.0000
  S   S328      1.0  0.98809  0.60140  0.29683  1.0000
  C   C1209     1.0  0.99058  0.64073  0.47588  1.0000
  C   C1210     1.0  0.93774  0.60836  0.26259  1.0000
  C   C1211     1.0  0.88542  0.61967  0.43696  1.0000
  H   H1443     1.0  0.96972  0.75451  0.42033  1.0000
  C   C1212     1.0  0.98128  0.51426  0.34933  1.0000
  H   H1444     1.0  0.87214  0.89435  0.39930  1.0000
  C   C1213     1.0  0.71578  0.94670  0.46517  1.0000
  C   C1214     1.0  0.86649  0.91157  0.39136  1.0000
  H   H1445     1.0  0.95193  0.65078  0.28701  1.0000
  N   N84       1.0  0.95590  0.52997  0.27740  1.0000
  H   H1446     1.0  0.77930  0.87901  0.41977  1.0000
  H   H1447     1.0  0.95265  0.97560  0.47436  1.0000
  S   S329      1.0  0.93176  0.90692  0.48334  1.0000
  C   C1215     1.0  0.98298  0.83291  0.42646  1.0000
  H   H1448     1.0  0.83021  0.95683  0.47990  1.0000
  H   H1449     1.0  0.95687  0.83751  0.40734  1.0000
  C   C1216     1.0  0.94265  0.96402  0.48565  1.0000
  C   C1217     1.0  0.93943  0.55011  0.27606  1.0000
  H   H1450     1.0  0.84926  0.85267  0.45083  1.0000
  C   C1218     1.0  0.96029  0.76649  0.46440  1.0000
  C   C1219     1.0  0.91962  0.63842  0.45161  1.0000
  C   C1220     1.0  0.99246  0.69188  0.28980  1.0000
  H   H1451     1.0  0.94324  0.94995  0.47819  1.0000
  H   H1452     1.0  0.94222  0.72474  0.38116  1.0000
  C   C1221     1.0  0.96227  0.84199  0.42043  1.0000
  Fe  Fe165     1.0  0.90267  0.90467  0.46827  1.0000
  C   C1222     1.0  0.86661  0.62136  0.42747  1.0000
  C   C1223     1.0  0.94836  0.85652  0.43138  1.0000
  C   C1224     1.0  0.83241  0.88206  0.39971  1.0000
  H   H1453     1.0  0.57235  0.98493  0.46950  1.0000
  H   H1454     1.0  0.94342  0.92043  0.43754  1.0000
  S   S330      1.0  0.82775  0.78342  0.44914  1.0000
  H   H1455     1.0  0.98786  0.52939  0.34620  1.0000
  H   H1456     1.0  0.97729  0.67306  0.26308  1.0000
  S   S331      1.0  0.84994  0.89846  0.44798  1.0000
  H   H1457     1.0  0.97169  0.76573  0.39214  1.0000
  C   C1225     1.0  0.87273  0.83509  0.43040  1.0000
  H   H1458     1.0  0.92160  0.59565  0.45481  1.0000
  S   S332      1.0  0.99254  0.57383  0.35559  1.0000
  S   S333      1.0  0.50914  0.98239  0.33577  1.0000
  C   C1226     1.0  0.97774  0.53553  0.27742  1.0000
  H   H1459     1.0  0.92264  0.54666  0.27648  1.0000
  H   H1460     1.0  0.88137  0.91857  0.38309  1.0000
  H   H1461     1.0  0.86677  0.88306  0.36751  1.0000
  H   H1462     1.0  0.99131  0.64840  0.36395  1.0000
  S   S334      1.0  0.88728  0.69534  0.47079  1.0000
  S   S335      1.0  0.98147  0.77736  0.44679  1.0000
  H   H1463     1.0  0.80652  0.93426  0.38180  1.0000
  C   C1227     1.0  0.97850  0.91814  0.43270  1.0000
  Fe  Fe166     1.0  0.98186  0.60020  0.37426  1.0000
  C   C1228     1.0  0.68054  0.96941  0.47069  1.0000
  C   C1229     1.0  0.90749  0.96953  0.45781  1.0000
  C   C1230     1.0  0.84423  0.80401  0.44058  1.0000
  H   H1464     1.0  0.83419  0.93911  0.35359  1.0000
  H   H1465     1.0  0.93475  0.63771  0.45871  1.0000
  H   H1466     1.0  0.96918  0.69596  0.40223  1.0000
  C   C1231     1.0  0.95478  0.86159  0.44880  1.0000
  H   H1467     1.0  0.84801  0.87136  0.40006  1.0000
  C   C1232     1.0  0.87773  0.81649  0.42161  1.0000
  N   N85       1.0  0.98641  0.66960  0.29440  1.0000
  H   H1468     1.0  0.80497  0.97335  0.45760  1.0000
  Fe  Fe167     1.0  0.88346  0.87950  0.44392  1.0000
  H   H1469     1.0  0.86746  0.78662  0.41988  1.0000
  H   H1470     1.0  0.96865  0.68614  0.33005  1.0000
  H   H1471     1.0  0.89275  0.81391  0.41106  1.0000
  C   C1233     1.0  0.98868  0.49947  0.33582  1.0000
  H   H1472     1.0  0.80895  0.91245  0.47246  1.0000
  C   C1234     1.0  0.79349  0.88603  0.41116  1.0000
  H   H1473     1.0  0.98659  0.73929  0.40230  1.0000
  H   H1474     1.0  0.73177  0.94473  0.45485  1.0000
  H   H1475     1.0  0.94300  0.56208  0.26086  1.0000
  H   H1476     1.0  0.96805  0.60306  0.45688  1.0000
  H   H1477     1.0  0.50137  0.89247  0.31976  1.0000
  C   C1235     1.0  0.94829  0.65924  0.29998  1.0000
  H   H1478     1.0  0.52532  0.97499  0.44285  1.0000
  H   H1479     1.0  0.98862  0.50562  0.42122  1.0000
  C   C1236     1.0  0.86353  0.63553  0.46534  1.0000
  H   H1480     1.0  0.91307  0.95209  0.46221  1.0000
  H   H1481     1.0  0.99431  0.69702  0.30445  1.0000
  C   C1237     1.0  0.98926  0.66277  0.27370  1.0000
  C   C1238     1.0  0.66632  0.95354  0.47533  1.0000
  H   H1482     1.0  0.91165  0.65590  0.44803  1.0000
  H   H1483     1.0  0.82921  0.64486  0.46262  1.0000
  C   C1239     1.0  0.89661  0.81505  0.48401  1.0000
  C   C1240     1.0  0.98311  0.59702  0.25724  1.0000
  Fe  Fe168     1.0  0.85601  0.89561  0.48149  1.0000
  N   N86       1.0  0.98750  0.57198  0.45412  1.0000
  H   H1484     1.0  0.94827  0.52084  0.31183  1.0000
  C   C1241     1.0  0.93782  0.54482  0.45625  1.0000
  C   C1242     1.0  0.90989  0.98383  0.47067  1.0000
  C   C1243     1.0  0.93635  0.67895  0.33502  1.0000
  H   H1485     1.0  0.93906  0.55849  0.28927  1.0000
  H   H1486     1.0  0.97559  0.50124  0.45761  1.0000
  H   H1487     1.0  0.99417  0.56552  0.42217  1.0000
  C   C1244     1.0  0.97085  0.75036  0.40454  1.0000
  C   C1245     1.0  0.67387  0.98764  0.48058  1.0000
  H   H1488     1.0  0.91585  0.65066  0.30702  1.0000
  H   H1489     1.0  0.90413  0.59019  0.47972  1.0000
  C   C1246     1.0  0.98213  0.54349  0.29459  1.0000
  C   C1247     1.0  0.65809  0.98797  0.35395  1.0000
  C   C1248     1.0  0.93007  0.54099  0.47791  1.0000
  H   H1490     1.0  0.92212  0.83123  0.46403  1.0000
  C   C1249     1.0  0.96506  0.74860  0.48113  1.0000
  H   H1491     1.0  0.97068  0.59711  0.43104  1.0000
  H   H1492     1.0  0.96960  0.54625  0.30761  1.0000
  H   H1493     1.0  0.91549  0.53349  0.48389  1.0000
  H   H1494     1.0  0.88500  0.82354  0.47312  1.0000
  H   H1495     1.0  0.71944  0.94744  0.48108  1.0000
  C   C1250     1.0  0.80048  0.91902  0.48590  1.0000
  C   C1251     1.0  0.91794  0.81963  0.47865  1.0000
  H   H1496     1.0  0.71821  0.98774  0.46675  1.0000
  C   C1252     1.0  0.71332  0.98544  0.45188  1.0000
  C   C1253     1.0  0.92661  0.74570  0.48977  1.0000
  H   H1497     1.0  0.60435  0.99242  0.39914  1.0000
  H   H1498     1.0  0.78218  0.99032  0.46870  1.0000
  H   H1499     1.0  0.69132  0.99206  0.35456  1.0000
  H   H1500     1.0  0.72979  0.87546  0.48011  1.0000
  H   H1501     1.0  0.61982  0.99282  0.29647  1.0000
  C   C1254     1.0  0.97116  0.59773  0.24061  1.0000
  C   C1255     1.0  0.82590  0.96507  0.49302  1.0000
  H   H1502     1.0  0.84628  0.77670  0.53211  1.0000
  C   C1256     1.0  0.99435  0.54359  0.69121  1.0000
  S   S336      1.0  0.75020  0.96668  0.49590  1.0000
  H   H1503     1.0  0.90677  0.61612  0.59533  1.0000
  H   H1504     1.0  0.85648  0.82472  0.51871  1.0000
  C   C1257     1.0  0.98132  0.62958  0.49561  1.0000
  C   C1258     1.0  0.92106  0.99199  0.50238  1.0000
  H   H1505     1.0  0.98760  0.59965  0.68376  1.0000
  H   H1506     1.0  0.49733  0.94359  0.53955  1.0000
  C   C1259     1.0  0.88761  0.53493  0.69553  1.0000
  H   H1507     1.0  0.91143  0.52862  0.71733  1.0000
  H   H1508     1.0  0.76993  0.94275  0.53410  1.0000
  Fe  Fe169     1.0  0.89674  0.57073  0.71791  1.0000
  C   C1260     1.0  0.86523  0.49414  0.73031  1.0000
  H   H1509     1.0  0.49698  0.98436  0.60394  1.0000
  H   H1510     1.0  0.99248  0.61073  0.61216  1.0000
  H   H1511     1.0  0.95829  0.54384  0.67126  1.0000
  C   C1261     1.0  0.94084  0.54723  0.49195  1.0000
  S   S337      1.0  0.93177  0.56758  0.70360  1.0000
  Fe  Fe170     1.0  0.92821  0.60300  0.70414  1.0000
  S   S338      1.0  0.94227  0.62525  0.67468  1.0000
  Fe  Fe171     1.0  0.90971  0.59605  0.56287  1.0000
  S   S339      1.0  0.93983  0.61178  0.55710  1.0000
  S   S340      1.0  0.87553  0.61160  0.57256  1.0000
  C   C1262     1.0  0.82981  0.95272  0.51327  1.0000
  S   S341      1.0  0.96685  0.56454  0.54683  1.0000
  Fe  Fe172     1.0  0.95518  0.57938  0.57551  1.0000
  S   S342      1.0  0.97836  0.57631  0.59932  1.0000
  Fe  Fe173     1.0  0.94895  0.59581  0.52912  1.0000
  C   C1263     1.0  0.96157  0.49895  0.61354  1.0000
  S   S343      1.0  0.92420  0.56512  0.58398  1.0000
  S   S344      1.0  0.91741  0.58279  0.53324  1.0000
  H   H1512     1.0  0.90460  0.77567  0.52943  1.0000
  S   S345      1.0  0.56445  0.97016  0.52545  1.0000
  C   C1264     1.0  0.61952  0.98217  0.55630  1.0000
  H   H1513     1.0  0.96896  0.53023  0.61507  1.0000
  H   H1514     1.0  0.51469  0.97919  0.67945  1.0000
  H   H1515     1.0  0.96676  0.56193  0.49622  1.0000
  C   C1265     1.0  0.82357  0.96205  0.53099  1.0000
  H   H1516     1.0  0.94135  0.78417  0.51952  1.0000
  H   H1517     1.0  0.89445  0.69059  0.53861  1.0000
  H   H1518     1.0  0.97054  0.49833  0.69722  1.0000
  C   C1266     1.0  0.91829  0.50547  0.69710  1.0000
  H   H1519     1.0  0.98247  0.54341  0.65185  1.0000
  H   H1520     1.0  0.51417  0.90671  0.61136  1.0000
  S   S346      1.0  0.96175  0.61296  0.49627  1.0000
  C   C1267     1.0  0.51275  0.93998  0.64550  1.0000
  H   H1521     1.0  0.54797  0.96126  0.60352  1.0000
  C   C1268     1.0  0.95150  0.61183  0.65349  1.0000
  C   C1269     1.0  0.94094  0.59542  0.65063  1.0000
  C   C1270     1.0  0.94901  0.58450  0.63389  1.0000
  C   C1271     1.0  0.96760  0.59006  0.61998  1.0000
  C   C1272     1.0  0.97804  0.60649  0.62282  1.0000
  C   C1273     1.0  0.96985  0.61753  0.63935  1.0000
  H   H1522     1.0  0.92636  0.59138  0.66109  1.0000
  H   H1523     1.0  0.94083  0.57183  0.63173  1.0000
  C   C1274     1.0  0.97207  0.51733  0.60621  1.0000
  H   H1524     1.0  0.88937  0.62104  0.49887  1.0000
  H   H1525     1.0  0.87356  0.67226  0.51017  1.0000
  H   H1526     1.0  0.95088  0.95725  0.50026  1.0000
  H   H1527     1.0  0.60585  0.97378  0.55715  1.0000
  H   H1528     1.0  0.96910  0.51978  0.66136  1.0000
  H   H1529     1.0  0.67663  0.90592  0.51846  1.0000
  H   H1530     1.0  0.88834  0.50545  0.65819  1.0000
  H   H1531     1.0  0.96920  0.52467  0.52844  1.0000
  C   C1275     1.0  0.77192  0.94495  0.50033  1.0000
  S   S347      1.0  0.90608  0.73090  0.50394  1.0000
  S   S348      1.0  0.83004  0.88991  0.50953  1.0000
  C   C1276     1.0  0.53676  0.95068  0.61290  1.0000
  H   H1532     1.0  0.72890  0.91671  0.55537  1.0000
  S   S349      1.0  0.54152  0.93205  0.57843  1.0000
  C   C1277     1.0  0.70163  0.88997  0.49858  1.0000
  C   C1278     1.0  0.77819  0.93606  0.52067  1.0000
  Fe  Fe174     1.0  0.53395  0.98999  0.51289  1.0000
  C   C1279     1.0  0.84366  0.65868  0.51738  1.0000
  C   C1280     1.0  0.65473  0.98279  0.56692  1.0000
  C   C1281     1.0  0.80693  0.91023  0.50616  1.0000
  N   N87       1.0  0.86781  0.79472  0.50769  1.0000
  H   H1533     1.0  0.99416  0.53388  0.58158  1.0000
  C   C1282     1.0  0.69406  0.90279  0.51377  1.0000
  C   C1283     1.0  0.86490  0.65988  0.52044  1.0000
  C   C1284     1.0  0.87511  0.64484  0.53686  1.0000
  C   C1285     1.0  0.86354  0.62951  0.55113  1.0000
  C   C1286     1.0  0.84200  0.62888  0.54867  1.0000
  C   C1287     1.0  0.83224  0.64312  0.53156  1.0000
  S   S350      1.0  0.51286  0.98274  0.54418  1.0000
  H   H1534     1.0  0.89173  0.64541  0.53878  1.0000
  H   H1535     1.0  0.83299  0.61708  0.55977  1.0000
  H   H1536     1.0  0.49921  0.92107  0.57539  1.0000
  H   H1537     1.0  0.80877  0.99094  0.54239  1.0000
  C   C1288     1.0  0.51788  0.91978  0.61745  1.0000
  C   C1289     1.0  0.79537  0.91838  0.52365  1.0000
  H   H1538     1.0  0.96001  0.52234  0.70802  1.0000
  H   H1539     1.0  0.80035  0.91166  0.53936  1.0000
  C   C1290     1.0  0.98622  0.51946  0.58724  1.0000
  C   C1291     1.0  0.73871  0.89399  0.50002  1.0000
  C   C1292     1.0  0.53171  0.93408  0.60479  1.0000
  H   H1540     1.0  0.67190  0.94182  0.52366  1.0000
  H   H1541     1.0  0.52920  0.98729  0.69724  1.0000
  H   H1542     1.0  0.71100  0.94082  0.56016  1.0000
  H   H1543     1.0  0.63654  0.95585  0.57837  1.0000
  S   S351      1.0  0.93893  0.59660  0.73669  1.0000
  H   H1544     1.0  0.86667  0.53741  0.67174  1.0000
  C   C1293     1.0  0.50709  0.95187  0.72002  1.0000
  C   C1294     1.0  0.96561  0.50858  0.52906  1.0000
  S   S352      1.0  0.92710  0.51960  0.55410  1.0000
  H   H1545     1.0  0.85621  0.51024  0.73094  1.0000
  C   C1295     1.0  0.97518  0.51233  0.70192  1.0000
  C   C1296     1.0  0.50817  0.92290  0.63774  1.0000
  H   H1546     1.0  0.93403  0.68991  0.52789  1.0000
  C   C1297     1.0  0.89054  0.79942  0.50265  1.0000
  C   C1298     1.0  0.90637  0.52364  0.70444  1.0000
  H   H1547     1.0  0.95193  0.72434  0.50678  1.0000
  H   H1548     1.0  0.97806  0.63019  0.64148  1.0000
  C   C1299     1.0  0.98744  0.63215  0.51443  1.0000
  S   S353      1.0  0.87246  0.55686  0.70577  1.0000
  H   H1549     1.0  0.74376  0.91252  0.52107  1.0000
  H   H1550     1.0  0.51796  0.94998  0.70569  1.0000
  C   C1300     1.0  0.91174  0.49878  0.68059  1.0000
  N   N88       1.0  0.90487  0.64568  0.60629  1.0000
  C   C1301     1.0  0.91359  0.65261  0.62302  1.0000
  C   C1302     1.0  0.88070  0.64837  0.61143  1.0000
  C   C1303     1.0  0.91292  0.62205  0.60754  1.0000
  C   C1304     1.0  0.91247  0.65825  0.58487  1.0000
  C   C1305     1.0  0.89794  0.67021  0.56999  1.0000
  C   C1306     1.0  0.93517  0.65821  0.57808  1.0000
  C   C1307     1.0  0.90577  0.68164  0.54980  1.0000
  C   C1308     1.0  0.94281  0.66950  0.55776  1.0000
  C   C1309     1.0  0.92812  0.68125  0.54368  1.0000
  H   H1551     1.0  0.90879  0.67052  0.62206  1.0000
  H   H1552     1.0  0.90763  0.64390  0.63939  1.0000
  H   H1553     1.0  0.93170  0.64884  0.62186  1.0000
  H   H1554     1.0  0.87346  0.66583  0.61078  1.0000
  H   H1555     1.0  0.87560  0.63895  0.62773  1.0000
  H   H1556     1.0  0.87313  0.64196  0.60034  1.0000
  H   H1557     1.0  0.90751  0.61189  0.62335  1.0000
  C   C1310     1.0  0.52749  0.95349  0.63331  1.0000
  H   H1558     1.0  0.93100  0.61849  0.60480  1.0000
  H   H1559     1.0  0.88047  0.67067  0.57334  1.0000
  H   H1560     1.0  0.94725  0.64896  0.58825  1.0000
  C   C1311     1.0  0.99351  0.58255  0.69029  1.0000
  H   H1561     1.0  0.96022  0.66888  0.55276  1.0000
  C   C1312     1.0  0.86357  0.77959  0.52869  1.0000
  N   N89       1.0  0.70028  0.92479  0.53893  1.0000
  C   C1313     1.0  0.68679  0.91262  0.55722  1.0000
  C   C1314     1.0  0.71781  0.93125  0.54769  1.0000
  C   C1315     1.0  0.68653  0.94514  0.52903  1.0000
  C   C1316     1.0  0.70871  0.91129  0.52285  1.0000
  H   H1562     1.0  0.75609  0.89063  0.49468  1.0000
  H   H1563     1.0  0.82603  0.95228  0.54678  1.0000
  Fe  Fe175     1.0  0.93957  0.56119  0.73704  1.0000
  H   H1564     1.0  0.87367  0.76308  0.52911  1.0000
  H   H1565     1.0  0.53116  0.96663  0.63934  1.0000
  H   H1566     1.0  0.81578  0.64217  0.52939  1.0000
  H   H1567     1.0  0.68109  0.92216  0.56996  1.0000
  H   H1568     1.0  0.67175  0.90921  0.55265  1.0000
  H   H1569     1.0  0.86694  0.78627  0.54190  1.0000
  Fe  Fe176     1.0  0.54368  0.96521  0.55720  1.0000
  H   H1570     1.0  0.72765  0.94190  0.53509  1.0000
  H   H1571     1.0  0.95064  0.49810  0.62832  1.0000
  H   H1572     1.0  0.68030  0.95603  0.54045  1.0000
  S   S354      1.0  0.67776  0.96960  0.57974  1.0000
  H   H1573     1.0  0.83512  0.81238  0.51321  1.0000
  C   C1317     1.0  0.73133  0.90664  0.51535  1.0000
  C   C1318     1.0  0.88109  0.52850  0.67878  1.0000
  H   H1574     1.0  0.69598  0.95470  0.51510  1.0000
  H   H1575     1.0  0.85075  0.58519  0.73404  1.0000
  C   C1319     1.0  0.94620  0.50214  0.54060  1.0000
  H   H1576     1.0  0.69626  0.89669  0.56453  1.0000
  C   C1320     1.0  0.64032  0.97431  0.49773  1.0000
  Fe  Fe177     1.0  0.73902  0.98511  0.52207  1.0000
  C   C1321     1.0  0.92867  0.79318  0.50991  1.0000
  C   C1322     1.0  0.63683  0.97206  0.56833  1.0000
  Fe  Fe178     1.0  0.93438  0.55290  0.55377  1.0000
  S   S355      1.0  0.74144  0.97212  0.55691  1.0000
  C   C1323     1.0  0.97386  0.53363  0.66630  1.0000
  S   S356      1.0  0.89251  0.60667  0.71640  1.0000
  H   H1577     1.0  0.83712  0.93558  0.51532  1.0000
  C   C1324     1.0  0.90732  0.78845  0.51544  1.0000
  H   H1578     1.0  0.62487  0.97639  0.50790  1.0000
  H   H1579     1.0  0.93249  0.49667  0.70427  1.0000
  Fe  Fe179     1.0  0.70585  0.98645  0.56167  1.0000
  C   C1325     1.0  0.85225  0.81543  0.50788  1.0000
  H   H1580     1.0  0.91382  0.95214  0.52066  1.0000
  C   C1326     1.0  0.89337  0.51053  0.67110  1.0000
  H   H1581     1.0  0.98065  0.62333  0.52971  1.0000
  H   H1582     1.0  0.97759  0.57157  0.66972  1.0000
  C   C1327     1.0  0.90714  0.95876  0.50518  1.0000
  H   H1583     1.0  0.49907  0.94479  0.50456  1.0000
  C   C1328     1.0  0.65404  0.98998  0.49379  1.0000
  C   C1329     1.0  0.98766  0.56615  0.68243  1.0000
  H   H1584     1.0  0.90722  0.94429  0.49843  1.0000
  H   H1585     1.0  0.51570  0.91750  0.73385  1.0000
  C   C1330     1.0  0.81378  0.98388  0.52846  1.0000
  C   C1331     1.0  0.86305  0.78443  0.49119  1.0000
  H   H1586     1.0  0.88976  0.96620  0.50858  1.0000
  H   H1587     1.0  0.98450  0.50518  0.71573  1.0000
  H   H1588     1.0  0.93445  0.54460  0.50877  1.0000
  H   H1589     1.0  0.63555  0.94406  0.49151  1.0000
  H   H1590     1.0  0.92849  0.98483  0.51741  1.0000
  H   H1591     1.0  0.85193  0.49488  0.70167  1.0000
  H   H1592     1.0  0.97540  0.89801  0.49403  1.0000
  N   N90       1.0  0.98775  0.52576  0.68389  1.0000
  H   H1593     1.0  0.91586  0.62896  0.49424  1.0000
  C   C1332     1.0  0.98041  0.49407  0.51837  1.0000
  H   H1594     1.0  0.85199  0.82644  0.49181  1.0000
  H   H1595     1.0  0.87271  0.76778  0.49204  1.0000
  H   H1596     1.0  0.84549  0.78267  0.49296  1.0000
  C   C1333     1.0  0.50594  0.93295  0.73614  1.0000
  C   C1334     1.0  0.94816  0.73845  0.49410  1.0000
  S   S357      1.0  0.83145  0.67569  0.49547  1.0000
  S   S358      1.0  0.49881  0.94630  0.66935  1.0000
  C   C1335     1.0  0.98982  0.50328  0.57543  1.0000
  C   C1336     1.0  0.51415  0.99133  0.68927  1.0000
  C   C1337     1.0  0.93395  0.80879  0.49159  1.0000
  H   H1597     1.0  0.49688  0.91233  0.64720  1.0000
  N   N91       1.0  0.91997  0.97499  0.49064  1.0000
  H   H1598     1.0  0.69017  0.88328  0.49217  1.0000
  C   C1338     1.0  0.72392  0.88554  0.49176  1.0000
  H   H1599     1.0  0.75357  0.52253  0.84612  1.0000
  C   C1339     1.0  0.81271  0.56965  0.78777  1.0000
  S   S359      1.0  0.88636  0.61284  0.77562  1.0000
  H   H1600     1.0  0.51986  0.71611  0.91020  1.0000
  H   H1601     1.0  0.59554  0.58351  0.98166  1.0000
  H   H1602     1.0  0.50343  0.66463  0.90488  1.0000
  C   C1340     1.0  0.59329  0.74968  0.90684  1.0000
  H   H1603     1.0  0.57033  0.76166  0.88396  1.0000
  S   S360      1.0  0.90470  0.56033  0.75133  1.0000
  S   S361      1.0  0.62288  0.56131  0.83775  1.0000
  Fe  Fe180     1.0  0.55233  0.57874  0.97394  1.0000
  S   S362      1.0  0.57039  0.58768  0.94126  1.0000
  H   H1604     1.0  0.87508  0.52001  0.77696  1.0000
  Fe  Fe181     1.0  0.51136  0.60945  0.96244  1.0000
  S   S363      1.0  0.52561  0.62132  0.92871  1.0000
  H   H1605     1.0  0.80926  0.52854  0.81170  1.0000
  Fe  Fe182     1.0  0.53932  0.58605  0.92967  1.0000
  S   S364      1.0  0.53620  0.57210  0.90199  1.0000
  Fe  Fe183     1.0  0.55542  0.62223  0.94296  1.0000
  C   C1341     1.0  0.59862  0.67710  0.93666  1.0000
  S   S365      1.0  0.52235  0.57400  0.96226  1.0000
  C   C1342     1.0  0.58682  0.69743  0.96468  1.0000
  H   H1606     1.0  0.52943  0.87710  0.96587  1.0000
  H   H1607     1.0  0.52362  0.88735  0.90125  1.0000
  C   C1343     1.0  0.50266  0.50849  0.93871  1.0000
  S   S366      1.0  0.55673  0.76402  0.94928  1.0000
  H   H1608     1.0  0.90976  0.49791  0.77682  1.0000
  Fe  Fe184     1.0  0.55160  0.79191  0.96569  1.0000
  S   S367      1.0  0.56061  0.82513  0.95018  1.0000
  Fe  Fe185     1.0  0.52218  0.76082  0.96203  1.0000
  C   C1344     1.0  0.66179  0.56487  0.94636  1.0000
  C   C1345     1.0  0.63645  0.62746  0.90954  1.0000
  H   H1609     1.0  0.61062  0.67304  0.92368  1.0000
  C   C1346     1.0  0.58487  0.50984  0.96723  1.0000
  H   H1610     1.0  0.57142  0.51776  0.90963  1.0000
  C   C1347     1.0  0.87825  0.57350  0.80201  1.0000
  H   H1611     1.0  0.60569  0.49577  0.91978  1.0000
  C   C1348     1.0  0.83121  0.51335  0.98632  1.0000
  C   C1349     1.0  0.82433  0.58765  0.78359  1.0000
  H   H1612     1.0  0.95497  0.52337  0.79551  1.0000
  C   C1350     1.0  0.54538  0.83722  0.92884  1.0000
  C   C1351     1.0  0.54056  0.86008  0.92249  1.0000
  C   C1352     1.0  0.52738  0.86971  0.90615  1.0000
  C   C1353     1.0  0.51977  0.85646  0.89562  1.0000
  C   C1354     1.0  0.52528  0.83365  0.90146  1.0000
  C   C1355     1.0  0.53764  0.82404  0.91833  1.0000
  H   H1613     1.0  0.54688  0.87033  0.93030  1.0000
  H   H1614     1.0  0.63231  0.81024  0.93959  1.0000
  H   H1615     1.0  0.51963  0.82337  0.89315  1.0000
  H   H1616     1.0  0.54129  0.80642  0.92305  1.0000
  C   C1356     1.0  0.49683  0.93596  0.96661  1.0000
  H   H1617     1.0  0.59133  0.81101  0.90606  1.0000
  C   C1357     1.0  0.69937  0.52950  0.92414  1.0000
  C   C1358     1.0  0.62141  0.80670  0.92943  1.0000
  H   H1618     1.0  0.64892  0.53642  0.96523  1.0000
  H   H1619     1.0  0.64977  0.77370  0.91441  1.0000
  H   H1620     1.0  0.68339  0.53134  0.91933  1.0000
  H   H1621     1.0  0.92060  0.54710  0.80619  1.0000
  H   H1622     1.0  0.60527  0.81673  0.93306  1.0000
  C   C1359     1.0  0.65884  0.58330  0.92972  1.0000
  C   C1360     1.0  0.52017  0.89325  0.96616  1.0000
  H   H1623     1.0  0.50911  0.71320  0.93807  1.0000
  H   H1624     1.0  0.61613  0.54379  0.94641  1.0000
  C   C1361     1.0  0.57975  0.66728  0.94227  1.0000
  C   C1362     1.0  0.56423  0.67268  0.95904  1.0000
  C   C1363     1.0  0.56759  0.68809  0.96999  1.0000
  C   C1364     1.0  0.61694  0.51398  0.82555  1.0000
  C   C1365     1.0  0.60237  0.69173  0.94813  1.0000
  C   C1366     1.0  0.78148  0.49789  0.84105  1.0000
  H   H1625     1.0  0.54966  0.66510  0.96350  1.0000
  Fe  Fe186     1.0  0.85033  0.51818  0.86101  1.0000
  S   S368      1.0  0.67382  0.51737  0.84127  1.0000
  H   H1626     1.0  0.61961  0.77997  0.96767  1.0000
  H   H1627     1.0  0.78786  0.49771  0.85552  1.0000
  H   H1628     1.0  0.62633  0.50264  0.98174  1.0000
  Fe  Fe187     1.0  0.67949  0.50742  0.87549  1.0000
  C   C1367     1.0  0.59914  0.56308  0.85628  1.0000
  C   C1368     1.0  0.57873  0.56733  0.84891  1.0000
  C   C1369     1.0  0.55948  0.56961  0.86311  1.0000
  C   C1370     1.0  0.56052  0.56824  0.88468  1.0000
  C   C1371     1.0  0.58088  0.56366  0.89215  1.0000
  C   C1372     1.0  0.60016  0.56082  0.87802  1.0000
  H   H1629     1.0  0.57778  0.56908  0.83213  1.0000
  H   H1630     1.0  0.54377  0.57305  0.85725  1.0000
  H   H1631     1.0  0.58167  0.56179  0.90891  1.0000
  H   H1632     1.0  0.61575  0.55729  0.88391  1.0000
  C   C1373     1.0  0.87441  0.59633  0.79877  1.0000
  C   C1374     1.0  0.86065  0.60621  0.81417  1.0000
  H   H1633     1.0  0.85763  0.62389  0.81183  1.0000
  H   H1634     1.0  0.83179  0.55326  0.74050  1.0000
  H   H1635     1.0  0.67136  0.59365  0.92555  1.0000
  C   C1375     1.0  0.60655  0.77749  0.91974  1.0000
  H   H1636     1.0  0.99111  0.51935  0.88002  1.0000
  S   S369      1.0  0.54002  0.61349  0.97691  1.0000
  C   C1376     1.0  0.84814  0.52416  0.97443  1.0000
  C   C1377     1.0  0.95584  0.55513  0.81578  1.0000
  S   S370      1.0  0.96465  0.53256  0.74925  1.0000
  H   H1637     1.0  0.64143  0.50980  0.94223  1.0000
  H   H1638     1.0  0.65192  0.62796  0.91541  1.0000
  H   H1639     1.0  0.61543  0.62550  0.87821  1.0000
  H   H1640     1.0  0.60877  0.75868  0.96105  1.0000
  H   H1641     1.0  0.63350  0.49909  0.79025  1.0000
  H   H1642     1.0  0.74319  0.55605  0.91578  1.0000
  H   H1643     1.0  0.58746  0.50837  0.98354  1.0000
  C   C1378     1.0  0.80811  0.54205  0.82011  1.0000
  N   N92       1.0  0.79820  0.56343  0.80788  1.0000
  H   H1644     1.0  0.76464  0.55818  0.81795  1.0000
  S   S371      1.0  0.84099  0.55452  0.85810  1.0000
  H   H1645     1.0  0.97396  0.55288  0.81331  1.0000
  H   H1646     1.0  0.95103  0.56278  0.79957  1.0000
  H   H1647     1.0  0.94972  0.56724  0.82601  1.0000
  C   C1379     1.0  0.93704  0.51297  0.86264  1.0000
  Fe  Fe188     1.0  0.65522  0.54826  0.85022  1.0000
  H   H1648     1.0  0.67603  0.56157  0.95476  1.0000
  C   C1380     1.0  0.92354  0.53859  0.82276  1.0000
  H   H1649     1.0  0.62786  0.81282  0.91248  1.0000
  H   H1650     1.0  0.80832  0.54281  0.77416  1.0000
  C   C1381     1.0  0.71232  0.54596  0.91598  1.0000
  H   H1651     1.0  0.53232  0.69485  0.92981  1.0000
  H   H1652     1.0  0.65869  0.59116  0.87826  1.0000
  H   H1653     1.0  0.91413  0.54912  0.83364  1.0000
  C   C1382     1.0  0.73302  0.54347  0.92233  1.0000
  C   C1383     1.0  0.58026  0.78796  0.89357  1.0000
  H   H1654     1.0  0.51297  0.97311  0.94796  1.0000
  C   C1384     1.0  0.57516  0.51550  0.92575  1.0000
  S   S372      1.0  0.57649  0.64824  0.92796  1.0000
  H   H1655     1.0  0.64336  0.75294  0.93772  1.0000
  H   H1656     1.0  0.49714  0.72295  0.97681  1.0000
  C   C1385     1.0  0.97134  0.52703  0.85430  1.0000
  H   H1657     1.0  0.78309  0.57469  0.83647  1.0000
  H   H1658     1.0  0.65419  0.62055  0.86987  1.0000
  H   H1659     1.0  0.60356  0.52743  0.82021  1.0000
  H   H1660     1.0  0.61749  0.59651  0.88317  1.0000
  C   C1386     1.0  0.65636  0.60671  0.88392  1.0000
  S   S373      1.0  0.59222  0.71547  0.97906  1.0000
  H   H1661     1.0  0.62309  0.62806  0.92308  1.0000
  C   C1387     1.0  0.56020  0.52486  0.94055  1.0000
  C   C1388     1.0  0.94160  0.50396  0.88355  1.0000
  H   H1662     1.0  0.54486  0.53437  0.93596  1.0000
  H   H1663     1.0  0.67198  0.60738  0.88946  1.0000
  C   C1389     1.0  0.85447  0.57043  0.83561  1.0000
  H   H1664     1.0  0.88893  0.56573  0.79050  1.0000
  S   S374      1.0  0.49976  0.75850  0.93981  1.0000
  C   C1390     1.0  0.58050  0.76602  0.89369  1.0000
  Fe  Fe189     1.0  0.90336  0.59625  0.74905  1.0000
  H   H1665     1.0  0.77699  0.54765  0.79532  1.0000
  C   C1391     1.0  0.77642  0.56143  0.80319  1.0000
  C   C1392     1.0  0.53421  0.49973  0.90396  1.0000
  S   S375      1.0  0.71063  0.52100  0.86960  1.0000
  H   H1666     1.0  0.61726  0.69882  0.94402  1.0000
  H   H1667     1.0  0.60241  0.61159  0.90280  1.0000
  H   H1668     1.0  0.84659  0.60688  0.76150  1.0000
  H   H1669     1.0  0.85808  0.53111  0.98235  1.0000
  C   C1393     1.0  0.81610  0.55710  0.77186  1.0000
  C   C1394     1.0  0.86847  0.56057  0.82042  1.0000
  H   H1670     1.0  0.82491  0.54276  0.82296  1.0000
  S   S376      1.0  0.73022  0.53015  0.80924  1.0000
  H   H1671     1.0  0.61699  0.51282  0.84285  1.0000
  H   H1672     1.0  0.75772  0.49532  0.88714  1.0000
  H   H1673     1.0  0.80998  0.58048  0.82757  1.0000
  H   H1674     1.0  0.87186  0.54301  0.82279  1.0000
  C   C1395     1.0  0.95149  0.52536  0.84749  1.0000
  C   C1396     1.0  0.51907  0.90221  0.98385  1.0000
  C   C1397     1.0  0.83993  0.51660  0.94233  1.0000
  H   H1675     1.0  0.78758  0.59611  0.81336  1.0000
  H   H1676     1.0  0.61156  0.64633  0.97416  1.0000
  C   C1398     1.0  0.79458  0.57948  0.82179  1.0000
  S   S377      1.0  0.51622  0.79051  0.97576  1.0000
  Fe  Fe190     1.0  0.68958  0.55187  0.87568  1.0000
  C   C1399     1.0  0.62830  0.55461  0.94148  1.0000
  H   H1677     1.0  0.97557  0.57272  0.75592  1.0000
  H   H1678     1.0  0.61471  0.74196  0.93051  1.0000
  H   H1679     1.0  0.56978  0.80064  0.88379  1.0000
  H   H1680     1.0  0.51034  0.52047  0.97290  1.0000
  H   H1681     1.0  0.97610  0.51466  0.81274  1.0000
  H   H1682     1.0  0.50077  0.83096  0.94822  1.0000
  H   H1683     1.0  0.83985  0.60105  0.84425  1.0000
  C   C1400     1.0  0.76193  0.51170  0.83587  1.0000
  H   H1684     1.0  0.91634  0.52333  0.82568  1.0000
  C   C1401     1.0  0.50911  0.90492  0.94905  1.0000
  N   N93       1.0  0.94722  0.53418  0.82508  1.0000
  H   H1685     1.0  0.61130  0.57462  0.91665  1.0000
  S   S378      1.0  0.50386  0.86782  0.87472  1.0000
  H   H1686     1.0  0.59286  0.73258  0.90750  1.0000
  S   S379      1.0  0.70344  0.56814  0.89595  1.0000
  H   H1687     1.0  0.79853  0.53730  0.83603  1.0000
  H   H1688     1.0  0.76917  0.57668  0.79259  1.0000
  Fe  Fe191     1.0  0.70339  0.53378  0.83616  1.0000
  H   H1689     1.0  0.98387  0.53504  0.84353  1.0000
  C   C1402     1.0  0.61733  0.61031  0.89094  1.0000
  S   S380      1.0  0.68434  0.56597  0.84159  1.0000
  H   H1690     1.0  0.82349  0.59775  0.79493  1.0000
  C   C1403     1.0  0.59494  0.50318  0.93162  1.0000
  C   C1404     1.0  0.52204  0.52057  0.90296  1.0000
  C   C1405     1.0  0.64052  0.58785  0.91831  1.0000
  H   H1691     1.0  0.95208  0.50194  0.81863  1.0000
  C   C1406     1.0  0.95811  0.51786  0.81244  1.0000
  C   C1407     1.0  0.74093  0.52421  0.93644  1.0000
  H   H1692     1.0  0.63314  0.64281  0.89724  1.0000
  N   N94       1.0  0.63756  0.60767  0.90095  1.0000
  C   C1408     1.0  0.60600  0.75526  0.91981  1.0000
  C   C1409     1.0  0.97583  0.51783  0.87521  1.0000
  C   C1410     1.0  0.85061  0.59330  0.83250  1.0000
  H   H1693     1.0  0.61343  0.61710  0.97908  1.0000
  S   S381      1.0  0.65882  0.53706  0.88501  1.0000
  N   N95       1.0  0.61990  0.78296  0.93388  1.0000
  C   C1411     1.0  0.61004  0.77647  0.95630  1.0000
  H   H1694     1.0  0.52491  0.53352  0.88901  1.0000
  C   C1412     1.0  0.82960  0.56276  0.75267  1.0000
  C   C1413     1.0  0.81843  0.50329  0.97659  1.0000
  C   C1414     1.0  0.64255  0.77090  0.93148  1.0000
  H   H1695     1.0  0.86577  0.53396  0.94333  1.0000
  C   C1415     1.0  0.70700  0.51057  0.93860  1.0000
  C   C1416     1.0  0.51623  0.70409  0.92535  1.0000
  C   C1417     1.0  0.56502  0.52199  0.96123  1.0000
  C   C1418     1.0  0.62546  0.57274  0.92455  1.0000
  C   C1419     1.0  0.59295  0.79373  0.90645  1.0000
  H   H1696     1.0  0.55557  0.69236  0.98287  1.0000
  H   H1697     1.0  0.75910  0.49899  0.78870  1.0000
  H   H1698     1.0  0.51482  0.66503  0.94916  1.0000
  H   H1699     1.0  0.59322  0.78562  0.95876  1.0000
  C   C1420     1.0  0.64660  0.55052  0.95216  1.0000
  C   C1421     1.0  0.96094  0.50645  0.88985  1.0000
  C   C1422     1.0  0.98505  0.53771  0.76209  1.0000
  C   C1423     1.0  0.83784  0.59308  0.76438  1.0000
  H   H1700     1.0  0.92225  0.50975  0.85852  1.0000
  H   H1701     1.0  0.51137  0.84583  0.97506  1.0000
  H   H1702     1.0  0.51429  0.68887  0.89049  1.0000
  C   C1424     1.0  0.60466  0.63199  0.98462  1.0000
  H   H1703     1.0  0.75709  0.52208  0.94104  1.0000
  H   H1704     1.0  0.77634  0.52069  0.98475  1.0000
  H   H1705     1.0  0.63984  0.50066  0.87560  1.0000
  C   C1425     1.0  0.50649  0.52503  0.92003  1.0000
  C   C1426     1.0  0.76520  0.49864  0.80339  1.0000
  H   H1706     1.0  0.65343  0.77608  0.94055  1.0000
  H   H1707     1.0  0.54638  0.49635  0.89079  1.0000
  C   C1427     1.0  0.72788  0.50778  0.94452  1.0000
  C   C1428     1.0  0.85248  0.52580  0.95248  1.0000
  S   S382      1.0  0.85837  0.50248  0.83288  1.0000
  C   C1429     1.0  0.82320  0.50539  0.95412  1.0000
  Fe  Fe192     1.0  0.56397  0.74276  0.98087  1.0000
  C   C1430     1.0  0.49763  0.92597  0.94917  1.0000
  H   H1708     1.0  0.55331  0.52924  0.97275  1.0000
  H   H1709     1.0  0.63456  0.58241  0.98574  1.0000
  H   H1710     1.0  0.81455  0.49824  0.94522  1.0000
  C   C1431     1.0  0.75377  0.51207  0.81699  1.0000
  C   C1432     1.0  0.51256  0.67742  0.90637  1.0000
  C   C1433     1.0  0.50753  0.92320  0.98424  1.0000
  H   H1711     1.0  0.84354  0.51763  0.92527  1.0000
  H   H1712     1.0  0.52927  0.66900  0.90975  1.0000
  S   S383      1.0  0.87919  0.49910  0.87693  1.0000
  H   H1713     1.0  0.91383  0.50088  0.74835  1.0000
  C   C1434     1.0  0.98635  0.55893  0.76371  1.0000
  H   H1714     1.0  0.96457  0.49936  0.90601  1.0000
  C   C1435     1.0  0.60049  0.49996  0.95249  1.0000
  C   C1436     1.0  0.84036  0.58077  0.74894  1.0000
  H   H1715     1.0  0.57943  0.50289  0.82283  1.0000
  N   N96       1.0  0.50148  0.68931  0.92313  1.0000
  H   H1716     1.0  0.60474  0.50754  0.79011  1.0000
  C   C1437     1.0  0.49785  0.50939  0.97611  1.0000
  H   H1717     1.0  0.69698  0.49780  0.94463  1.0000
  H   H1718     1.0  0.85365  0.51494  0.76488  1.0000
  H   H1719     1.0  0.49796  0.54166  0.91821  1.0000
  H   H1720     1.0  0.58744  0.63395  0.98161  1.0000
  C   C1438     1.0  0.87169  0.51386  0.76340  1.0000
  C   C1439     1.0  0.49880  0.67334  0.94383  1.0000
  H   H1721     1.0  0.50943  0.89766  0.93557  1.0000
  H   H1722     1.0  0.63234  0.51987  0.81726  1.0000
  S   S384      1.0  0.82699  0.49548  0.87908  1.0000
  H   H1723     1.0  0.87714  0.52541  0.74847  1.0000
  H   H1724     1.0  0.93008  0.49485  0.89483  1.0000
  C   C1440     1.0  0.61730  0.49463  0.79790  1.0000
  H   H1725     1.0  0.50358  0.96695  0.98740  1.0000
  H   H1726     1.0  0.90938  0.49358  0.94583  1.0000
  H   H1727     1.0  0.60214  0.49418  0.87630  1.0000
  H   H1728     1.0  0.73148  0.49396  0.90311  1.0000
