data_image0
_chemical_formula_structural       FeS2FeS2FeSFeS3HFeHSHC2SFeH4CH4C6H4C3HC3SHCHCHCHC3HCH3C2H3CH3C2HC2H4C2H4C2HCH2NC2HC2NC3H3CHCHCHCH3C2HNCHCH2C3H3SC3HCH2CSC3HC6HCSCH3FeSH3CHCHC2HCHC2SHCH2CHSH2C3H6CHCHCH5NCHFeS2FeSCFeSFeCS2H2CFeS2FeS2FeSFeS3FeS2FeSCFeSFeS4HCSHC2H4SHCS2HCSHCFeS2NCH2C2HCFeCH2C8H3Fe2CH6C2FeHNC2HCH2SH2CH2CSHC2H2C2HC2HC2HC3H2CHC6H4C6H4C6HC7H4C6H4C5H3CHCHCHCH2CH2FeH3CH2CHCH3CH3CH2SCH2SH2C2HSN2FeSCHFeH2CH3C4H6SC2HNH4C4HNHCSH3NC8H10CNC9H12C2NHNH2C2HSH3C4H4CHCH2CH2C2HCH2CHC4H2C3H2C2SHC2H3CHC2HC2HNHC4H5CH2CHSH3CHC2HCHCHC3HNHCHCH3CHC5H5CSC2H6CH2SH4C2FeHCHCH2SH2CH3CH2C3HC2HCSC2HCHNCHCS2HCFeS2FeS2FeSFeS3FeS2HSFeS2FeS2FeSFeS4CSH5C6H4C6H4C7H4C4SH4C2FeH2CH3C6H4C2HNC9H19C2HCSC4NHS2H3C2NC9H14CH2CHNSH3CH2C2NH4CHNFeSHCH2CNHC9H5C2FeHSHCHC2H3CNCFeCNCHCSH4FeH3CH2SCH10CH4CH2CH7CH3C5HCHC2SCH4CHC4H3SC3H6SFeH5CNHC3HC3HNCH2C2FeS2FeS2FeSFeS3FeS2FeSFeSFeS4C2SFeS2FeSFeS3HC3HCH6CFeSHFeSHFeSFeSCS2FeS2HFeSCHSCHCNC2SCH2C2SHC6HCHC6H3C2NCSH2C4H4CHCH2C6H4C2H2CH2C2H2CH4C6H4C6H2CHC4H3C6H4C6H4C6H4C6H4CH5C2HNC9H4CH2CH6NC6FeC2HSH2CSCH4CHC2HC4HSH4C4H3SHC2H2NC7H7C2HSCH8NC2FeHCHCHC2HFeC3HC2HCHC2HNC9H14NH2FeH2SH5CHC3HC3HCHNC3H3FeH5CH4FeH2SCH8CHSC2H5CNSH4NH3CHFeCHCHC3H2C3HCH2SH2SH6C4H4CH4CNC2FeS2CH6CH2SC3SHCH4C6H2CH3CSC3HFeCHC2HCHCH2SCFe2HSHNSH3C3H4CSCH2CH3C2H4NCH8SCHCH2SH4C2H3CH2FeHCH3SCNH2CH3NH2S2HC2HCH3C3FeS2FeS2FeSFeS3FeS2FeS2FeSFeCS2HC4H2C6H4C6H4C3SCHCH3C4H2NHCHCHC5H4CH6CFeH4CH3FeH3C4HC2H3C3NC9H15CHFeH3CHSH2CH4C3SH2CNC9H11CHNH6C3SHCNSHCNSCHC3HC2HCHCHCNSHCH2CSH7CH3CH2CHC2HC3SH3C2H3SHCH2FeS2FeC2FeCFeCS2FeS2FeC2FeSFeS2HFeSCFeS2FeSFeS2FeS2FeS2FeSFeS3FeS2FeSHFeSFeS3FeS2FeS2FeHFeS3FeS2FeS2FeSFeS3C6H4C6H5C6H4C6H4CNHC2SHC6H2C6H4C6H4C5H5C6H4CNH3C6H5C4H5NC7HCH13CH2SH2CH2CSHC3HNC6H13SHN2C9H14FeHFeH5CHCHCHC2SC2H3NC3H2C2H12C2H4C2H2SNHCSHCH3NC9H15CHC2H3C3H2FeCHC3HCH3C7HSH8C3NHCNSH3C3SCH5SH3C2SHNCH2CH7CH3C2NHCH2CHC4H3CHC2HCHCHCHCH3CH2SHCH2C2H2FeH2CH2CHCH4C3FeC3H2NH2C2HC2HFeH4CSHSH9SFeS2FeSFeNFeS4H2CFeS2FeS2FeSFeS3FeSCHFe2S2CHC6H4C6H3CH2C4NH2CHNC6HSH2C6H4CHC2H3SC2H2CH2CH2CSHCHCH2C2HCHCH6CHCFeH2C2HFeH4CHCHNH4CFeHC2HCH4C2H2SH2C2H2NHCH2CH3C2HCH3SCH4CSH2CH2C4FeHSC2H2CNH4CSH2C2SH3SFeNHCSHCH2C2SCHCH2CH2SNSCH2FeS2FeS2FeSFeS3FeHSHCH2SH6C3HCSNSC2H2C2H3C6H2CHC6H4CH5CH2CH2CH3CSHCH2CHC4H4C2HCH2CSC3H5CHN3C2FeHCSC2H2CNHC2HCHCH4CH6CHC7SHC2HSC2H2CHCH3C2H2CFeH2CH4CH2CHCHCFeH3C3HCFeS2FeS2CHC3H2FeH2CHSH3SFeS2FeH2C2HNHC2H2CHFeSCFeS2FeHFeS4C2FeS2FeSH2FeSCSCSH2CH2C2HCHCH5CH2SHCH2CH5C2NCH2C2NH2CHCH2C6H5C2H3FeCHCHFeH5SH2CNCSCSC6H2CHSH2C2H2C2H2FeCH2C6H2C3H3C3H3SCNH5SHCH2C6H4C6H3FeH2CH2SHCHCH4SH4CH2CH2C3HCH4CFeSHCSH2SFeCS2HCFeSFeS2FeS2FeSFeS3HCHC6H4C6H4N2HSC2NH3SH3C2SH5CH4CHC6H3C2H3C5HCH2CHC2HSHC9H2C3HCH2CH4C2HC5HCHCH3CH2CH2CHNHNH3C2H2C2HFeSC2NCHC5SHCH5C2H4CHCH5CH3FeHCNSC10H4SHSH4CFeHSHCFe2CHFeSHCHCSC2HSH2CHSHC2HFeCSCHCHCSH2FeN2CFeHSFe2CHC3SNH2C2HCHSH2SCH2S2H2CH2C2HSHC3HFeCH2CHNCH2FeSHC2H2CSC4HFeSFeHC4FeC2HCH3S2HCFeCH3CH2CH2NCH3C3SH2CH3CFeH2S2H4NCH2C2HCHCSHSC3HCH6NHC3H2C2HCH2C3H2SHC2FeHC2H3C6H2C2H3C2HS2H2CH2C2S2HCH6CHCHCH6CSC3SC2NH2C3H3CHC2H7C2H2CSHCHCHSCH3CHCSFeHCH2SH2C3SHCFeHC2S2FeSFeCS2H2SHCHFe2S2FeS2FeSFeS2HFeS2FeS2FeSFeS3C6H4C6H4C8H4C4H3C6HCH7C3HC7H4CHCHC7H5CHCNCHCH2CH4CHSCHNC9H3CH3SH5NC9H15NC6HCH12SHCH2C2H2CSC2HCHCFeC3H3CH3C2NCHC2HC2HCHS2CHSCFeNC7HC3H7C2HCH3C3HC2HCH4CHCFeHNC4HCHCHCH6C2HC2H5CSCFeHFeC2FeH4CSCH2C2S7CHCHCH2CHNSC4H3C3H4SHC2S2FeC3H3CHFeHC4FeC2H2CHC2HCFeSC2SCS2H3CHCHCSCHCNH5CSHCHCHCH3CHFeHSH5C3H3CHCH2CH4SCH3NC2HCHSC3H2SC2H4CHNHCHCH2CHCH2NCH7CHC5H2CHCHC2NC2H5C4H6CHFeH2CHC3HCH5FeSFeS2Fe2S2H2CH5CH2C2HCH2C2H2CH2C3H2NS2FeS2FeHFeSHSC4HCH3C3SFeCH2CHC2H2CH3CFeNH3SH2NH4C4HC3H5CH2CH3C2HC2H3CH2C7H4C2H3SHCH2C4H2CS2CHC2H2SCHCH2C2HCHCHC2H2N2CSC2H2CHCH2C5SNHC2FeHFeH3C5NHC8FeNH2CH2CH7CHSNSH2SH3C3SHC2HC7HCH4CH3SCH3C2HCH2C2H12CH4CH2CHC2FeHSFeS2FeHFeCS2FeS2FeS2FeS2HC2H2FeH2CH2SC6H4CHSCH3SCH2C4SCH2CHNH2CH3CH2C2HC4HCH2NC9H6C2H3CH2C2H3C3HCSHCH4C2FeS2FeS2FeNFeS3H3SCNHSC2H2C5HCH3CHFeS2FeSHCSFeS2FeS2FeSFeS3CHC6H4CH3FeHFeC2HCH3C2NHC2HCH2C6H6C2H2NHCHCH2CNHCHCSHCHCHC3H2C3H2C2HCH4CH6CH4SH2CH2CH6CHC2HSHCHCHCH2CH5FeHSHC2HC3HC2H3CHCHC5HC3H2CH2CHC4H2CHC2H3CNCH2C2H2CHC2HCHC2HC2HCH2CHFeS2FeSFeHSHFeSFeS3FeSFeS3CHSHCS4FeS2FeS2FeSFeS3Fe2S2FeS2FeHFeS3CH3C2FeS2C7H5NH2SHCHC2HSCHCHC6H2CHC6H4C3HCH2CH4C7H4C7H3CHC6H4CH5CHC6H4C3SCH5C3H2C3HFeC2H2C2FeCH2NSC4HC5NC9H14NC9H4CH9NC9H15FeH2CSCFeHNCSHC2FeH2CNH5CH2CHNH2CSCH5SHC2HSHCHC2H6CH2SH3CH4NH2C8H2CH9CH3C2HC2HCH2SCH2CHNC6H11C2HCNHSHC3HC2HCH2CH2CHCHCH2C2HC3H3CHC2HCSH5CFe2C3H2SFeHCS2HCH2NC2FeHC2H3CHS2CFeH2C2FeCH4CH2C2S2C3HCHC2SH2NHNHCH2CNC4H3CHCHFeHCH2C2H5CFeCHCHCHCSCH3CHC2HCH2CSHCSC3HSNH3SHC2HNHFeH2FeS2CH2S2FeCS2HSFeSHSHFeS2FeS2FeSFeS3H4Fe2CSCHFeH2SC7H4C6H4C5H3C6H4C6H2CHC2HC3H2SH2C2H3NCHCHSC2H3S3CSH2SNCHSCH4CFeHC2HCH3CH2CH2SHCHFeHC2HCHCNC9H17C2HC3H3FeH2CHC2FeH2CHCHSFeH4CH2C2H4NCHSCH4CFeH2C2HFeCNCNCH3CH2C2H2CH5SH6CHSC3HFeCH3CSH2C2H2CHNC2HC2HC2H2C4H4CHC2H2CH2FeS2FeSFeS2HCHC2H9CH3CHFeSCSHCH2CFeSH3SHFeSFe2S2FeSFeS3CHCFeS2FeS2FeSFeS3HCSFe2S2HCSCH2FeSHCH3C4H3C6H5SC3H6CSHC2HC5HCHCHCSH4SC3H2CH4CHC7H2CHC6H4C6H2C2HCH2CHCSCH3C6H3C6H4CHC4H3C4HSHC2FeNC9H16CH2CFeSCH2FeH2NCSH3SCHCHNHFeCNC9H4SH9NHC4FeHC2HSH2C2HCHCH3N2CHC7H4CHCFeCSH2CHCH2SH4CHC2HCH3C2H3SHSH2CH2CHSH5FeCSHNCHCSH2CH2CHSCSC2SC2HCHCSC3HNH4FeHSH6C3FeH2NC5HC3HCH2C2H8NFeS2CHCHC3NHC3HCNHC2HCH8SH4FeNHC2H2C2H4CH2S2H3FeSCFeS2FeSFeS2HFeH4C2HC2S3H4FeSCFeSHFeSFeSHS2H4CS2H2CHC5H4FeCH3C10HFeH2CSCHCHCH3C6H2CHC2HC3HCSHC2SH2CSC6H2CH2CHFeHFeHCHCH2C2H2SC3H2CH4CH5CH6CH3C5H2CSC4HNCHCFe2HSH2NC9H12CH2NCFeC2NHCHCH3C2SCFeH2FeC2SCSHCHCSH2CHCFeCH5SC2HCHCSC2HCHS2HNCHCH2NCH2C2HCH3CH6CHCHCH4C3HC2SHCS2NHCFeH6SH3CSCH2C3HSCNHFeS2HCFeH3CS2HSCFeS2FeS2FeSFeS3HFeSHFeS2H2FeSHSCHSFeCHSC3H2SHSHCHCHCHSCHCSHCS2C2FeS2FeS2FeSFeS3FeS2Fe2S2HC2H2C2H5CSH7C2HC6H4C6H5C2H2C6H4C6H2CH3C4HC2FeC6H3C4FeHSH2FeH2NHCH2C2FeHC6H4C6H4C6H4C5H3SHC6H4C6H5SC6H5FeCH3CHSH2CH5CH3SNC10H3CH3SH5NH2CHCH6CFeNHCH2CSHCHNHCHC6HCHCH3SFeHCHCHC3H4SHFeH2C2H6NC9H13SNCNH2CH3CH3CHCHFeSCHNCHCH2SFeSH3CHC2HCHC5H3C2SH2NH2CH4CHCH3CH2CH11C2HC5NCH2SH2CSFeCH3C2HFeH2SC2HCFeCHCHFeH2CH2C2FeNH3CHCH2CSCH3CH2SCH3CSC2HCH2SC2SHC2SH3FeHFeSFeS2CHFeHCFeH2FeS2FeSHNS2FeSFeSFeS2C6H4C5H5C6H4C3HSCHFeH2CH2C2HC3S2CFeHCHSC6H4C3FeC4NH6C2NCFeH2C3H3SHCH2CH2S2H3S2H3CH5C2H2SC2HNCH3C2HFeCHCHC2H2CHC2HC3SCHNC9H14NC2SC6H2C2HCFeHCH6CHCH4SHSH6NH2CHC2HFeH3CHCSCFeCHFeS2FeHFeHS2FeS2FeS2Fe2HS2HC7H4C6H4C2SHNH2SCH4C2HCHCSH3C2H4NC3HCNHCH2C2HCHSHC5H7C3H2CNC8H13CHNC9H14C3H2NC2H4SHC2H3C2HFeCSCH2CNHFeS2FeS2FeSFeS3H2CHCFeSFeS2FeS3FeSHFeS2FeSFeS3C2HCHCHCFeS2HCH2SCHCHFeS2CFeSCSH3CSHFeSCHFe3H5CHCHFeH4CHC5H3C6H4CH2C3HCH2C6H5CHCH2SCHC3H2CNCHCHC4HNH2C5H2C2H2C6H4C6H4C4HSHC7HC2H2SHCHSHCHC2H3C2H7CHC2HSH2CSH2CHSHFeC2HCNHC3HCH4SC4H4CH3SCSC5HC2H3CH4SHNC4HCH12CHC2H2FeHC2HFeCH4CHFeCH3CH2CHNC3H3C3HCHCH3CH3C2NC9H3SHCHC2NCHSH3C4FeCHCHCHSHC5SHCHSCH3C2HFeNH5CH2CSH2CHC3H6CH4CHC2H4C2H2CH2SCFeS2FeSFeHS2FeS2FeS2FeSFeS3H3CHFeS2FeSFeNSH2FeSCSC2H3C2HC5H4CHC2H2CH4CFeH2C3HCSH3C7H3C8H3C2HCHC3HC6H4C2HC2HFeC2HCSH5CHCH2CH5C3SC2H3SC3FeCHSH3C2SH2CSCH4CH2SH4CH4FeH3NCFeHC6NC4H2C4HSC4H2CSH2CH3C2H2SH2CFeC2HC3H2CHC2H2CH4CHCH3CHCH3CSHNCHCNC9H14NC9H2CH9C3H2CH4SH2CHC2HNCH2SHCHSH2CH3CSHC2HCHC2H2FeC2HCH4C2HC2HC2H2C4H2C2HCS2H2CHNHNH2C3HSCH2CHSCH2CHC2FeH2S2CHCH2CNCH5C3HC3FeH3C2HSH4SFeHSFeS2FeCFeS3Fe2SCS2FeSH2C2H2SHSC2HCSHCFeS2FeSCFeSFeS3HCSFeH5C2HNSC2H2C2NSCFeH5CHC6H5C6H3SHC2H2CNC7H3C6H4FeH2C7H3SCH2C2HCNH4C3FeHC3H2C3HC2H3C2HCHCSH3C2H2CHCH8C2H4SCFeH2CHSCH2FeC2NC2HCHCSH3CHC2HCH4C2HNC9HCHC2H2CH2FeH6FeSHSCH4CNC4NCHCH3CH3CH5S2CSCHCHCHSHCSH2C2H2C3HC2HCH3CH3CHC2HCHCHC2FeC3H4C3HC2HC2S2FeSH2CH4C2HCSC2SCHC2HCFeSH2CHCNHCH2S2H2CH3CFeHC4H3FeH2CHSH2NH2CH2NCSH5CH4CHCHCFeHCH2SHC2HSCFeS2FeS2FeCFeS3FeS2FeS2FeCFeS3HCHCHC2HC3HCH2C2NC4H7CH3CHCHCSHC6H4C2H2C2H2C4HC2HCH5CHC2HCH2C2HNC2H3CHC3HCH4CH3CHCHSCH2C2H3C2H4C2H5C2HC2H6SHCH7CH2C3HCHC3HCH2C2HCHNCSC2HCNH3SNCHCH5C2SC3HC2HCH6NHFeS2FeSHSCHFeS2FeS2FeCFeS3H2SCFeHFeS2FeS2FeSFeS3HSHCHCHSCHFeHCH2CFeS2H2S2C2HFeS2FeSFeSNC4H2C7H4SC6H6C5H2C6H3C4H3C6H4C6H2SHFeH2C2H2SH2C3H7C3H2C6H4SCNC2FeH2SNHCSC2HC5HCSHFeCH2C3SNH2NC8H10CSHNC9H14NC6H2CH6C2H2CNHSCSNC9H3CH3CH6CHCH6CHCS2C3HCHC2HSC2H2C2HCFeNCH3C2FeH3C3HSCHSH2CH2FeSHC2H2NC9H13C2FeS2CHCH2C2FeC2H3CH2CSH3FeC2H3CH4SHSH3CHC3SH4CSH3C3HCFeCFeCH3FeHCHFeC2H2SH4CH2C3H3SCFeCH4CHC3HCNSHSNHSHCHC2H5FeH2S2HC3HFeCSHCFeS2CH2SCHCFeS2FeS2FeSFeS3C2HCHCFeHSHFeHSHC2HSCHC6H4C4HCHCH2C2NCNHCSCH4CH2CHC4H2SNSH3C2H2C7H3CFeCHSH4SC3HFeC2FeHC3HFeSC8H4C2H3FeH3NC9H14SH3FeH12CH7C4FeH2SC2SH8C2SH2C2SC2SHNC9H11CHCHCHCH2CNHCH2C3H6CHCHCH3C2HC3HCH4FeS2FeS2FeSFeS4HNC3HCFeCHFeCH2SFeS2HFeHSCH2S2CH4CHSHCHC10SHSC2SHC2HCH2CNH2SHCHSH4SHCHC2H3C7H2C8H4C2HSH3CHC7H3Fe2HC2HSCH3CNC9H14NC8H12SHSHFe2C2FeH2C3H4CH2FeCSCHCHCHSNCH2CH2C4H5CHC2H2NH2CSH2CSH2C3H2CSH2CHCN2HNH2C2H4CFeH5CFeSHC2H4CH5SHCH2C4H3CHFe2SHSC3H2C2H2CHCHFeCHFeS2FeSCS2C2HCH2CH3CHC2SHC3SCHCHFeSFeC3S3FeS2FeS2FeSHS2FeS2FeS2HC3HNC4FeC2H2CHCH3CHC2SCH2SHFeCH2CHC6H4CHC4H5C3SHCH3FeCH4CH2NHSH2SH6C2HCHNCH2CH2C6H4C2HC3H2CH2C2H3C2H3CH3C2H3S2H3FeC3HFeNHC2H4SH2NH2CH6C5HCH3FeH4SH2CNC3HNC9H4NH2CH3C2H4FeHC3H4C3HNCS2HCHCHC2FeSFeHFeS3HCFeS2FeS2Fe2S3FeS2FeSCFeS3CFeS2FeCFeSFeS2FeS2FeSFeS3H3SCHFeS2FeS2FeSFeHS2CHFeHNHSFeHCH7C2H4C3HC5H5C4H5C2HC3HCH2C6H2C6H4CH4C2HFeHCFeC6H7C2HC6H4C6H4CHC2HCHC2HC5H3C6H4CH3CHCSHCNC9H14NC4H3C2H4CHC2HCH2C2NC9H14CH4CH3SCHNH2CHCS3HFeH2SC5HSC2FeCH3CSCH3C2SH3SFeHNC9H14SNC9H14NC9H14C2HCH7C2NC6HCHCHCHFeH6C3SH2C2FeSH3CH2SHNH2CNHCH2SHNH3CHCSNHFeH7CHC2SHC2NH13CNHFeHS2H3FeS2FeS2FeSFeS3HCS2FeSFeHSFeS2FeS2FeSFeS3C5H3C6H5C2H2C7H4C6H2CHC6H5C5H3NC6SFeC3H6CH2CHC2H3CHC4H2C2NC3H10CHNH2CHC2HC2H5CH2CHCNHC6HCH2CHFeHC2H4NH6C3H2CHC2HCH6C2HCHC2H2CSHCNH2NC4H4C3H2C2H2CHC3H3CHCHCHC4HC2SCH7CHFeHSHFeHCH3CHC2S2H3C2SH2CHCHCHC2HSFeSCHNC6SHCH2C2NHFe2HSHC2H2CHCHSC2HNH7CHC2S3CH4CHFeCH2CHSC2H2CHFeCH2SHS3HCH7SCSHCHC3H3SHC2HCHCH3CH2C2HNCH5CHCHFeCHFeCHC2HCSH2C2HCH4CHCSHCH3C5NCH2SH3SH2C3HCHFeH3C2H2CFeCSHCSH2CHFeSFeS2FeS3C3SH3CHS2HSC2H2CHSHNC2HC2HCH3FeS2FeS2FeSFeS3HCH4CH3S2CHC3NCH3CFeHC6H4C2SNC5H3CH3CH5SH2CHC2HSC6H5FeC5FeHC2HCHSHS2HC2SHFeC6H4CHC6H4CH7CH2C2H3CH3NCH4NHC4H2CH3CHSCHCNH3CH2SC3HCHNH2SC6FeC2HCFeHSCFeHCH2CH2CH2C2NC2NC6H6SH5CNC8H11CH2C2HNCH3CHC3H9CH2NC9H16C2HCNHCSC2H2CH3CHCHCH4CH2CHC2NFeSH2CFeS2FeS2FeSFeS3FeS2FeSHSC3H2CH2CHC5H3C6H4C6H4SHNHC3HCH2CH2SH2CH4C2NHC2HSCHSHCH2C2HC2HCH2FeH6CH2C5FeH2CHC3HCSCH2CH3FeHSCHCH2CH5C3HN2HC8HCHC2H14FeC2H2C2H3SHCH3CHC3HC2HCHCHSFe2S2FeSCHS2HFeSHFeSFeSFeS3HFeS2FeS2FeSFeS3H2C2H2C2H3CH4C4HCH2CHC6H4C6H5CHC3H2C6H4C6H4CHC3HCHC3H2C2NHNC3HC2H2CH4NH3CH2SCHSC2H4SHCHCH2C2H2C2HCHSHCH3CH6C4NC10H2C2H2CH4CHNC7NH10C2H2CH2SHCNH7CHC2HC3H3SHCHSH4C2H2C2HNC3HCH6C6HC2H8FeH2CSCH2SH4SHSH2FeS2FeCFeSCSCFeS2FeS2FeSFeS3FeS2FeS2FeSFeS3CHCFeS3CSH2FeS2FeS2FeSFeS3FeCSFeHSFeSCSH2C2HC6H5C3HCH3C8H5C2HCHC3HC5HCHC6H4C6H4C6H6C5H4C4H2C6H4C8H2C6H3CNC9H14C3NC9H15C3H2CH4C2SNH3SH2NCHFeHCHCH2CH3NC9H14NC3H7CH3CH3C2NCH2NC9H4CH2SCH5NC9H13CSH3SH4FeHCHCHCH3SH5CH8CHC3HFeHCNC8H13SC2NCH6SHSHC2H2CSC2H2CH2C2H2C5SHC2H3C2HCH4CH3NCHCHNSHFeS2FeS2FeSFeS3FeS2H3CFe2H2SH3C2Fe2CNC3HC2H3NH3SCSHCH6CH2CHC2HCH3C3HNC7HCH2C6H5CHSHCH2SC6H3C6HC2H3C2H5NHC3H6C2HCH6CSCHCSC3HCFeC2SHCH2CHSH2FeCSFeS2FeS2FeSFeS3H3CSC2H5CSFeHFe2C2FeSHFeS2FeSFeS3FeHCFeS2C2FeSHSFeS2FeS2FeSFeCS2FeS3HCSHSCNCHCSH2CH2FeH2NSNHCH2C6H4C6H4C6H4C6H4C5H4CHCHSH2SCH3SHC2H3CH2SH3CS2H3CHFeH2CHCH6CHCHCH3Fe2CHC6HCH2C6H4C6H4CFeC3H2CNCH2CSCHC2H2CHC2HNH2CHCHCH2CH2CHNCHC2HCH4C3H2C2HNC8H12CHSCH3C2H4CHC2SH4CNHSC3H2SHCH2FeHC2HC2NHCH2CH3CHNCH3CH2C3HC3HC2HC2H2CHC2H3CH2SH2C3H5NH2CNH3SC2H5CHCH2C3FeHCH8SHC2HCH2FeC2H3CSC2H2FeH5FeC2HFeCSHFe2SCSH2FeS2FeS2CFeS2FeS2FeSFeS3FeSHFeHSFeCHSFeS2HFeSNC7H5C6H4C6HSH2C6H8FeCH2SH2CHC2H3C3H2CHSCH3CHC4H4SNHC4HNC2H3NH4CHCH3NC9H4CH9C6SCHCH2SFeCHCHC4HC3SC3NHC2H4CFeH2C2HNHCHNC9H19CHFeH3C6H7C2HCHCN2CH2C3HCHS2HCFeH8S2C2SHC3HC2H2CHC2HFeHC3H2C2HC2H2S2HSCSCHCHSC2SCH3CNHCH2SCH3FeC3FeHCS2CHC3SC3H4SH4C2S2H3FeH3CH2CH2CHNH3CH5C2H2CHCH6CSCHNH3S2C4HCH4C2HC2SHC2HSFeS2FeSHSHFeS2FeS2FeSFeS3FeHCFeS2CFeSHSFeS2H2FeSCS3HFeS2CSHFeSFeS2HC2SCS2HSH4SFeSC6H2CHFeH4CFeH3SHC9H5C2HC6H4C6H4C6H4C6H4C6H3NC6H3C3H5SC6H4CH5NC9H13NC9H15SCNH3C6HC3SHCFeNCH4FeH2FeCHC4H3FeNCSNC2H3CH3CH2C2SH3SH4C2H2NH3CH2CH2CNC9H14NC5H7SHCH2C6H2CH4FeH4C4H7C2HFeH3CHCHCH2C2HFeNH2CS3H4CHSCHCHC4H2C2HC2H3SHFeSFeS2FeHFeS3CHCFeS2FeSFeSCSFeS2HSH2FeSHSHCSHCHCH5C2HCHC6H4C7H3C6H4CH2CHCH4C5H3NHCH3SCNHCFe2CH2C2HCNCHCSC2H2CH3SHC2H2C2H3CHS2NH2CH2C3H4CSHCH2CH2FeCHCHNH6SC3H2CH4C2H3C2H3CHCH2CHC2HCHC2HC2H4CHCHCHC3NCSH
_chemical_formula_sum              "Fe768 S1536 H6912 C5760 N384"
_cell_length_a       91.336
_cell_length_b       91.9456
_cell_length_c       92.0689
_cell_angle_alpha    73.6171
_cell_angle_beta     73.6931
_cell_angle_gamma    73.6417

_space_group_name_H-M_alt    "P 1"
_space_group_IT_number       1

loop_
  _space_group_symop_operation_xyz
  'x, y, z'

loop_
  _atom_site_type_symbol
  _atom_site_label
  _atom_site_symmetry_multiplicity
  _atom_site_fract_x
  _atom_site_fract_y
  _atom_site_fract_z
  _atom_site_occupancy
  Fe  Fe1       1.0  0.32683  0.14238  0.05677  1.0000
  S   S1        1.0  0.30159  0.15255  0.05564  1.0000
  S   S2        1.0  0.33746  0.11867  0.06952  1.0000
  Fe  Fe2       1.0  0.33687  0.17225  0.03835  1.0000
  S   S3        1.0  0.31266  0.18477  0.03578  1.0000
  S   S4        1.0  0.35673  0.18430  0.02752  1.0000
  Fe  Fe3       1.0  0.30561  0.17349  0.06088  1.0000
  S   S5        1.0  0.28893  0.18630  0.07885  1.0000
  Fe  Fe4       1.0  0.31127  0.16280  0.03051  1.0000
  S   S6        1.0  0.30171  0.16707  0.00900  1.0000
  S   S7        1.0  0.33008  0.16250  0.06380  1.0000
  S   S8        1.0  0.33622  0.15106  0.03133  1.0000
  H   H1        1.0  0.29775  0.05937  0.11740  1.0000
  Fe  Fe5       1.0  0.30540  0.07669  0.15081  1.0000
  H   H2        1.0  0.28015  0.12005  0.98974  1.0000
  S   S9        1.0  0.29431  0.08763  0.13022  1.0000
  H   H3        1.0  0.29765  0.04244  0.10215  1.0000
  C   C1        1.0  0.28653  0.20734  0.09599  1.0000
  C   C2        1.0  0.30246  0.99912  0.14969  1.0000
  S   S10       1.0  0.32731  0.05807  0.15172  1.0000
  Fe  Fe6       1.0  0.31359  0.04697  0.17445  1.0000
  H   H4        1.0  0.41533  0.20150  0.04078  1.0000
  H   H5        1.0  0.29755  0.16271  0.13924  1.0000
  H   H6        1.0  0.33293  0.04338  0.08912  1.0000
  H   H7        1.0  0.33044  0.17008  0.13304  1.0000
  C   C3        1.0  0.38978  0.22215  0.98253  1.0000
  H   H8        1.0  0.36161  0.99947  0.14008  1.0000
  H   H9        1.0  0.36537  0.20060  0.07448  1.0000
  H   H10       1.0  0.33157  0.05766  0.09961  1.0000
  H   H11       1.0  0.27429  0.20692  0.09983  1.0000
  C   C4        1.0  0.32538  0.10964  0.08603  1.0000
  C   C5        1.0  0.30914  0.11336  0.08780  1.0000
  C   C6        1.0  0.29971  0.10617  0.10124  1.0000
  C   C7        1.0  0.30646  0.09562  0.11314  1.0000
  C   C8        1.0  0.32270  0.09187  0.11139  1.0000
  C   C9        1.0  0.33215  0.09871  0.09775  1.0000
  H   H12       1.0  0.30387  0.12162  0.07873  1.0000
  H   H13       1.0  0.28715  0.10900  0.10253  1.0000
  H   H14       1.0  0.32797  0.08378  0.12056  1.0000
  H   H15       1.0  0.34473  0.09583  0.09640  1.0000
  C   C10       1.0  0.29640  0.19855  0.08532  1.0000
  C   C11       1.0  0.31220  0.19916  0.08046  1.0000
  C   C12       1.0  0.29539  0.14284  0.13178  1.0000
  H   H16       1.0  0.31993  0.19241  0.07233  1.0000
  C   C13       1.0  0.39205  0.19043  0.04299  1.0000
  C   C14       1.0  0.30807  0.15416  0.99625  1.0000
  C   C15       1.0  0.27547  0.13188  0.99105  1.0000
  S   S11       1.0  0.31612  0.22879  0.10378  1.0000
  H   H17       1.0  0.34120  0.12283  0.15773  1.0000
  C   C16       1.0  0.31349  0.13819  0.00143  1.0000
  H   H18       1.0  0.31418  0.12414  0.11298  1.0000
  C   C17       1.0  0.29411  0.15171  0.14268  1.0000
  H   H19       1.0  0.31464  0.13357  0.01334  1.0000
  C   C18       1.0  0.31654  0.13588  0.11054  1.0000
  H   H20       1.0  0.27970  0.15703  0.10892  1.0000
  C   C19       1.0  0.36348  0.21218  0.02425  1.0000
  C   C20       1.0  0.35247  0.20296  0.03106  1.0000
  C   C21       1.0  0.33824  0.20881  0.04041  1.0000
  H   H21       1.0  0.42939  0.21748  0.04589  1.0000
  C   C22       1.0  0.28823  0.14652  0.15855  1.0000
  H   H22       1.0  0.37433  0.20782  0.01673  1.0000
  H   H23       1.0  0.32967  0.20176  0.04569  1.0000
  H   H24       1.0  0.39700  0.22106  0.08918  1.0000
  C   C23       1.0  0.30646  0.16291  0.11044  1.0000
  C   C24       1.0  0.39581  0.22789  0.99169  1.0000
  H   H25       1.0  0.48674  0.18636  0.98752  1.0000
  H   H26       1.0  0.38234  0.20471  0.08490  1.0000
  H   H27       1.0  0.32404  0.22838  0.05016  1.0000
  C   C25       1.0  0.35295  0.00769  0.13406  1.0000
  H   H28       1.0  0.32680  0.18002  0.98563  1.0000
  H   H29       1.0  0.27269  0.15246  0.01757  1.0000
  H   H30       1.0  0.32027  0.11568  0.99566  1.0000
  C   C26       1.0  0.34039  0.03421  0.12405  1.0000
  C   C27       1.0  0.40088  0.21647  0.07876  1.0000
  H   H31       1.0  0.31347  0.02623  0.09886  1.0000
  C   C28       1.0  0.31660  0.12807  0.99140  1.0000
  C   C29       1.0  0.28328  0.13254  0.16401  1.0000
  H   H32       1.0  0.31410  0.05784  0.12494  1.0000
  H   H33       1.0  0.39172  0.20181  0.03449  1.0000
  H   H34       1.0  0.28561  0.02079  0.14588  1.0000
  H   H35       1.0  0.36875  0.21264  0.05533  1.0000
  C   C30       1.0  0.40289  0.19599  0.99295  1.0000
  C   C31       1.0  0.31480  0.13384  0.97600  1.0000
  H   H36       1.0  0.32547  0.13488  0.11706  1.0000
  H   H37       1.0  0.33996  0.04643  0.12232  1.0000
  H   H38       1.0  0.35765  0.04296  0.17288  1.0000
  H   H39       1.0  0.35959  0.02777  0.13554  1.0000
  C   C32       1.0  0.32479  0.05058  0.09724  1.0000
  C   C33       1.0  0.30690  0.03352  0.10744  1.0000
  H   H40       1.0  0.30214  0.04390  0.13357  1.0000
  C   C34       1.0  0.30746  0.05082  0.12233  1.0000
  H   H41       1.0  0.32380  0.00778  0.11826  1.0000
  H   H42       1.0  0.34381  0.98993  0.13093  1.0000
  N   N1        1.0  0.38746  0.19263  0.05919  1.0000
  C   C35       1.0  0.38946  0.17709  0.06976  1.0000
  C   C36       1.0  0.37060  0.20041  0.06209  1.0000
  H   H43       1.0  0.41713  0.19389  0.00884  1.0000
  C   C37       1.0  0.30821  0.21738  0.09673  1.0000
  C   C38       1.0  0.31808  0.20854  0.08613  1.0000
  N   N2        1.0  0.30216  0.14757  0.11499  1.0000
  C   C39       1.0  0.32966  0.02917  0.11906  1.0000
  C   C40       1.0  0.41414  0.22013  0.06791  1.0000
  C   C41       1.0  0.31943  0.99755  0.16647  1.0000
  H   H44       1.0  0.38539  0.17786  0.08215  1.0000
  H   H45       1.0  0.38272  0.16970  0.06775  1.0000
  H   H46       1.0  0.40199  0.17090  0.06801  1.0000
  C   C42       1.0  0.40572  0.21771  0.00117  1.0000
  H   H47       1.0  0.36343  0.19441  0.05873  1.0000
  C   C43       1.0  0.29079  0.14849  0.10579  1.0000
  H   H48       1.0  0.34283  0.14228  0.13335  1.0000
  C   C44       1.0  0.41915  0.21448  0.05440  1.0000
  H   H49       1.0  0.38408  0.18458  0.04059  1.0000
  C   C45       1.0  0.33506  0.22389  0.04291  1.0000
  H   H50       1.0  0.29393  0.03264  0.16248  1.0000
  H   H51       1.0  0.31591  0.05905  0.09106  1.0000
  H   H52       1.0  0.36610  0.17709  0.99215  1.0000
  C   C46       1.0  0.32115  0.16601  0.15765  1.0000
  C   C47       1.0  0.29509  0.01428  0.15158  1.0000
  H   H53       1.0  0.30072  0.02613  0.11784  1.0000
  N   N3        1.0  0.31739  0.04069  0.11164  1.0000
  C   C48       1.0  0.29020  0.12869  0.13778  1.0000
  H   H54       1.0  0.31554  0.16301  0.11626  1.0000
  C   C49       1.0  0.28413  0.12374  0.15362  1.0000
  H   H55       1.0  0.28161  0.12573  0.01332  1.0000
  H   H56       1.0  0.48244  0.98362  0.16113  1.0000
  C   C50       1.0  0.33634  0.14583  0.14407  1.0000
  C   C51       1.0  0.32000  0.15504  0.17174  1.0000
  C   C52       1.0  0.30917  0.20945  0.99400  1.0000
  H   H57       1.0  0.29088  0.12122  0.13030  1.0000
  H   H58       1.0  0.36541  0.15759  0.99368  1.0000
  H   H59       1.0  0.31140  0.16607  0.09773  1.0000
  S   S12       1.0  0.41442  0.22472  0.01177  1.0000
  C   C53       1.0  0.33140  0.01283  0.12155  1.0000
  C   C54       1.0  0.39244  0.20730  0.07606  1.0000
  C   C55       1.0  0.29239  0.21677  0.10166  1.0000
  H   H60       1.0  0.29545  0.15231  0.09310  1.0000
  C   C56       1.0  0.25160  0.22157  0.17014  1.0000
  H   H61       1.0  0.29604  0.17240  0.11297  1.0000
  H   H62       1.0  0.28467  0.22357  0.10980  1.0000
  C   C57       1.0  0.27641  0.13498  0.00475  1.0000
  S   S13       1.0  0.48152  0.22545  0.07549  1.0000
  C   C58       1.0  0.34293  0.00233  0.12890  1.0000
  C   C59       1.0  0.40934  0.20178  0.00168  1.0000
  C   C60       1.0  0.31745  0.21774  0.99817  1.0000
  H   H63       1.0  0.32002  0.21358  0.00960  1.0000
  C   C61       1.0  0.27139  0.15004  0.00717  1.0000
  C   C62       1.0  0.47294  0.98453  0.17127  1.0000
  C   C63       1.0  0.39688  0.20183  0.06212  1.0000
  C   C64       1.0  0.31456  0.99069  0.15729  1.0000
  C   C65       1.0  0.29985  0.02104  0.16089  1.0000
  C   C66       1.0  0.35175  0.02361  0.13156  1.0000
  H   H64       1.0  0.35127  0.14375  0.98828  1.0000
  C   C67       1.0  0.31203  0.01270  0.16834  1.0000
  S   S14       1.0  0.31223  0.09121  0.16253  1.0000
  C   C68       1.0  0.41080  0.20533  0.05156  1.0000
  H   H65       1.0  0.42043  0.22754  0.06989  1.0000
  H   H66       1.0  0.28786  0.13714  0.10738  1.0000
  H   H67       1.0  0.40398  0.18302  0.04039  1.0000
  Fe  Fe7       1.0  0.33267  0.07148  0.16576  1.0000
  S   S15       1.0  0.35644  0.07612  0.16190  1.0000
  H   H68       1.0  0.40564  0.18364  0.99345  1.0000
  H   H69       1.0  0.32188  0.13878  0.09789  1.0000
  H   H70       1.0  0.30519  0.19955  0.00227  1.0000
  C   C69       1.0  0.36034  0.22719  0.02674  1.0000
  H   H71       1.0  0.33030  0.20902  0.08219  1.0000
  C   C70       1.0  0.26428  0.15917  0.98221  1.0000
  H   H72       1.0  0.29251  0.21521  0.16669  1.0000
  C   C71       1.0  0.33742  0.17579  0.99058  1.0000
  C   C72       1.0  0.30620  0.21366  0.97917  1.0000
  H   H73       1.0  0.26197  0.17389  0.99769  1.0000
  C   C73       1.0  0.30658  0.15997  0.98077  1.0000
  H   H74       1.0  0.33704  0.18371  0.99794  1.0000
  C   C74       1.0  0.33531  0.13476  0.15811  1.0000
  C   C75       1.0  0.39329  0.20617  0.98320  1.0000
  S   S16       1.0  0.29691  0.99154  0.13699  1.0000
  H   H75       1.0  0.31584  0.17820  0.15751  1.0000
  C   C76       1.0  0.26540  0.16212  0.99590  1.0000
  H   H76       1.0  0.35242  0.19855  0.97621  1.0000
  H   H77       1.0  0.33647  0.16437  0.99855  1.0000
  C   C77       1.0  0.32937  0.16144  0.14386  1.0000
  H   H78       1.0  0.38440  0.07829  0.16876  1.0000
  S   S17       1.0  0.29111  0.06469  0.17260  1.0000
  H   H79       1.0  0.47203  0.00860  0.16930  1.0000
  H   H80       1.0  0.48790  0.19632  0.09693  1.0000
  C   C78       1.0  0.32248  0.23098  0.98776  1.0000
  C   C79       1.0  0.35824  0.03044  0.17418  1.0000
  C   C80       1.0  0.36556  0.16899  0.98538  1.0000
  H   H81       1.0  0.36694  0.02666  0.16403  1.0000
  H   H82       1.0  0.34595  0.21813  0.00263  1.0000
  H   H83       1.0  0.28744  0.15340  0.16668  1.0000
  H   H84       1.0  0.24515  0.21234  0.17219  1.0000
  H   H85       1.0  0.24996  0.22931  0.15871  1.0000
  H   H86       1.0  0.30247  0.17231  0.97664  1.0000
  C   C81       1.0  0.26920  0.14392  0.97938  1.0000
  H   H87       1.0  0.48916  0.20380  0.99022  1.0000
  C   C82       1.0  0.32720  0.13903  0.17241  1.0000
  H   H88       1.0  0.32910  0.99125  0.17196  1.0000
  C   C83       1.0  0.34699  0.22914  0.99390  1.0000
  H   H89       1.0  0.28025  0.11285  0.15786  1.0000
  H   H90       1.0  0.26425  0.21594  0.16893  1.0000
  H   H91       1.0  0.35373  0.22577  0.98281  1.0000
  H   H92       1.0  0.34657  0.02963  0.17339  1.0000
  H   H93       1.0  0.37667  0.16777  0.97641  1.0000
  N   N4        1.0  0.35179  0.17478  0.97813  1.0000
  C   C84       1.0  0.35152  0.14816  0.97604  1.0000
  H   H94       1.0  0.30003  0.20699  0.97593  1.0000
  Fe  Fe8       1.0  0.37605  0.14223  0.32499  1.0000
  S   S18       1.0  0.37765  0.12119  0.31665  1.0000
  S   S19       1.0  0.35485  0.16014  0.31912  1.0000
  Fe  Fe9       1.0  0.40459  0.12678  0.33920  1.0000
  S   S20       1.0  0.40809  0.10458  0.33171  1.0000
  C   C85       1.0  0.48494  0.02215  0.21294  1.0000
  Fe  Fe10      1.0  0.40315  0.12045  0.30945  1.0000
  S   S21       1.0  0.41686  0.11625  0.28623  1.0000
  Fe  Fe11      1.0  0.38210  0.10774  0.33981  1.0000
  C   C86       1.0  0.26739  0.11806  0.27338  1.0000
  S   S22       1.0  0.40163  0.14254  0.31608  1.0000
  S   S23       1.0  0.37866  0.12885  0.34896  1.0000
  H   H95       1.0  0.39915  0.04843  0.18650  1.0000
  H   H96       1.0  0.33896  0.02608  0.20263  1.0000
  C   C87       1.0  0.40610  0.00965  0.18912  1.0000
  Fe  Fe12      1.0  0.30866  0.12736  0.25277  1.0000
  S   S24       1.0  0.28711  0.14613  0.25067  1.0000
  S   S25       1.0  0.31112  0.10226  0.25289  1.0000
  Fe  Fe13      1.0  0.32724  0.14968  0.25379  1.0000
  S   S26       1.0  0.30734  0.17054  0.25132  1.0000
  S   S27       1.0  0.35149  0.14898  0.25554  1.0000
  Fe  Fe14      1.0  0.29288  0.15440  0.26866  1.0000
  S   S28       1.0  0.27643  0.15966  0.29080  1.0000
  Fe  Fe15      1.0  0.30342  0.16034  0.23349  1.0000
  S   S29       1.0  0.29732  0.17043  0.21003  1.0000
  S   S30       1.0  0.31313  0.13429  0.27228  1.0000
  S   S31       1.0  0.32468  0.14088  0.23451  1.0000
  Fe  Fe16      1.0  0.41297  0.05698  0.25156  1.0000
  S   S32       1.0  0.40761  0.08052  0.23615  1.0000
  S   S33       1.0  0.40932  0.05370  0.27723  1.0000
  Fe  Fe17      1.0  0.41946  0.04036  0.22578  1.0000
  S   S34       1.0  0.41485  0.06229  0.20775  1.0000
  C   C88       1.0  0.48907  0.11069  0.28525  1.0000
  Fe  Fe18      1.0  0.42844  0.07106  0.21906  1.0000
  S   S35       1.0  0.44406  0.08731  0.20503  1.0000
  Fe  Fe19      1.0  0.39442  0.07005  0.22617  1.0000
  S   S36       1.0  0.37004  0.08218  0.22321  1.0000
  S   S37       1.0  0.43513  0.04825  0.23543  1.0000
  S   S38       1.0  0.39777  0.04737  0.24333  1.0000
  S   S39       1.0  0.32072  0.05897  0.18868  1.0000
  H   H97       1.0  0.37493  0.00138  0.26861  1.0000
  C   C89       1.0  0.45836  0.10258  0.29075  1.0000
  S   S40       1.0  0.28404  0.09332  0.20054  1.0000
  H   H98       1.0  0.02734  0.15988  0.33368  1.0000
  C   C90       1.0  0.41768  0.99988  0.27074  1.0000
  C   C91       1.0  0.14959  0.01469  0.36065  1.0000
  H   H99       1.0  0.45685  0.99620  0.25574  1.0000
  H   H100      1.0  0.11262  0.21089  0.35858  1.0000
  H   H101      1.0  0.47763  0.98573  0.27595  1.0000
  H   H102      1.0  0.46669  0.12652  0.26828  1.0000
  S   S41       1.0  0.11417  0.08467  0.34827  1.0000
  H   H103      1.0  0.38130  0.02431  0.27235  1.0000
  C   C92       1.0  0.08770  0.13880  0.32856  1.0000
  S   S42       1.0  0.08013  0.06245  0.35993  1.0000
  S   S43       1.0  0.17615  0.12870  0.33435  1.0000
  H   H104      1.0  0.44643  0.13351  0.30766  1.0000
  C   C93       1.0  0.26301  0.21156  0.21902  1.0000
  S   S44       1.0  0.19230  0.15119  0.34480  1.0000
  H   H105      1.0  0.46093  0.08030  0.25290  1.0000
  C   C94       1.0  0.31680  0.13915  0.33006  1.0000
  Fe  Fe20      1.0  0.20003  0.13347  0.33000  1.0000
  S   S45       1.0  0.21366  0.13707  0.30531  1.0000
  S   S46       1.0  0.20830  0.11325  0.34845  1.0000
  N   N5        1.0  0.24614  0.23029  0.18270  1.0000
  C   C95       1.0  0.02747  0.20249  0.36945  1.0000
  H   H106      1.0  0.40089  0.14980  0.24476  1.0000
  H   H107      1.0  0.25885  0.13827  0.36617  1.0000
  C   C96       1.0  0.08584  0.12742  0.37410  1.0000
  C   C97       1.0  0.45788  0.12959  0.27866  1.0000
  H   H108      1.0  0.30978  0.15608  0.36011  1.0000
  C   C98       1.0  0.14286  0.01701  0.34776  1.0000
  Fe  Fe21      1.0  0.29966  0.07790  0.18453  1.0000
  C   C99       1.0  0.02623  0.20950  0.35413  1.0000
  H   H109      1.0  0.43495  0.12350  0.30290  1.0000
  H   H110      1.0  0.06163  0.18277  0.33456  1.0000
  C   C100      1.0  0.34543  0.08097  0.27167  1.0000
  C   C101      1.0  0.47721  0.11765  0.31011  1.0000
  C   C102      1.0  0.13320  0.00757  0.34784  1.0000
  C   C103      1.0  0.14149  0.17901  0.35219  1.0000
  C   C104      1.0  0.15328  0.18650  0.34256  1.0000
  C   C105      1.0  0.15049  0.20282  0.33897  1.0000
  C   C106      1.0  0.13582  0.21166  0.34472  1.0000
  C   C107      1.0  0.12396  0.20415  0.35408  1.0000
  H   H111      1.0  0.45655  0.11398  0.20103  1.0000
  H   H112      1.0  0.16450  0.17973  0.33785  1.0000
  H   H113      1.0  0.15959  0.20863  0.33153  1.0000
  Fe  Fe22      1.0  0.19878  0.13061  0.36365  1.0000
  Fe  Fe23      1.0  0.99824  0.18839  0.36055  1.0000
  C   C108      1.0  0.03537  0.10622  0.36227  1.0000
  H   H114      1.0  0.48287  0.00649  0.20060  1.0000
  H   H115      1.0  0.45906  0.14093  0.27978  1.0000
  H   H116      1.0  0.32744  0.10808  0.17760  1.0000
  H   H117      1.0  0.24133  0.11921  0.25940  1.0000
  H   H118      1.0  0.03819  0.10809  0.34976  1.0000
  H   H119      1.0  0.44945  0.08871  0.34359  1.0000
  C   C109      1.0  0.04711  0.22248  0.35115  1.0000
  C   C110      1.0  0.13157  0.08487  0.35277  1.0000
  Fe  Fe24      1.0  0.18379  0.10974  0.35391  1.0000
  H   H120      1.0  0.25944  0.12780  0.26717  1.0000
  N   N6        1.0  0.32152  0.13301  0.35699  1.0000
  C   C111      1.0  0.15354  0.09702  0.34731  1.0000
  C   C112      1.0  0.13953  0.09660  0.34416  1.0000
  H   H121      1.0  0.28457  0.09000  0.28070  1.0000
  C   C113      1.0  0.49128  0.99833  0.25588  1.0000
  H   H122      1.0  0.15966  0.10596  0.34037  1.0000
  H   H123      1.0  0.13497  0.10531  0.33487  1.0000
  S   S47       1.0  0.47566  0.10559  0.24799  1.0000
  H   H124      1.0  0.37286  0.04661  0.18712  1.0000
  H   H125      1.0  0.17984  0.01385  0.34618  1.0000
  C   C114      1.0  0.24338  0.20616  0.20366  1.0000
  H   H126      1.0  0.32752  0.14326  0.32535  1.0000
  H   H127      1.0  0.29245  0.12459  0.36356  1.0000
  C   C115      1.0  0.43619  0.01313  0.27445  1.0000
  S   S48       1.0  0.36848  0.08915  0.35175  1.0000
  H   H128      1.0  0.44662  0.11326  0.31676  1.0000
  C   C116      1.0  0.36640  0.08061  0.20609  1.0000
  C   C117      1.0  0.37832  0.07994  0.19273  1.0000
  H   H129      1.0  0.47590  0.00328  0.29291  1.0000
  H   H130      1.0  0.35068  0.11401  0.18056  1.0000
  C   C118      1.0  0.34809  0.07931  0.19206  1.0000
  C   C119      1.0  0.35125  0.08047  0.20568  1.0000
  H   H131      1.0  0.38996  0.08043  0.19284  1.0000
  C   C120      1.0  0.07623  0.15232  0.33048  1.0000
  C   C121      1.0  0.24708  0.19558  0.21707  1.0000
  H   H132      1.0  0.34197  0.08115  0.21596  1.0000
  C   C122      1.0  0.45210  0.09285  0.21727  1.0000
  C   C123      1.0  0.45736  0.10672  0.21241  1.0000
  H   H133      1.0  0.48950  0.03875  0.22256  1.0000
  C   C124      1.0  0.46551  0.10139  0.23667  1.0000
  C   C125      1.0  0.45993  0.08772  0.24163  1.0000
  C   C126      1.0  0.45315  0.08351  0.23198  1.0000
  H   H134      1.0  0.23337  0.13638  0.36270  1.0000
  H   H135      1.0  0.12229  0.98852  0.36066  1.0000
  C   C127      1.0  0.48930  0.01477  0.20060  1.0000
  H   H136      1.0  0.44920  0.07277  0.23573  1.0000
  C   C128      1.0  0.25851  0.15424  0.29487  1.0000
  C   C129      1.0  0.25226  0.15379  0.28284  1.0000
  C   C130      1.0  0.23827  0.14882  0.28620  1.0000
  C   C131      1.0  0.23046  0.14433  0.30161  1.0000
  C   C132      1.0  0.23646  0.14513  0.31370  1.0000
  C   C133      1.0  0.25048  0.15014  0.31031  1.0000
  H   H137      1.0  0.25810  0.15744  0.27093  1.0000
  H   H138      1.0  0.23348  0.14847  0.27684  1.0000
  H   H139      1.0  0.23041  0.14175  0.32562  1.0000
  H   H140      1.0  0.25523  0.15063  0.31965  1.0000
  C   C134      1.0  0.30390  0.09989  0.23806  1.0000
  C   C135      1.0  0.30924  0.08594  0.23294  1.0000
  C   C136      1.0  0.30355  0.08393  0.22110  1.0000
  C   C137      1.0  0.29214  0.09572  0.21469  1.0000
  C   C138      1.0  0.28674  0.10962  0.21989  1.0000
  C   C139      1.0  0.29272  0.11176  0.23141  1.0000
  H   H141      1.0  0.31787  0.07669  0.23806  1.0000
  H   H142      1.0  0.30769  0.07313  0.21724  1.0000
  H   H143      1.0  0.27785  0.11873  0.21503  1.0000
  H   H144      1.0  0.28846  0.12253  0.23526  1.0000
  C   C140      1.0  0.45194  0.12192  0.35289  1.0000
  C   C141      1.0  0.30177  0.21518  0.19992  1.0000
  C   C142      1.0  0.30187  0.19958  0.20758  1.0000
  C   C143      1.0  0.29818  0.18979  0.20061  1.0000
  C   C144      1.0  0.38666  0.00089  0.26952  1.0000
  C   C145      1.0  0.24719  0.10454  0.24351  1.0000
  H   H145      1.0  0.30454  0.19523  0.21897  1.0000
  C   C146      1.0  0.35464  0.09487  0.28491  1.0000
  C   C147      1.0  0.41503  0.09858  0.28419  1.0000
  C   C148      1.0  0.42394  0.09281  0.27117  1.0000
  C   C149      1.0  0.42216  0.07897  0.26908  1.0000
  C   C150      1.0  0.41175  0.07071  0.28019  1.0000
  C   C151      1.0  0.40307  0.07627  0.29341  1.0000
  C   C152      1.0  0.40465  0.09027  0.29537  1.0000
  H   H146      1.0  0.43219  0.09908  0.26270  1.0000
  H   H147      1.0  0.42899  0.07457  0.25895  1.0000
  H   H148      1.0  0.39491  0.06993  0.30198  1.0000
  H   H149      1.0  0.39778  0.09461  0.30551  1.0000
  C   C153      1.0  0.35373  0.15892  0.30071  1.0000
  C   C154      1.0  0.33925  0.16229  0.29664  1.0000
  C   C155      1.0  0.33841  0.15936  0.28272  1.0000
  C   C156      1.0  0.35210  0.15353  0.27266  1.0000
  C   C157      1.0  0.36657  0.15088  0.27643  1.0000
  C   C158      1.0  0.36738  0.15347  0.29043  1.0000
  H   H150      1.0  0.32867  0.16682  0.30438  1.0000
  H   H151      1.0  0.32718  0.16165  0.27978  1.0000
  H   H152      1.0  0.37721  0.14663  0.26866  1.0000
  H   H153      1.0  0.37864  0.15118  0.29329  1.0000
  C   C159      1.0  0.43902  0.13083  0.34668  1.0000
  C   C160      1.0  0.44031  0.14480  0.33581  1.0000
  C   C161      1.0  0.45432  0.15008  0.33169  1.0000
  C   C162      1.0  0.46715  0.14127  0.33819  1.0000
  C   C163      1.0  0.46599  0.12697  0.34846  1.0000
  H   H154      1.0  0.46835  0.12160  0.21827  1.0000
  H   H155      1.0  0.43031  0.15187  0.33113  1.0000
  H   H156      1.0  0.45510  0.16113  0.32369  1.0000
  C   C164      1.0  0.48328  0.99542  0.27141  1.0000
  H   H157      1.0  0.46744  0.12125  0.31907  1.0000
  C   C165      1.0  0.19428  0.18703  0.34596  1.0000
  H   H158      1.0  0.06461  0.11490  0.33038  1.0000
  C   C166      1.0  0.38186  0.03607  0.18769  1.0000
  H   H159      1.0  0.23006  0.17790  0.32242  1.0000
  C   C167      1.0  0.40553  0.01336  0.27222  1.0000
  H   H160      1.0  0.05452  0.23038  0.34408  1.0000
  H   H161      1.0  0.06234  0.01700  0.37143  1.0000
  C   C168      1.0  0.26929  0.08539  0.26038  1.0000
  H   H162      1.0  0.09248  0.11493  0.32690  1.0000
  H   H163      1.0  0.47830  0.08409  0.33454  1.0000
  Fe  Fe25      1.0  0.09027  0.03668  0.36595  1.0000
  H   H164      1.0  0.38533  0.10925  0.19628  1.0000
  H   H165      1.0  0.44624  0.13134  0.27600  1.0000
  H   H166      1.0  0.28670  0.13611  0.31699  1.0000
  C   C169      1.0  0.32183  0.14912  0.35669  1.0000
  H   H167      1.0  0.44101  0.00713  0.24648  1.0000
  H   H168      1.0  0.34403  0.13048  0.34071  1.0000
  C   C170      1.0  0.44439  0.99708  0.25591  1.0000
  H   H169      1.0  0.34370  0.11267  0.20091  1.0000
  C   C171      1.0  0.24599  0.10666  0.28989  1.0000
  H   H170      1.0  0.23578  0.20353  0.19809  1.0000
  H   H171      1.0  0.27843  0.07774  0.26598  1.0000
  H   H172      1.0  0.03663  0.15526  0.35683  1.0000
  C   C172      1.0  0.29821  0.22096  0.18519  1.0000
  H   H173      1.0  0.08177  0.10735  0.35857  1.0000
  H   H174      1.0  0.20838  0.07312  0.37101  1.0000
  H   H175      1.0  0.33311  0.08702  0.27568  1.0000
  C   C173      1.0  0.37264  0.08214  0.26496  1.0000
  H   H176      1.0  0.23747  0.11670  0.28478  1.0000
  H   H177      1.0  0.37552  0.07067  0.27291  1.0000
  S   S49       1.0  0.42115  0.12487  0.35415  1.0000
  C   C174      1.0  0.23534  0.13441  0.37422  1.0000
  H   H178      1.0  0.02594  0.18004  0.32805  1.0000
  H   H179      1.0  0.20281  0.19155  0.32112  1.0000
  S   S50       1.0  0.09335  0.01885  0.35203  1.0000
  H   H180      1.0  0.37645  0.10098  0.37375  1.0000
  H   H181      1.0  0.14442  0.02634  0.33768  1.0000
  C   C175      1.0  0.40810  0.99430  0.22982  1.0000
  C   C176      1.0  0.25663  0.09110  0.23894  1.0000
  H   H182      1.0  0.31488  0.11323  0.37432  1.0000
  S   S51       1.0  0.48425  0.14856  0.33376  1.0000
  N   N7        1.0  0.32708  0.12723  0.18719  1.0000
  N   N8        1.0  0.35642  0.09086  0.26991  1.0000
  Fe  Fe26      1.0  0.16913  0.14459  0.35082  1.0000
  S   S52       1.0  0.01227  0.20631  0.34617  1.0000
  C   C177      1.0  0.39396  0.98948  0.23360  1.0000
  H   H183      1.0  0.40749  0.02384  0.27370  1.0000
  Fe  Fe27      1.0  0.10240  0.06544  0.36333  1.0000
  H   H184      1.0  0.34783  0.06973  0.28009  1.0000
  H   H185      1.0  0.05168  0.08418  0.36534  1.0000
  C   C178      1.0  0.29736  0.12875  0.35143  1.0000
  H   H186      1.0  0.37461  0.07963  0.25334  1.0000
  H   H187      1.0  0.43329  0.02367  0.26530  1.0000
  H   H188      1.0  0.08021  0.16216  0.33089  1.0000
  C   C179      1.0  0.25696  0.19823  0.22468  1.0000
  C   C180      1.0  0.34334  0.12077  0.18938  1.0000
  C   C181      1.0  0.47525  0.11547  0.29615  1.0000
  C   C182      1.0  0.31561  0.12537  0.37334  1.0000
  H   H189      1.0  0.27744  0.12603  0.34507  1.0000
  H   H190      1.0  0.47530  0.01950  0.22252  1.0000
  H   H191      1.0  0.30918  0.98598  0.19755  1.0000
  H   H192      1.0  0.48852  0.10881  0.27435  1.0000
  H   H193      1.0  0.26896  0.12208  0.28308  1.0000
  H   H194      1.0  0.35948  0.07731  0.32209  1.0000
  S   S53       1.0  0.01572  0.13461  0.35782  1.0000
  C   C183      1.0  0.41354  0.98691  0.26873  1.0000
  C   C184      1.0  0.02406  0.11734  0.36954  1.0000
  H   H195      1.0  0.45070  0.01072  0.19277  1.0000
  N   N9        1.0  0.36244  0.02082  0.18894  1.0000
  H   H196      1.0  0.22442  0.08273  0.36389  1.0000
  H   H197      1.0  0.03853  0.16795  0.31506  1.0000
  H   H198      1.0  0.45088  0.98522  0.28489  1.0000
  H   H199      1.0  0.99376  0.23129  0.36946  1.0000
  C   C185      1.0  0.31777  0.13348  0.20103  1.0000
  C   C186      1.0  0.39029  0.01379  0.27156  1.0000
  C   C187      1.0  0.03620  0.21935  0.34494  1.0000
  C   C188      1.0  0.13718  0.99240  0.37298  1.0000
  H   H200      1.0  0.27893  0.11617  0.26516  1.0000
  N   N10       1.0  0.26138  0.10365  0.27897  1.0000
  H   H201      1.0  0.34505  0.12297  0.36042  1.0000
  C   C189      1.0  0.39822  0.98743  0.26826  1.0000
  S   S54       1.0  0.17511  0.12526  0.37056  1.0000
  H   H202      1.0  0.35056  0.03935  0.20119  1.0000
  H   H203      1.0  0.41348  0.10625  0.19488  1.0000
  H   H204      1.0  0.33637  0.07928  0.19188  1.0000
  N   N11       1.0  0.40274  0.12874  0.23774  1.0000
  C   C190      1.0  0.39523  0.12094  0.25341  1.0000
  C   C191      1.0  0.41989  0.12462  0.23683  1.0000
  C   C192      1.0  0.39826  0.12406  0.22574  1.0000
  C   C193      1.0  0.40940  0.11717  0.21394  1.0000
  C   C194      1.0  0.38225  0.12624  0.22570  1.0000
  C   C195      1.0  0.40471  0.11198  0.20342  1.0000
  C   C196      1.0  0.37767  0.12094  0.21520  1.0000
  C   C197      1.0  0.38889  0.11369  0.20417  1.0000
  H   H205      1.0  0.39852  0.10809  0.25488  1.0000
  H   H206      1.0  0.38227  0.12458  0.25582  1.0000
  H   H207      1.0  0.39878  0.12378  0.26273  1.0000
  H   H208      1.0  0.42635  0.13087  0.22577  1.0000
  H   H209      1.0  0.42285  0.12767  0.24640  1.0000
  H   H210      1.0  0.42467  0.11189  0.23783  1.0000
  H   H211      1.0  0.42185  0.11528  0.21276  1.0000
  H   H212      1.0  0.37313  0.13197  0.23390  1.0000
  H   H213      1.0  0.33800  0.11260  0.35093  1.0000
  H   H214      1.0  0.36536  0.12224  0.21577  1.0000
  C   C198      1.0  0.29497  0.21100  0.17809  1.0000
  N   N12       1.0  0.44557  0.05659  0.31359  1.0000
  C   C199      1.0  0.44875  0.06139  0.29639  1.0000
  C   C200      1.0  0.45074  0.03945  0.31811  1.0000
  C   C201      1.0  0.42836  0.06063  0.31940  1.0000
  C   C202      1.0  0.45427  0.06406  0.31971  1.0000
  C   C203      1.0  0.44679  0.07400  0.33030  1.0000
  C   C204      1.0  0.47081  0.06154  0.31501  1.0000
  C   C205      1.0  0.45541  0.08115  0.33552  1.0000
  C   C206      1.0  0.36005  0.07839  0.17877  1.0000
  C   C207      1.0  0.32043  0.11439  0.18683  1.0000
  H   H215      1.0  0.46128  0.05760  0.29089  1.0000
  H   H216      1.0  0.44212  0.05625  0.29139  1.0000
  H   H217      1.0  0.44536  0.07424  0.29245  1.0000
  H   H218      1.0  0.46333  0.03527  0.31310  1.0000
  H   H219      1.0  0.44425  0.03340  0.31394  1.0000
  H   H220      1.0  0.44899  0.03538  0.33094  1.0000
  H   H221      1.0  0.42364  0.07338  0.31617  1.0000
  H   H222      1.0  0.42215  0.05506  0.31437  1.0000
  H   H223      1.0  0.42497  0.05668  0.33224  1.0000
  H   H224      1.0  0.43431  0.07643  0.33481  1.0000
  H   H225      1.0  0.26874  0.08051  0.29214  1.0000
  H   H226      1.0  0.45102  0.11111  0.36131  1.0000
  C   C208      1.0  0.40807  0.01015  0.22596  1.0000
  C   C209      1.0  0.10594  0.14859  0.36445  1.0000
  N   N13       1.0  0.43401  0.99905  0.27114  1.0000
  H   H227      1.0  0.04434  0.13800  0.33399  1.0000
  N   N14       1.0  0.45970  0.11746  0.29298  1.0000
  H   H228      1.0  0.16465  0.04754  0.35076  1.0000
  H   H229      1.0  0.38958  0.99681  0.19070  1.0000
  C   C210      1.0  0.34835  0.11376  0.30128  1.0000
  C   C211      1.0  0.24868  0.10847  0.25655  1.0000
  H   H230      1.0  0.10083  0.98851  0.34576  1.0000
  S   S55       1.0  0.14477  0.15862  0.35769  1.0000
  H   H231      1.0  0.34484  0.12573  0.30250  1.0000
  H   H232      1.0  0.12757  0.00996  0.33822  1.0000
  H   H233      1.0  0.30526  0.13826  0.20041  1.0000
  C   C212      1.0  0.12682  0.18786  0.35787  1.0000
  C   C213      1.0  0.22501  0.17148  0.34738  1.0000
  C   C214      1.0  0.29371  0.13523  0.32509  1.0000
  C   C215      1.0  0.15977  0.08568  0.35903  1.0000
  H   H234      1.0  0.14555  0.04615  0.35056  1.0000
  H   H235      1.0  0.16860  0.20079  0.36585  1.0000
  H   H236      1.0  0.22811  0.06215  0.37126  1.0000
  H   H237      1.0  0.32004  0.10548  0.19792  1.0000
  C   C216      1.0  0.11039  0.13505  0.35885  1.0000
  H   H238      1.0  0.05993  0.18230  0.31553  1.0000
  C   C217      1.0  0.08355  0.12542  0.32832  1.0000
  H   H239      1.0  0.31793  0.12433  0.21194  1.0000
  H   H240      1.0  0.44674  0.10334  0.28875  1.0000
  C   C218      1.0  0.26763  0.08155  0.24736  1.0000
  H   H241      1.0  0.44390  0.98647  0.25272  1.0000
  H   H242      1.0  0.34615  0.07815  0.26042  1.0000
  C   C219      1.0  0.27239  0.09182  0.28786  1.0000
  C   C220      1.0  0.35799  0.08300  0.29802  1.0000
  H   H243      1.0  0.41891  0.98576  0.23046  1.0000
  C   C221      1.0  0.47928  0.06879  0.32024  1.0000
  H   H244      1.0  0.23696  0.16533  0.34788  1.0000
  H   H245      1.0  0.47579  0.11985  0.35326  1.0000
  C   C222      1.0  0.15799  0.03971  0.34942  1.0000
  H   H246      1.0  0.42878  0.01531  0.28583  1.0000
  C   C223      1.0  0.39692  0.03726  0.18719  1.0000
  C   C224      1.0  0.06016  0.15292  0.33187  1.0000
  C   C225      1.0  0.31191  0.13342  0.34626  1.0000
  C   C226      1.0  0.20583  0.18632  0.33232  1.0000
  H   H247      1.0  0.06076  0.13095  0.36290  1.0000
  H   H248      1.0  0.36184  0.07093  0.29733  1.0000
  C   C227      1.0  0.39738  0.14579  0.23614  1.0000
  C   C228      1.0  0.10054  0.12458  0.36352  1.0000
  C   C229      1.0  0.13760  0.07361  0.36472  1.0000
  H   H249      1.0  0.38442  0.14964  0.23808  1.0000
  H   H250      1.0  0.40236  0.15209  0.22433  1.0000
  C   C230      1.0  0.37980  0.00052  0.23377  1.0000
  C   C231      1.0  0.08263  0.00413  0.35819  1.0000
  S   S56       1.0  0.17725  0.08633  0.36321  1.0000
  H   H251      1.0  0.36111  0.11260  0.25508  1.0000
  C   C232      1.0  0.35662  0.08649  0.31226  1.0000
  C   C233      1.0  0.05374  0.18156  0.32791  1.0000
  H   H252      1.0  0.43987  0.98835  0.20783  1.0000
  H   H253      1.0  0.24696  0.10968  0.30044  1.0000
  H   H254      1.0  0.24246  0.18515  0.22151  1.0000
  C   C234      1.0  0.08933  0.99006  0.35332  1.0000
  H   H255      1.0  0.09172  0.09625  0.37389  1.0000
  C   C235      1.0  0.21354  0.17209  0.36110  1.0000
  C   C236      1.0  0.06787  0.12544  0.33024  1.0000
  H   H256      1.0  0.34851  0.00466  0.19051  1.0000
  C   C237      1.0  0.34972  0.11041  0.28699  1.0000
  C   C238      1.0  0.39394  0.02113  0.22580  1.0000
  H   H257      1.0  0.34089  0.11119  0.25966  1.0000
  N   N15       1.0  0.04785  0.16698  0.33450  1.0000
  H   H258      1.0  0.35496  0.10122  0.24599  1.0000
  C   C239      1.0  0.48974  0.01789  0.27507  1.0000
  C   C240      1.0  0.44642  0.12211  0.30567  1.0000
  C   C241      1.0  0.35323  0.10462  0.25716  1.0000
  C   C242      1.0  0.35106  0.02693  0.20205  1.0000
  H   H259      1.0  0.34022  0.08077  0.37172  1.0000
  H   H260      1.0  0.35083  0.10444  0.32491  1.0000
  H   H261      1.0  0.12156  0.13271  0.35077  1.0000
  H   H262      1.0  0.11353  0.15676  0.36062  1.0000
  H   H263      1.0  0.03287  0.17599  0.35398  1.0000
  C   C243      1.0  0.03446  0.16871  0.32746  1.0000
  H   H264      1.0  0.48096  0.16590  0.35983  1.0000
  H   H265      1.0  0.38132  0.08880  0.26438  1.0000
  C   C244      1.0  0.37980  0.01634  0.22996  1.0000
  H   H266      1.0  0.46694  0.09898  0.28051  1.0000
  S   S57       1.0  0.42562  0.01628  0.22154  1.0000
  H   H267      1.0  0.39388  0.03337  0.22209  1.0000
  H   H268      1.0  0.04407  0.19212  0.32840  1.0000
  H   H269      1.0  0.34693  0.12025  0.27775  1.0000
  C   C245      1.0  0.05631  0.13890  0.33211  1.0000
  H   H270      1.0  0.18250  0.19278  0.34472  1.0000
  C   C246      1.0  0.04807  0.21577  0.36660  1.0000
  C   C247      1.0  0.05945  0.99415  0.37241  1.0000
  H   H271      1.0  0.09991  0.13865  0.32731  1.0000
  C   C248      1.0  0.37843  0.02158  0.18892  1.0000
  H   H272      1.0  0.11765  0.18214  0.36530  1.0000
  C   C249      1.0  0.33779  0.12441  0.35200  1.0000
  H   H273      1.0  0.36891  0.02492  0.22999  1.0000
  C   C250      1.0  0.25952  0.22214  0.20554  1.0000
  C   C251      1.0  0.29480  0.19552  0.18583  1.0000
  C   C252      1.0  0.04199  0.16556  0.35141  1.0000
  H   H274      1.0  0.32717  0.15528  0.34495  1.0000
  N   N16       1.0  0.15954  0.02473  0.36110  1.0000
  H   H275      1.0  0.05150  0.16441  0.35727  1.0000
  C   C253      1.0  0.35174  0.10182  0.31389  1.0000
  H   H276      1.0  0.18350  0.20499  0.37234  1.0000
  C   C254      1.0  0.28851  0.12959  0.34091  1.0000
  H   H277      1.0  0.27299  0.09551  0.29817  1.0000
  H   H278      1.0  0.13141  0.06460  0.37155  1.0000
  H   H279      1.0  0.18406  0.02288  0.35915  1.0000
  C   C255      1.0  0.30781  0.14002  0.31967  1.0000
  H   H280      1.0  0.24060  0.09638  0.29370  1.0000
  C   C256      1.0  0.22117  0.17856  0.33303  1.0000
  C   C257      1.0  0.47162  0.07857  0.33047  1.0000
  C   C258      1.0  0.25971  0.09895  0.26548  1.0000
  C   C259      1.0  0.17609  0.01627  0.35802  1.0000
  C   C260      1.0  0.46391  0.11108  0.22219  1.0000
  H   H281      1.0  0.46024  0.09312  0.30102  1.0000
  H   H282      1.0  0.31164  0.14469  0.30736  1.0000
  H   H283      1.0  0.25578  0.08828  0.22856  1.0000
  H   H284      1.0  0.31361  0.15947  0.18196  1.0000
  H   H285      1.0  0.22242  0.22746  0.18707  1.0000
  C   C261      1.0  0.43916  0.98553  0.28333  1.0000
  S   S58       1.0  0.36210  0.99464  0.23862  1.0000
  C   C262      1.0  0.36067  0.00484  0.19050  1.0000
  C   C263      1.0  0.19777  0.18001  0.36081  1.0000
  H   H286      1.0  0.27529  0.07138  0.24341  1.0000
  H   H287      1.0  0.36327  0.99707  0.20160  1.0000
  H   H288      1.0  0.32250  0.14278  0.20246  1.0000
  H   H289      1.0  0.23885  0.11208  0.23673  1.0000
  H   H290      1.0  0.35411  0.02025  0.21332  1.0000
  H   H291      1.0  0.47735  0.05396  0.30716  1.0000
  C   C264      1.0  0.48568  0.16621  0.36924  1.0000
  H   H292      1.0  0.26012  0.18986  0.23488  1.0000
  H   H293      1.0  0.42060  0.02499  0.18787  1.0000
  S   S59       1.0  0.11336  0.04015  0.36681  1.0000
  H   H294      1.0  0.43078  0.98583  0.29472  1.0000
  H   H295      1.0  0.17797  0.00481  0.36625  1.0000
  H   H296      1.0  0.44855  0.01210  0.27478  1.0000
  H   H297      1.0  0.16268  0.03803  0.33735  1.0000
  C   C265      1.0  0.24964  0.21969  0.19735  1.0000
  C   C266      1.0  0.40902  0.02407  0.18788  1.0000
  Fe  Fe28      1.0  0.99868  0.15417  0.36790  1.0000
  H   H298      1.0  0.27087  0.21347  0.22487  1.0000
  C   C267      1.0  0.13017  0.99545  0.36050  1.0000
  H   H299      1.0  0.30435  0.22282  0.20546  1.0000
  C   C268      1.0  0.08037  0.10350  0.37136  1.0000
  H   H300      1.0  0.29196  0.18798  0.18039  1.0000
  H   H301      1.0  0.16952  0.17398  0.36562  1.0000
  S   S60       1.0  0.48788  0.03098  0.28654  1.0000
  H   H302      1.0  0.47502  0.14118  0.36727  1.0000
  H   H303      1.0  0.10468  0.11444  0.35855  1.0000
  C   C269      1.0  0.45520  0.99978  0.18908  1.0000
  H   H304      1.0  0.32885  0.14937  0.36471  1.0000
  H   H305      1.0  0.03536  0.22477  0.33305  1.0000
  H   H306      1.0  0.34912  0.13019  0.18869  1.0000
  C   C270      1.0  0.48236  0.00531  0.28099  1.0000
  H   H307      1.0  0.36837  0.99969  0.18065  1.0000
  H   H308      1.0  0.21733  0.16609  0.37176  1.0000
  C   C271      1.0  0.39105  0.00833  0.18964  1.0000
  C   C272      1.0  0.37513  0.07891  0.17905  1.0000
  C   C273      1.0  0.04308  0.09267  0.37109  1.0000
  H   H309      1.0  0.45861  0.15737  0.36968  1.0000
  C   C274      1.0  0.15176  0.07395  0.36776  1.0000
  C   C275      1.0  0.35917  0.09083  0.37088  1.0000
  H   H310      1.0  0.41551  0.99941  0.18994  1.0000
  C   C276      1.0  0.44907  0.98683  0.19768  1.0000
  S   S61       1.0  0.31777  0.02075  0.18053  1.0000
  C   C277      1.0  0.14692  0.00170  0.37300  1.0000
  C   C278      1.0  0.06767  0.00614  0.36779  1.0000
  H   H311      1.0  0.30827  0.11872  0.18498  1.0000
  C   C279      1.0  0.21980  0.07329  0.37304  1.0000
  H   H312      1.0  0.29232  0.98221  0.18723  1.0000
  N   N17       1.0  0.18522  0.18055  0.37507  1.0000
  C   C280      1.0  0.17583  0.19670  0.37475  1.0000
  H   H313      1.0  0.27874  0.12847  0.17631  1.0000
  C   C281      1.0  0.46713  0.99862  0.17589  1.0000
  S   S62       1.0  0.49142  0.98730  0.24309  1.0000
  S   S63       1.0  0.06035  0.22085  0.37516  1.0000
  H   H314      1.0  0.49188  0.06678  0.31632  1.0000
  C   C282      1.0  0.09175  0.15161  0.37496  1.0000
  Fe  Fe29      1.0  0.27890  0.11017  0.45014  1.0000
  S   S64       1.0  0.29514  0.08714  0.44827  1.0000
  S   S65       1.0  0.26894  0.11656  0.47365  1.0000
  Fe  Fe30      1.0  0.27730  0.11829  0.41554  1.0000
  S   S66       1.0  0.29340  0.09578  0.41140  1.0000
  S   S67       1.0  0.27041  0.13385  0.39357  1.0000
  Fe  Fe31      1.0  0.27951  0.08528  0.43422  1.0000
  S   S68       1.0  0.27053  0.06384  0.43820  1.0000
  Fe  Fe32      1.0  0.30730  0.10013  0.42563  1.0000
  S   S69       1.0  0.33323  0.09878  0.41919  1.0000
  S   S70       1.0  0.26231  0.10749  0.43753  1.0000
  S   S71       1.0  0.29214  0.12353  0.42837  1.0000
  Fe  Fe33      1.0  0.30457  0.10245  0.54564  1.0000
  S   S72       1.0  0.31736  0.08232  0.56109  1.0000
  S   S73       1.0  0.31372  0.10497  0.51972  1.0000
  H   H315      1.0  0.14889  0.10881  0.37693  1.0000
  S   S74       1.0  0.28118  0.09672  0.55665  1.0000
  Fe  Fe34      1.0  0.16751  0.05429  0.47867  1.0000
  S   S75       1.0  0.19131  0.04542  0.46517  1.0000
  S   S76       1.0  0.16304  0.05509  0.50366  1.0000
  Fe  Fe35      1.0  0.15242  0.06164  0.45122  1.0000
  S   S77       1.0  0.17515  0.05411  0.43519  1.0000
  S   S78       1.0  0.12967  0.07029  0.44353  1.0000
  Fe  Fe36      1.0  0.17906  0.03386  0.45529  1.0000
  S   S79       1.0  0.18773  0.00840  0.45549  1.0000
  Fe  Fe37      1.0  0.18503  0.06638  0.44669  1.0000
  S   S80       1.0  0.19997  0.08327  0.43279  1.0000
  S   S81       1.0  0.15563  0.04074  0.47057  1.0000
  S   S82       1.0  0.16187  0.07603  0.46084  1.0000
  S   S83       1.0  0.22053  0.05706  0.52785  1.0000
  C   C283      1.0  0.18484  0.01469  0.52052  1.0000
  S   S84       1.0  0.11890  0.02586  0.40822  1.0000
  H   H316      1.0  0.27447  0.06885  0.54874  1.0000
  H   H317      1.0  0.47905  0.13124  0.40848  1.0000
  H   H318      1.0  0.17187  0.00515  0.49409  1.0000
  H   H319      1.0  0.05883  0.99336  0.42369  1.0000
  H   H320      1.0  0.09130  0.00006  0.38943  1.0000
  C   C284      1.0  0.12701  0.05829  0.43311  1.0000
  C   C285      1.0  0.13931  0.04649  0.42810  1.0000
  C   C286      1.0  0.13696  0.03692  0.41989  1.0000
  C   C287      1.0  0.12219  0.03887  0.41703  1.0000
  C   C288      1.0  0.10992  0.05073  0.42195  1.0000
  C   C289      1.0  0.11238  0.06053  0.42984  1.0000
  H   H321      1.0  0.15061  0.04460  0.43061  1.0000
  H   H322      1.0  0.14654  0.02792  0.41587  1.0000
  H   H323      1.0  0.09838  0.05203  0.42014  1.0000
  H   H324      1.0  0.10279  0.06956  0.43382  1.0000
  C   C290      1.0  0.17905  0.05672  0.50968  1.0000
  C   C291      1.0  0.19379  0.05662  0.49965  1.0000
  C   C292      1.0  0.20655  0.05708  0.50505  1.0000
  C   C293      1.0  0.20452  0.05788  0.52045  1.0000
  C   C294      1.0  0.18969  0.05852  0.53031  1.0000
  C   C295      1.0  0.17704  0.05779  0.52499  1.0000
  H   H325      1.0  0.19541  0.05632  0.48773  1.0000
  H   H326      1.0  0.21798  0.05655  0.49738  1.0000
  H   H327      1.0  0.18794  0.05942  0.54216  1.0000
  H   H328      1.0  0.16569  0.05795  0.53282  1.0000
  C   C296      1.0  0.25809  0.06444  0.39929  1.0000
  C   C297      1.0  0.25129  0.06872  0.43566  1.0000
  C   C298      1.0  0.24529  0.08342  0.42725  1.0000
  C   C299      1.0  0.22958  0.08763  0.42621  1.0000
  C   C300      1.0  0.21979  0.07722  0.43359  1.0000
  C   C301      1.0  0.22590  0.06233  0.44154  1.0000
  C   C302      1.0  0.24165  0.05808  0.44257  1.0000
  H   H329      1.0  0.25281  0.09145  0.42125  1.0000
  H   H330      1.0  0.22502  0.09895  0.41967  1.0000
  H   H331      1.0  0.21857  0.05408  0.44693  1.0000
  H   H332      1.0  0.24627  0.04665  0.44897  1.0000
  C   C303      1.0  0.22338  0.13132  0.38722  1.0000
  C   C304      1.0  0.22594  0.12894  0.40209  1.0000
  C   C305      1.0  0.24049  0.12926  0.40408  1.0000
  C   C306      1.0  0.25239  0.13264  0.39115  1.0000
  S   S85       1.0  0.18181  0.99148  0.39596  1.0000
  H   H333      1.0  0.16194  0.03709  0.37688  1.0000
  H   H334      1.0  0.21664  0.12675  0.41217  1.0000
  H   H335      1.0  0.24234  0.12734  0.41562  1.0000
  H   H336      1.0  0.16731  0.19776  0.38594  1.0000
  C   C307      1.0  0.34309  0.09542  0.40069  1.0000
  C   C308      1.0  0.33693  0.08850  0.39271  1.0000
  Fe  Fe38      1.0  0.10303  0.03916  0.39197  1.0000
  H   H337      1.0  0.13259  0.13461  0.39756  1.0000
  H   H338      1.0  0.14989  0.08091  0.41555  1.0000
  C   C309      1.0  0.35741  0.09980  0.39383  1.0000
  H   H339      1.0  0.32609  0.08474  0.39808  1.0000
  H   H340      1.0  0.25304  0.09167  0.51803  1.0000
  H   H341      1.0  0.36235  0.10497  0.40000  1.0000
  C   C310      1.0  0.28140  0.11263  0.48662  1.0000
  C   C311      1.0  0.27521  0.11635  0.50125  1.0000
  C   C312      1.0  0.28491  0.11368  0.51166  1.0000
  C   C313      1.0  0.30094  0.10740  0.50745  1.0000
  C   C314      1.0  0.30710  0.10357  0.49287  1.0000
  C   C315      1.0  0.29736  0.10604  0.48255  1.0000
  H   H342      1.0  0.26291  0.12161  0.50441  1.0000
  H   H343      1.0  0.28011  0.11696  0.52273  1.0000
  H   H344      1.0  0.31946  0.09863  0.48954  1.0000
  H   H345      1.0  0.30220  0.10291  0.47143  1.0000
  C   C316      1.0  0.14633  0.00185  0.44441  1.0000
  C   C317      1.0  0.18404  0.99598  0.41230  1.0000
  H   H346      1.0  0.10308  0.98244  0.41873  1.0000
  N   N18       1.0  0.33883  0.12595  0.44499  1.0000
  C   C318      1.0  0.35139  0.11768  0.43399  1.0000
  C   C319      1.0  0.32399  0.12194  0.44569  1.0000
  C   C320      1.0  0.33747  0.14288  0.43843  1.0000
  C   C321      1.0  0.34171  0.12188  0.46085  1.0000
  C   C322      1.0  0.33143  0.12978  0.47232  1.0000
  C   C323      1.0  0.35427  0.10981  0.46553  1.0000
  C   C324      1.0  0.33376  0.12605  0.48742  1.0000
  C   C325      1.0  0.35640  0.10609  0.48073  1.0000
  C   C326      1.0  0.34616  0.11419  0.49164  1.0000
  H   H347      1.0  0.34906  0.12128  0.42209  1.0000
  H   H348      1.0  0.36297  0.12003  0.43302  1.0000
  H   H349      1.0  0.35219  0.10489  0.43742  1.0000
  H   H350      1.0  0.32467  0.10922  0.45019  1.0000
  H   H351      1.0  0.32134  0.12498  0.43399  1.0000
  H   H352      1.0  0.31377  0.12805  0.45329  1.0000
  H   H353      1.0  0.34796  0.14656  0.43878  1.0000
  H   H354      1.0  0.33629  0.14610  0.42613  1.0000
  H   H355      1.0  0.32699  0.15001  0.44475  1.0000
  H   H356      1.0  0.32121  0.13859  0.46988  1.0000
  H   H357      1.0  0.36247  0.10288  0.45777  1.0000
  H   H358      1.0  0.32548  0.13188  0.49614  1.0000
  H   H359      1.0  0.36585  0.09667  0.48419  1.0000
  H   H360      1.0  0.34750  0.11097  0.50355  1.0000
  H   H361      1.0  0.14692  0.15125  0.40156  1.0000
  H   H362      1.0  0.09181  0.00174  0.41585  1.0000
  H   H363      1.0  0.17914  0.02063  0.40281  1.0000
  H   H364      1.0  0.11642  0.01345  0.44204  1.0000
  H   H365      1.0  0.18589  0.01698  0.49046  1.0000
  C   C327      1.0  0.18919  0.98806  0.43818  1.0000
  C   C328      1.0  0.00327  0.20493  0.41168  1.0000
  H   H366      1.0  0.46857  0.12360  0.39982  1.0000
  C   C329      1.0  0.23351  0.07641  0.39042  1.0000
  S   S86       1.0  0.09393  0.06479  0.38864  1.0000
  C   C330      1.0  0.16745  0.99770  0.52472  1.0000
  C   C331      1.0  0.99563  0.21889  0.57068  1.0000
  C   C332      1.0  0.11900  0.01307  0.45326  1.0000
  C   C333      1.0  0.18674  0.00366  0.43867  1.0000
  N   N19       1.0  0.18102  0.00357  0.51391  1.0000
  H   H367      1.0  0.48614  0.15254  0.40777  1.0000
  S   S87       1.0  0.08056  0.03411  0.39162  1.0000
  S   S88       1.0  0.30221  0.11908  0.56059  1.0000
  H   H368      1.0  0.23581  0.06185  0.55035  1.0000
  H   H369      1.0  0.13869  0.01317  0.46968  1.0000
  H   H370      1.0  0.04262  0.22989  0.42369  1.0000
  C   C334      1.0  0.02794  0.10106  0.39460  1.0000
  C   C335      1.0  0.07266  0.11036  0.39604  1.0000
  N   N20       1.0  0.22609  0.09621  0.47778  1.0000
  C   C336      1.0  0.23611  0.08410  0.46928  1.0000
  C   C337      1.0  0.22865  0.11165  0.46841  1.0000
  C   C338      1.0  0.23146  0.09329  0.49235  1.0000
  C   C339      1.0  0.20940  0.09597  0.48031  1.0000
  C   C340      1.0  0.19911  0.09474  0.49520  1.0000
  C   C341      1.0  0.20287  0.09736  0.46755  1.0000
  C   C342      1.0  0.18346  0.09438  0.49714  1.0000
  C   C343      1.0  0.18725  0.09689  0.46964  1.0000
  C   C344      1.0  0.17759  0.09523  0.48443  1.0000
  H   H371      1.0  0.23379  0.07240  0.47541  1.0000
  H   H372      1.0  0.23419  0.08639  0.45742  1.0000
  H   H373      1.0  0.24882  0.08342  0.46776  1.0000
  H   H374      1.0  0.22660  0.11393  0.45653  1.0000
  H   H375      1.0  0.24086  0.11271  0.46698  1.0000
  H   H376      1.0  0.22073  0.12114  0.47400  1.0000
  H   H377      1.0  0.22979  0.08177  0.49991  1.0000
  H   H378      1.0  0.24415  0.09322  0.48996  1.0000
  H   H379      1.0  0.22520  0.10253  0.49892  1.0000
  H   H380      1.0  0.20295  0.09347  0.50565  1.0000
  H   H381      1.0  0.20984  0.09863  0.45582  1.0000
  H   H382      1.0  0.17597  0.09275  0.50867  1.0000
  H   H383      1.0  0.18269  0.09755  0.45974  1.0000
  H   H384      1.0  0.16562  0.09432  0.48609  1.0000
  C   C345      1.0  0.24247  0.11387  0.55346  1.0000
  H   H385      1.0  0.45067  0.16650  0.39425  1.0000
  H   H386      1.0  0.15050  0.01238  0.44361  1.0000
  C   C346      1.0  0.18319  0.01533  0.42587  1.0000
  H   H387      1.0  0.15616  0.99166  0.44627  1.0000
  N   N21       1.0  0.21808  0.07559  0.38877  1.0000
  S   S89       1.0  0.00422  0.22803  0.42415  1.0000
  H   H388      1.0  0.16012  0.08473  0.39542  1.0000
  H   H389      1.0  0.26519  0.05468  0.40588  1.0000
  H   H390      1.0  0.25383  0.05205  0.54013  1.0000
  C   C347      1.0  0.21173  0.06260  0.40025  1.0000
  H   H391      1.0  0.08497  0.98761  0.43254  1.0000
  H   H392      1.0  0.25293  0.05497  0.55874  1.0000
  C   C348      1.0  0.24831  0.10284  0.54427  1.0000
  C   C349      1.0  0.20630  0.09024  0.39069  1.0000
  N   N22       1.0  0.13228  0.00015  0.45708  1.0000
  H   H393      1.0  0.16634  0.02263  0.50103  1.0000
  H   H394      1.0  0.03924  0.20025  0.38755  1.0000
  H   H395      1.0  0.14178  0.07900  0.40097  1.0000
  H   H396      1.0  0.23542  0.08444  0.52711  1.0000
  C   C350      1.0  0.48870  0.15881  0.39584  1.0000
  H   H397      1.0  0.19650  0.99131  0.48724  1.0000
  N   N23       1.0  0.46990  0.14756  0.38917  1.0000
  Fe  Fe39      1.0  0.07221  0.06020  0.38575  1.0000
  S   S90       1.0  0.19937  0.02691  0.55777  1.0000
  H   H398      1.0  0.19419  0.08921  0.39167  1.0000
  C   C351      1.0  0.36538  0.09761  0.37892  1.0000
  H   H399      1.0  0.30387  0.13191  0.37839  1.0000
  H   H400      1.0  0.15855  0.01837  0.38594  1.0000
  C   C352      1.0  0.23128  0.09503  0.57456  1.0000
  N   N24       1.0  0.14014  0.10279  0.40159  1.0000
  H   H401      1.0  0.05357  0.13468  0.38213  1.0000
  C   C353      1.0  0.02025  0.11473  0.38574  1.0000
  C   C354      1.0  0.13760  0.10826  0.38550  1.0000
  C   C355      1.0  0.14879  0.11271  0.40453  1.0000
  C   C356      1.0  0.16267  0.10659  0.41041  1.0000
  C   C357      1.0  0.14318  0.12910  0.40178  1.0000
  C   C358      1.0  0.17068  0.11639  0.41271  1.0000
  C   C359      1.0  0.15129  0.13877  0.40413  1.0000
  C   C360      1.0  0.16509  0.13242  0.40946  1.0000
  C   C361      1.0  0.46482  0.14604  0.37579  1.0000
  H   H402      1.0  0.18171  0.17633  0.40003  1.0000
  H   H403      1.0  0.24494  0.12539  0.54904  1.0000
  H   H404      1.0  0.14421  0.00284  0.43282  1.0000
  H   H405      1.0  0.12619  0.10071  0.42482  1.0000
  H   H406      1.0  0.19684  0.98426  0.53594  1.0000
  C   C362      1.0  0.06649  0.99612  0.41198  1.0000
  C   C363      1.0  0.48152  0.15741  0.38462  1.0000
  Fe  Fe40      1.0  0.21500  0.01224  0.57373  1.0000
  H   H407      1.0  0.16769  0.09429  0.41326  1.0000
  S   S91       1.0  0.23128  0.02856  0.56673  1.0000
  H   H408      1.0  0.18144  0.11153  0.41686  1.0000
  C   C364      1.0  0.19126  0.17511  0.38954  1.0000
  H   H409      1.0  0.17159  0.13989  0.41098  1.0000
  C   C365      1.0  0.24339  0.06350  0.39827  1.0000
  C   C366      1.0  0.19452  0.99030  0.51190  1.0000
  H   H410      1.0  0.19957  0.06303  0.39977  1.0000
  H   H411      1.0  0.27452  0.07896  0.39395  1.0000
  H   H412      1.0  0.11830  0.09544  0.41176  1.0000
  C   C367      1.0  0.23406  0.10994  0.56862  1.0000
  N   N25       1.0  0.25319  0.07569  0.54043  1.0000
  C   C368      1.0  0.99667  0.19370  0.40987  1.0000
  Fe  Fe41      1.0  0.29372  0.07780  0.57309  1.0000
  C   C369      1.0  0.12837  0.98513  0.45861  1.0000
  N   N26       1.0  0.08205  0.98522  0.41094  1.0000
  C   C370      1.0  0.26338  0.07814  0.39258  1.0000
  H   H413      1.0  0.16486  0.17083  0.38627  1.0000
  C   C371      1.0  0.27046  0.07289  0.53759  1.0000
  S   S92       1.0  0.20476  0.13104  0.38563  1.0000
  H   H414      1.0  0.06736  0.11951  0.40286  1.0000
  H   H415      1.0  0.18147  0.02730  0.42604  1.0000
  H   H416      1.0  0.12547  0.00109  0.48132  1.0000
  H   H417      1.0  0.25523  0.10628  0.53279  1.0000
  Fe  Fe42      1.0  0.21422  0.04417  0.55250  1.0000
  H   H418      1.0  0.21146  0.06300  0.41229  1.0000
  H   H419      1.0  0.19976  0.18184  0.38931  1.0000
  H   H420      1.0  0.16435  0.98909  0.52031  1.0000
  C   C372      1.0  0.20089  0.98538  0.49762  1.0000
  H   H421      1.0  0.18718  0.00959  0.53232  1.0000
  H   H422      1.0  0.06468  0.10207  0.40005  1.0000
  S   S93       1.0  0.22192  0.98672  0.57396  1.0000
  C   C373      1.0  0.24595  0.08744  0.55004  1.0000
  H   H423      1.0  0.02507  0.09908  0.40712  1.0000
  H   H424      1.0  0.01491  0.20601  0.40521  1.0000
  H   H425      1.0  0.01148  0.12325  0.39142  1.0000
  H   H426      1.0  0.48779  0.12657  0.39000  1.0000
  H   H427      1.0  0.03291  0.22509  0.56667  1.0000
  H   H428      1.0  0.20651  0.09388  0.40115  1.0000
  H   H429      1.0  0.06737  0.00839  0.40971  1.0000
  H   H430      1.0  0.12564  0.99004  0.43474  1.0000
  H   H431      1.0  0.23440  0.07263  0.57087  1.0000
  H   H432      1.0  0.08398  0.10386  0.39927  1.0000
  C   C374      1.0  0.14842  0.08617  0.40346  1.0000
  H   H433      1.0  0.12985  0.12000  0.38345  1.0000
  H   H434      1.0  0.27640  0.06388  0.53065  1.0000
  H   H435      1.0  0.44666  0.14753  0.40329  1.0000
  H   H436      1.0  0.27492  0.08354  0.53109  1.0000
  C   C375      1.0  0.24841  0.08135  0.52531  1.0000
  H   H437      1.0  0.19522  0.01914  0.51293  1.0000
  H   H438      1.0  0.21864  0.05104  0.39815  1.0000
  C   C376      1.0  0.13569  0.00178  0.47134  1.0000
  H   H439      1.0  0.45860  0.15491  0.41069  1.0000
  H   H440      1.0  0.19706  0.16253  0.39143  1.0000
  H   H441      1.0  0.17497  0.02495  0.52181  1.0000
  H   H442      1.0  0.23993  0.05264  0.40403  1.0000
  H   H443      1.0  0.12142  0.02460  0.45218  1.0000
  H   H444      1.0  0.16981  0.99188  0.53643  1.0000
  H   H445      1.0  0.14276  0.03362  0.38001  1.0000
  C   C377      1.0  0.24974  0.13542  0.37620  1.0000
  H   H446      1.0  0.20828  0.10008  0.38073  1.0000
  H   H447      1.0  0.00326  0.18613  0.40209  1.0000
  H   H448      1.0  0.11712  0.11554  0.41069  1.0000
  C   C378      1.0  0.99981  0.21554  0.55597  1.0000
  C   C379      1.0  0.12474  0.10371  0.41262  1.0000
  C   C380      1.0  0.23950  0.09004  0.38332  1.0000
  C   C381      1.0  0.17612  0.01240  0.49920  1.0000
  C   C382      1.0  0.18193  0.01152  0.41266  1.0000
  H   H449      1.0  0.25281  0.07232  0.51826  1.0000
  C   C383      1.0  0.24872  0.06051  0.54780  1.0000
  H   H450      1.0  0.13208  0.10039  0.38258  1.0000
  C   C384      1.0  0.25412  0.09091  0.38461  1.0000
  C   C385      1.0  0.15550  0.02860  0.37660  1.0000
  S   S94       1.0  0.04998  0.07374  0.39844  1.0000
  C   C386      1.0  0.45585  0.15441  0.39984  1.0000
  H   H451      1.0  0.25817  0.10163  0.37962  1.0000
  H   H452      1.0  0.01201  0.21336  0.55000  1.0000
  H   H453      1.0  0.15229  0.99860  0.38285  1.0000
  H   H454      1.0  0.14589  0.99271  0.47468  1.0000
  C   C387      1.0  0.18769  0.98421  0.42504  1.0000
  H   H455      1.0  0.10814  0.01198  0.46236  1.0000
  C   C388      1.0  0.34502  0.08610  0.37786  1.0000
  C   C389      1.0  0.03951  0.09009  0.38726  1.0000
  C   C390      1.0  0.99501  0.21462  0.42196  1.0000
  C   C391      1.0  0.09081  0.98765  0.39456  1.0000
  H   H456      1.0  0.15691  0.00728  0.52636  1.0000
  H   H457      1.0  0.07102  0.14398  0.38807  1.0000
  H   H458      1.0  0.06029  0.99584  0.40329  1.0000
  S   S95       1.0  0.19931  0.05648  0.57111  1.0000
  C   C392      1.0  0.47656  0.13162  0.39724  1.0000
  C   C393      1.0  0.09081  0.98935  0.42002  1.0000
  C   C394      1.0  0.23698  0.08394  0.56544  1.0000
  H   H459      1.0  0.07085  0.23013  0.41755  1.0000
  H   H460      1.0  0.23290  0.10026  0.37687  1.0000
  H   H461      1.0  0.18118  0.15814  0.37666  1.0000
  H   H462      1.0  0.45659  0.13810  0.37935  1.0000
  H   H463      1.0  0.15640  0.06525  0.37699  1.0000
  H   H464      1.0  0.08552  0.98392  0.38714  1.0000
  S   S96       1.0  0.00682  0.16849  0.37888  1.0000
  Fe  Fe43      1.0  0.27944  0.11182  0.57266  1.0000
  H   H465      1.0  0.32342  0.12462  0.38102  1.0000
  H   H466      1.0  0.13501  0.98282  0.38272  1.0000
  H   H467      1.0  0.04777  0.99584  0.37965  1.0000
  H   H468      1.0  0.01980  0.19495  0.37665  1.0000
  H   H469      1.0  0.05133  0.11769  0.37842  1.0000
  C   C395      1.0  0.08187  0.14117  0.37983  1.0000
  N   N27       1.0  0.07490  0.11683  0.37907  1.0000
  H   H470      1.0  0.08839  0.16217  0.37931  1.0000
  C   C396      1.0  0.03844  0.20554  0.37563  1.0000
  C   C397      1.0  0.17473  0.17047  0.37596  1.0000
  C   C398      1.0  0.20512  0.98177  0.57287  1.0000
  H   H471      1.0  0.48455  0.17405  0.57178  1.0000
  C   C399      1.0  0.17707  0.98841  0.57508  1.0000
  C   C400      1.0  0.12538  0.98170  0.44574  1.0000
  C   C401      1.0  0.05953  0.12550  0.37546  1.0000
  H   H472      1.0  0.07200  0.09565  0.37542  1.0000
  N   N28       1.0  0.28272  0.22135  0.73077  1.0000
  C   C402      1.0  0.41783  0.12136  0.72060  1.0000
  H   H473      1.0  0.13853  0.99095  0.59046  1.0000
  H   H474      1.0  0.18530  0.05681  0.64924  1.0000
  C   C403      1.0  0.04043  0.12107  0.65135  1.0000
  C   C404      1.0  0.02990  0.21934  0.59153  1.0000
  Fe  Fe44      1.0  0.18171  0.15424  0.66123  1.0000
  S   S97       1.0  0.17952  0.15072  0.68678  1.0000
  S   S98       1.0  0.16856  0.17592  0.64774  1.0000
  Fe  Fe45      1.0  0.20474  0.12330  0.65948  1.0000
  S   S99       1.0  0.20437  0.11724  0.68493  1.0000
  S   S100      1.0  0.21918  0.10524  0.64597  1.0000
  Fe  Fe46      1.0  0.17842  0.12639  0.68743  1.0000
  S   S101      1.0  0.16026  0.11463  0.70507  1.0000
  Fe  Fe47      1.0  0.20562  0.14206  0.68164  1.0000
  S   S102      1.0  0.22341  0.15104  0.68766  1.0000
  S   S103      1.0  0.17873  0.13061  0.66223  1.0000
  S   S104      1.0  0.20790  0.14744  0.65582  1.0000
  Fe  Fe48      1.0  0.12627  0.06381  0.67688  1.0000
  S   S105      1.0  0.11511  0.08805  0.66664  1.0000
  S   S106      1.0  0.14447  0.05795  0.69088  1.0000
  Fe  Fe49      1.0  0.10795  0.04906  0.66408  1.0000
  S   S107      1.0  0.09498  0.07221  0.65254  1.0000
  Fe  Fe50      1.0  0.11799  0.07913  0.64568  1.0000
  S   S108      1.0  0.12708  0.09311  0.62246  1.0000
  Fe  Fe51      1.0  0.09288  0.07954  0.67457  1.0000
  S   S109      1.0  0.07315  0.09743  0.68457  1.0000
  S   S110      1.0  0.13137  0.05553  0.65502  1.0000
  S   S111      1.0  0.10376  0.05574  0.68690  1.0000
  S   S112      1.0  0.37031  0.02115  0.71672  1.0000
  C   C405      1.0  0.26444  0.12229  0.63154  1.0000
  C   C406      1.0  0.00821  0.11286  0.68453  1.0000
  S   S113      1.0  0.39746  0.05563  0.75913  1.0000
  Fe  Fe52      1.0  0.43378  0.07361  0.74129  1.0000
  S   S114      1.0  0.42287  0.06579  0.72682  1.0000
  S   S115      1.0  0.45483  0.08349  0.72879  1.0000
  Fe  Fe53      1.0  0.40011  0.07697  0.74051  1.0000
  S   S116      1.0  0.37950  0.09278  0.73149  1.0000
  Fe  Fe54      1.0  0.42131  0.04512  0.74671  1.0000
  S   S117      1.0  0.42687  0.02075  0.74325  1.0000
  S   S118      1.0  0.41126  0.08689  0.75307  1.0000
  S   S119      1.0  0.43404  0.05206  0.76032  1.0000
  H   H475      1.0  0.05990  0.11405  0.62197  1.0000
  C   C407      1.0  0.38834  0.04000  0.66961  1.0000
  C   C408      1.0  0.12662  0.99350  0.58815  1.0000
  C   C409      1.0  0.09738  0.11399  0.60266  1.0000
  H   H476      1.0  0.27735  0.12336  0.60016  1.0000
  C   C410      1.0  0.47769  0.04500  0.72246  1.0000
  H   H477      1.0  0.07545  0.09799  0.61790  1.0000
  H   H478      1.0  0.09530  0.12077  0.62955  1.0000
  H   H479      1.0  0.41895  0.15373  0.69101  1.0000
  H   H480      1.0  0.43876  0.00755  0.70974  1.0000
  H   H481      1.0  0.34886  0.04782  0.67474  1.0000
  H   H482      1.0  0.12553  0.14522  0.69014  1.0000
  C   C411      1.0  0.20949  0.07117  0.63659  1.0000
  Fe  Fe55      1.0  0.36463  0.14148  0.66224  1.0000
  S   S120      1.0  0.35301  0.12618  0.65625  1.0000
  H   H483      1.0  0.46816  0.04407  0.75263  1.0000
  Fe  Fe56      1.0  0.39353  0.13699  0.63600  1.0000
  S   S121      1.0  0.38446  0.12092  0.62783  1.0000
  H   H484      1.0  0.00069  0.11550  0.65708  1.0000
  Fe  Fe57      1.0  0.36136  0.13802  0.63156  1.0000
  S   S122      1.0  0.37099  0.15508  0.63780  1.0000
  Fe  Fe58      1.0  0.37677  0.11042  0.65307  1.0000
  S   S123      1.0  0.38104  0.08532  0.66534  1.0000
  C   C412      1.0  0.07099  0.00172  0.66257  1.0000
  S   S124      1.0  0.38784  0.12480  0.66079  1.0000
  S   S125      1.0  0.28664  0.17203  0.75305  1.0000
  Fe  Fe59      1.0  0.25111  0.15540  0.75559  1.0000
  S   S126      1.0  0.27558  0.14470  0.74468  1.0000
  S   S127      1.0  0.23151  0.14494  0.75552  1.0000
  H   H485      1.0  0.46142  0.17094  0.59028  1.0000
  Fe  Fe60      1.0  0.27740  0.16946  0.73400  1.0000
  S   S128      1.0  0.28584  0.17795  0.70841  1.0000
  C   C413      1.0  0.27136  0.21253  0.73091  1.0000
  H   H486      1.0  0.44794  0.13434  0.72379  1.0000
  S   S129      1.0  0.00309  0.16479  0.65730  1.0000
  C   C414      1.0  0.33434  0.03127  0.61454  1.0000
  H   H487      1.0  0.27587  0.20515  0.72221  1.0000
  C   C415      1.0  0.07894  0.02449  0.66398  1.0000
  N   N29       1.0  0.40039  0.13115  0.70150  1.0000
  C   C416      1.0  0.11266  0.99315  0.61445  1.0000
  C   C417      1.0  0.16880  0.98963  0.61832  1.0000
  S   S130      1.0  0.20023  0.02171  0.59438  1.0000
  C   C418      1.0  0.17333  0.19254  0.70325  1.0000
  H   H488      1.0  0.00494  0.21897  0.57573  1.0000
  H   H489      1.0  0.10306  0.01133  0.69751  1.0000
  C   C419      1.0  0.37205  0.05510  0.61884  1.0000
  C   C420      1.0  0.43829  0.13389  0.71937  1.0000
  S   S131      1.0  0.22115  0.04923  0.60273  1.0000
  H   H490      1.0  0.05499  0.02294  0.66728  1.0000
  C   C421      1.0  0.08715  0.14673  0.60683  1.0000
  C   C422      1.0  0.26269  0.14761  0.63579  1.0000
  C   C423      1.0  0.12374  0.13514  0.68699  1.0000
  C   C424      1.0  0.24608  0.06160  0.59949  1.0000
  C   C425      1.0  0.24107  0.04935  0.59755  1.0000
  C   C426      1.0  0.02747  0.22508  0.60476  1.0000
  H   H491      1.0  0.32669  0.18170  0.72080  1.0000
  C   C427      1.0  0.46194  0.17552  0.59966  1.0000
  H   H492      1.0  0.23780  0.07053  0.60495  1.0000
  C   C428      1.0  0.04050  0.20657  0.67626  1.0000
  C   C429      1.0  0.33699  0.15624  0.69118  1.0000
  C   C430      1.0  0.31457  0.16036  0.71245  1.0000
  C   C431      1.0  0.30549  0.16955  0.70185  1.0000
  C   C432      1.0  0.31207  0.17188  0.68589  1.0000
  C   C433      1.0  0.32777  0.16499  0.68054  1.0000
  H   H493      1.0  0.30507  0.17908  0.67767  1.0000
  H   H494      1.0  0.33291  0.16691  0.66822  1.0000
  H   H495      1.0  0.07587  0.03617  0.66587  1.0000
  C   C434      1.0  0.34532  0.11524  0.61587  1.0000
  C   C435      1.0  0.34164  0.10383  0.61090  1.0000
  N   N30       1.0  0.27882  0.14125  0.61032  1.0000
  C   C436      1.0  0.01833  0.12477  0.69882  1.0000
  S   S132      1.0  0.15966  0.04074  0.58483  1.0000
  H   H496      1.0  0.35172  0.11190  0.62499  1.0000
  H   H497      1.0  0.34525  0.09170  0.61623  1.0000
  C   C437      1.0  0.48327  0.07897  0.73539  1.0000
  C   C438      1.0  0.15692  0.99474  0.63074  1.0000
  C   C439      1.0  0.03386  0.20335  0.66581  1.0000
  C   C440      1.0  0.10107  0.98742  0.59693  1.0000
  H   H498      1.0  0.24054  0.12703  0.66646  1.0000
  H   H499      1.0  0.26497  0.15915  0.63213  1.0000
  H   H500      1.0  0.05874  0.14530  0.69318  1.0000
  H   H501      1.0  0.10249  0.10733  0.70265  1.0000
  C   C441      1.0  0.44956  0.15170  0.64290  1.0000
  H   H502      1.0  0.99606  0.21107  0.60191  1.0000
  C   C442      1.0  0.26900  0.13682  0.62599  1.0000
  H   H503      1.0  0.36660  0.04793  0.73789  1.0000
  H   H504      1.0  0.10917  0.11586  0.68237  1.0000
  C   C443      1.0  0.37847  0.08943  0.71408  1.0000
  C   C444      1.0  0.36848  0.10028  0.70517  1.0000
  C   C445      1.0  0.36881  0.09859  0.69045  1.0000
  C   C446      1.0  0.37891  0.08592  0.68469  1.0000
  C   C447      1.0  0.38834  0.07463  0.69394  1.0000
  C   C448      1.0  0.38821  0.07650  0.70859  1.0000
  H   H505      1.0  0.36090  0.11033  0.70936  1.0000
  H   H506      1.0  0.36138  0.10729  0.68350  1.0000
  H   H507      1.0  0.39620  0.06484  0.68953  1.0000
  H   H508      1.0  0.39574  0.06807  0.71558  1.0000
  C   C449      1.0  0.46738  0.07912  0.74139  1.0000
  C   C450      1.0  0.46172  0.07501  0.75742  1.0000
  H   H509      1.0  0.10770  0.00585  0.61107  1.0000
  H   H510      1.0  0.13495  0.19593  0.70648  1.0000
  C   C451      1.0  0.09397  0.15417  0.70206  1.0000
  H   H511      1.0  0.10261  0.98214  0.58695  1.0000
  H   H512      1.0  0.44938  0.07546  0.76213  1.0000
  C   C452      1.0  0.09928  0.15009  0.65105  1.0000
  C   C453      1.0  0.18681  0.18385  0.69533  1.0000
  H   H513      1.0  0.32789  0.07997  0.77031  1.0000
  H   H514      1.0  0.38916  0.03591  0.68203  1.0000
  C   C454      1.0  0.09876  0.00102  0.69899  1.0000
  H   H515      1.0  0.36130  0.06011  0.67435  1.0000
  H   H516      1.0  0.10338  0.15717  0.70477  1.0000
  H   H517      1.0  0.06917  0.20595  0.64715  1.0000
  H   H518      1.0  0.27090  0.22509  0.75370  1.0000
  C   C455      1.0  0.38684  0.02012  0.72330  1.0000
  C   C456      1.0  0.39276  0.03343  0.71958  1.0000
  C   C457      1.0  0.40531  0.03333  0.72547  1.0000
  C   C458      1.0  0.41197  0.01998  0.73518  1.0000
  C   C459      1.0  0.40637  0.00642  0.73865  1.0000
  C   C460      1.0  0.39384  0.00645  0.73258  1.0000
  H   H519      1.0  0.38742  0.04392  0.71235  1.0000
  H   H520      1.0  0.40984  0.04363  0.72253  1.0000
  H   H521      1.0  0.41138  0.99610  0.74635  1.0000
  H   H522      1.0  0.31436  0.06032  0.61325  1.0000
  C   C461      1.0  0.13559  0.07956  0.61080  1.0000
  C   C462      1.0  0.12793  0.06797  0.61189  1.0000
  C   C463      1.0  0.13510  0.05653  0.60324  1.0000
  C   C464      1.0  0.15025  0.05619  0.59413  1.0000
  C   C465      1.0  0.15784  0.06786  0.59300  1.0000
  C   C466      1.0  0.15041  0.07969  0.60115  1.0000
  H   H523      1.0  0.11645  0.06785  0.61936  1.0000
  H   H524      1.0  0.26016  0.22032  0.72842  1.0000
  C   C467      1.0  0.43393  0.14520  0.70672  1.0000
  H   H525      1.0  0.15632  0.08866  0.60034  1.0000
  C   C468      1.0  0.05353  0.12229  0.67041  1.0000
  C   C469      1.0  0.06042  0.10642  0.67195  1.0000
  C   C470      1.0  0.05712  0.09785  0.66339  1.0000
  C   C471      1.0  0.04702  0.10513  0.65321  1.0000
  H   H526      1.0  0.05591  0.12889  0.67717  1.0000
  H   H527      1.0  0.06208  0.08551  0.66487  1.0000
  H   H528      1.0  0.04440  0.09843  0.64668  1.0000
  C   C472      1.0  0.22442  0.14983  0.70682  1.0000
  C   C473      1.0  0.23410  0.15805  0.70908  1.0000
  C   C474      1.0  0.23628  0.15660  0.72396  1.0000
  C   C475      1.0  0.22851  0.14714  0.73680  1.0000
  C   C476      1.0  0.21845  0.13923  0.73464  1.0000
  C   C477      1.0  0.21644  0.14052  0.71965  1.0000
  H   H529      1.0  0.24004  0.16550  0.69923  1.0000
  H   H530      1.0  0.24396  0.16284  0.72547  1.0000
  H   H531      1.0  0.21236  0.13192  0.74452  1.0000
  H   H532      1.0  0.20891  0.13416  0.71802  1.0000
  C   C478      1.0  0.22906  0.11227  0.62707  1.0000
  C   C479      1.0  0.23988  0.10172  0.61875  1.0000
  C   C480      1.0  0.24833  0.10707  0.60384  1.0000
  C   C481      1.0  0.24602  0.12296  0.59719  1.0000
  C   C482      1.0  0.23468  0.13347  0.60522  1.0000
  C   C483      1.0  0.22627  0.12814  0.62021  1.0000
  H   H533      1.0  0.24190  0.08939  0.62391  1.0000
  H   H534      1.0  0.25654  0.09888  0.59743  1.0000
  H   H535      1.0  0.23259  0.14577  0.59998  1.0000
  H   H536      1.0  0.21769  0.13631  0.62646  1.0000
  C   C484      1.0  0.15667  0.09875  0.70052  1.0000
  C   C485      1.0  0.15247  0.08649  0.71263  1.0000
  C   C486      1.0  0.14885  0.07399  0.70955  1.0000
  C   C487      1.0  0.14868  0.07398  0.69441  1.0000
  C   C488      1.0  0.15245  0.08643  0.68227  1.0000
  C   C489      1.0  0.15678  0.09865  0.68527  1.0000
  H   H537      1.0  0.15229  0.08651  0.72443  1.0000
  H   H538      1.0  0.14602  0.06435  0.71895  1.0000
  H   H539      1.0  0.15225  0.08647  0.67058  1.0000
  H   H540      1.0  0.15977  0.10815  0.67587  1.0000
  C   C490      1.0  0.12402  0.19768  0.67865  1.0000
  C   C491      1.0  0.13097  0.18194  0.68310  1.0000
  C   C492      1.0  0.14452  0.17513  0.67351  1.0000
  C   C493      1.0  0.15112  0.18404  0.65942  1.0000
  C   C494      1.0  0.14391  0.19967  0.65477  1.0000
  C   C495      1.0  0.13044  0.20654  0.66444  1.0000
  H   H541      1.0  0.12606  0.17507  0.69410  1.0000
  H   H542      1.0  0.14990  0.16300  0.67703  1.0000
  H   H543      1.0  0.14901  0.20659  0.64388  1.0000
  H   H544      1.0  0.28741  0.15874  0.61527  1.0000
  C   C496      1.0  0.09844  0.00149  0.65878  1.0000
  H   H545      1.0  0.41516  0.11378  0.68912  1.0000
  H   H546      1.0  0.05614  0.17046  0.69933  1.0000
  H   H547      1.0  0.27559  0.15649  0.58828  1.0000
  H   H548      1.0  0.18952  0.00152  0.58124  1.0000
  H   H549      1.0  0.08895  0.10324  0.63373  1.0000
  C   C497      1.0  0.28621  0.12801  0.60253  1.0000
  C   C498      1.0  0.37209  0.06519  0.62761  1.0000
  H   H550      1.0  0.21553  0.08055  0.63528  1.0000
  N   N31       1.0  0.45973  0.10659  0.67365  1.0000
  C   C499      1.0  0.45258  0.12117  0.67920  1.0000
  C   C500      1.0  0.46940  0.09597  0.68461  1.0000
  C   C501      1.0  0.47053  0.11008  0.65831  1.0000
  C   C502      1.0  0.44711  0.10010  0.67243  1.0000
  C   C503      1.0  0.44184  0.08737  0.68369  1.0000
  C   C504      1.0  0.43893  0.10716  0.66028  1.0000
  C   C505      1.0  0.42961  0.08178  0.68234  1.0000
  C   C506      1.0  0.42688  0.10140  0.65896  1.0000
  C   C507      1.0  0.42226  0.08870  0.66992  1.0000
  H   H551      1.0  0.44495  0.12962  0.67166  1.0000
  H   H552      1.0  0.44524  0.11886  0.69113  1.0000
  H   H553      1.0  0.46159  0.12705  0.67949  1.0000
  H   H554      1.0  0.46263  0.09425  0.69679  1.0000
  C   C508      1.0  0.06780  0.16942  0.59837  1.0000
  H   H555      1.0  0.47457  0.08449  0.68145  1.0000
  H   H556      1.0  0.46497  0.11972  0.64987  1.0000
  C   C509      1.0  0.29712  0.21034  0.73471  1.0000
  H   H557      1.0  0.47526  0.09965  0.65316  1.0000
  H   H558      1.0  0.44686  0.08164  0.69371  1.0000
  H   H559      1.0  0.44160  0.11732  0.65170  1.0000
  H   H560      1.0  0.42570  0.07209  0.69100  1.0000
  H   H561      1.0  0.42099  0.10695  0.64940  1.0000
  H   H562      1.0  0.41283  0.08437  0.66882  1.0000
  N   N32       1.0  0.09130  0.19282  0.65304  1.0000
  C   C510      1.0  0.08599  0.19568  0.66895  1.0000
  C   C511      1.0  0.10780  0.19445  0.64724  1.0000
  C   C512      1.0  0.08193  0.20517  0.64283  1.0000
  C   C513      1.0  0.08912  0.17732  0.65339  1.0000
  C   C514      1.0  0.10184  0.16457  0.65058  1.0000
  C   C515      1.0  0.07384  0.17450  0.65700  1.0000
  Fe  Fe61      1.0  0.26156  0.18040  0.76399  1.0000
  C   C516      1.0  0.07142  0.16008  0.65728  1.0000
  C   C517      1.0  0.31993  0.18950  0.72840  1.0000
  H   H563      1.0  0.09328  0.18719  0.67683  1.0000
  S   S133      1.0  0.05598  0.99220  0.66453  1.0000
  H   H564      1.0  0.07362  0.19486  0.67408  1.0000
  H   H565      1.0  0.11546  0.18647  0.65505  1.0000
  C   C518      1.0  0.08242  0.16285  0.60199  1.0000
  S   S134      1.0  0.00446  0.19964  0.63543  1.0000
  C   C519      1.0  0.47530  0.18170  0.61571  1.0000
  H   H566      1.0  0.43589  0.19094  0.62895  1.0000
  H   H567      1.0  0.08507  0.20314  0.63087  1.0000
  H   H568      1.0  0.11389  0.16548  0.64796  1.0000
  H   H569      1.0  0.06356  0.18340  0.65977  1.0000
  C   C520      1.0  0.13791  0.20213  0.71370  1.0000
  H   H570      1.0  0.05956  0.15839  0.65994  1.0000
  C   C521      1.0  0.37307  0.03378  0.64142  1.0000
  C   C522      1.0  0.48529  0.98529  0.70241  1.0000
  H   H571      1.0  0.17757  0.01277  0.62748  1.0000
  C   C523      1.0  0.44275  0.14635  0.63403  1.0000
  C   C524      1.0  0.16556  0.20557  0.67889  1.0000
  C   C525      1.0  0.47631  0.17574  0.60271  1.0000
  C   C526      1.0  0.17899  0.19668  0.67112  1.0000
  H   H572      1.0  0.32899  0.14729  0.59172  1.0000
  S   S135      1.0  0.28964  0.09220  0.59037  1.0000
  H   H573      1.0  0.09531  0.99989  0.59363  1.0000
  H   H574      1.0  0.99582  0.13621  0.65293  1.0000
  H   H575      1.0  0.44022  0.15447  0.70128  1.0000
  H   H576      1.0  0.29362  0.11841  0.60955  1.0000
  C   C527      1.0  0.25188  0.03780  0.59056  1.0000
  C   C528      1.0  0.26762  0.03870  0.58516  1.0000
  C   C529      1.0  0.47205  0.07027  0.76744  1.0000
  C   C530      1.0  0.26173  0.06276  0.59364  1.0000
  H   H577      1.0  0.12127  0.13907  0.67517  1.0000
  H   H578      1.0  0.35984  0.04335  0.68949  1.0000
  H   H579      1.0  0.00489  0.14710  0.70283  1.0000
  S   S136      1.0  0.00689  0.17083  0.61960  1.0000
  H   H580      1.0  0.30284  0.19971  0.71475  1.0000
  C   C531      1.0  0.36357  0.04685  0.75035  1.0000
  C   C532      1.0  0.18965  0.18596  0.67928  1.0000
  H   H581      1.0  0.10728  0.11860  0.60298  1.0000
  H   H582      1.0  0.06882  0.11256  0.60213  1.0000
  N   N33       1.0  0.19312  0.07745  0.63483  1.0000
  C   C533      1.0  0.18591  0.06409  0.63724  1.0000
  C   C534      1.0  0.19304  0.08806  0.61936  1.0000
  C   C535      1.0  0.18941  0.08418  0.60705  1.0000
  C   C536      1.0  0.19719  0.10261  0.61605  1.0000
  C   C537      1.0  0.18929  0.09457  0.59265  1.0000
  C   C538      1.0  0.19704  0.11291  0.60163  1.0000
  C   C539      1.0  0.19293  0.10896  0.59000  1.0000
  H   H583      1.0  0.21015  0.06340  0.64821  1.0000
  H   H584      1.0  0.19289  0.05615  0.62936  1.0000
  H   H585      1.0  0.17373  0.06814  0.63539  1.0000
  H   H586      1.0  0.18674  0.07314  0.60819  1.0000
  H   H587      1.0  0.20070  0.10611  0.62458  1.0000
  H   H588      1.0  0.10891  0.20638  0.64666  1.0000
  H   H589      1.0  0.46041  0.19135  0.63504  1.0000
  C   C540      1.0  0.36029  0.04782  0.67682  1.0000
  C   C541      1.0  0.29166  0.14779  0.61107  1.0000
  H   H590      1.0  0.30951  0.15846  0.72478  1.0000
  S   S137      1.0  0.03101  0.19965  0.59305  1.0000
  C   C542      1.0  0.08411  0.14787  0.65436  1.0000
  H   H591      1.0  0.29915  0.13935  0.61874  1.0000
  H   H592      1.0  0.05385  0.13721  0.60568  1.0000
  H   H593      1.0  0.37275  0.03152  0.61884  1.0000
  H   H594      1.0  0.37177  0.05945  0.60665  1.0000
  H   H595      1.0  0.14355  0.19311  0.72259  1.0000
  H   H596      1.0  0.43361  0.11323  0.73621  1.0000
  H   H597      1.0  0.15775  0.21349  0.67182  1.0000
  H   H598      1.0  0.13403  0.22068  0.68674  1.0000
  N   N34       1.0  0.48085  0.03108  0.73502  1.0000
  C   C543      1.0  0.32872  0.12373  0.59221  1.0000
  C   C544      1.0  0.46088  0.18721  0.62495  1.0000
  Fe  Fe62      1.0  0.41030  0.06471  0.77087  1.0000
  H   H599      1.0  0.16588  0.99621  0.57794  1.0000
  C   C545      1.0  0.03313  0.21370  0.65150  1.0000
  H   H600      1.0  0.42199  0.00210  0.70828  1.0000
  C   C546      1.0  0.31455  0.05318  0.60525  1.0000
  H   H601      1.0  0.34559  0.99186  0.62856  1.0000
  C   C547      1.0  0.47966  0.03627  0.74925  1.0000
  C   C548      1.0  0.33235  0.13516  0.59721  1.0000
  H   H602      1.0  0.33883  0.02885  0.65107  1.0000
  Fe  Fe63      1.0  0.28216  0.14827  0.76497  1.0000
  C   C549      1.0  0.43491  0.00042  0.70415  1.0000
  C   C550      1.0  0.07730  0.13667  0.60822  1.0000
  C   C551      1.0  0.06237  0.14378  0.60462  1.0000
  H   H603      1.0  0.09595  0.11729  0.59045  1.0000
  C   C552      1.0  0.01954  0.11247  0.69223  1.0000
  C   C553      1.0  0.34269  0.00921  0.64117  1.0000
  H   H604      1.0  0.43741  0.00530  0.69141  1.0000
  C   C554      1.0  0.46828  0.02250  0.73836  1.0000
  H   H605      1.0  0.04638  0.16514  0.59701  1.0000
  C   C555      1.0  0.34188  0.05291  0.59431  1.0000
  C   C556      1.0  0.08313  0.00239  0.69924  1.0000
  H   H606      1.0  0.15756  0.21170  0.72353  1.0000
  N   N35       1.0  0.28182  0.14001  0.69000  1.0000
  C   C557      1.0  0.27538  0.15702  0.68680  1.0000
  C   C558      1.0  0.26861  0.13233  0.69862  1.0000
  C   C559      1.0  0.29283  0.13621  0.70040  1.0000
  C   C560      1.0  0.29018  0.13518  0.67523  1.0000
  C   C561      1.0  0.30352  0.14099  0.66603  1.0000
  C   C562      1.0  0.28551  0.12468  0.66956  1.0000
  C   C563      1.0  0.31202  0.13610  0.65239  1.0000
  C   C564      1.0  0.29417  0.11981  0.65593  1.0000
  C   C565      1.0  0.30754  0.12531  0.64752  1.0000
  H   H607      1.0  0.26720  0.16043  0.67885  1.0000
  H   H608      1.0  0.26886  0.16107  0.69766  1.0000
  H   H609      1.0  0.28467  0.16375  0.68149  1.0000
  H   H610      1.0  0.25920  0.13558  0.69201  1.0000
  H   H611      1.0  0.26296  0.13583  0.70990  1.0000
  H   H612      1.0  0.27259  0.11946  0.70146  1.0000
  H   H613      1.0  0.28695  0.13982  0.71159  1.0000
  H   H614      1.0  0.29805  0.12352  0.70304  1.0000
  H   H615      1.0  0.30266  0.14226  0.69534  1.0000
  H   H616      1.0  0.30761  0.14926  0.66937  1.0000
  H   H617      1.0  0.27527  0.12000  0.67546  1.0000
  H   H618      1.0  0.32226  0.14060  0.64562  1.0000
  H   H619      1.0  0.29054  0.11163  0.65192  1.0000
  H   H620      1.0  0.31445  0.12129  0.63714  1.0000
  N   N36       1.0  0.33015  0.04309  0.60076  1.0000
  H   H621      1.0  0.44193  0.98590  0.73107  1.0000
  H   H622      1.0  0.46967  0.01214  0.74808  1.0000
  Fe  Fe64      1.0  0.21494  0.03946  0.58606  1.0000
  H   H623      1.0  0.45649  0.02981  0.74194  1.0000
  H   H624      1.0  0.48868  0.04279  0.74793  1.0000
  S   S138      1.0  0.35173  0.99499  0.70409  1.0000
  H   H625      1.0  0.08681  0.20748  0.66917  1.0000
  H   H626      1.0  0.34266  0.09037  0.75836  1.0000
  H   H627      1.0  0.10913  0.14053  0.64882  1.0000
  H   H628      1.0  0.19501  0.17519  0.70164  1.0000
  H   H629      1.0  0.16724  0.02143  0.61192  1.0000
  C   C566      1.0  0.32870  0.99948  0.76371  1.0000
  H   H630      1.0  0.07851  0.17612  0.70533  1.0000
  C   C567      1.0  0.27246  0.05134  0.58642  1.0000
  C   C568      1.0  0.48802  0.06963  0.76143  1.0000
  C   C569      1.0  0.39788  0.14301  0.68719  1.0000
  H   H631      1.0  0.33198  0.04809  0.62818  1.0000
  C   C570      1.0  0.03888  0.22726  0.64768  1.0000
  C   C571      1.0  0.00566  0.13741  0.69791  1.0000
  C   C572      1.0  0.33474  0.03594  0.62785  1.0000
  H   H632      1.0  0.36871  0.02187  0.75545  1.0000
  C   C573      1.0  0.30628  0.19999  0.72498  1.0000
  H   H633      1.0  0.08984  0.98232  0.65788  1.0000
  N   N37       1.0  0.15356  0.01064  0.63338  1.0000
  C   C574      1.0  0.13893  0.01963  0.62836  1.0000
  C   C575      1.0  0.15157  0.01021  0.65008  1.0000
  C   C576      1.0  0.16607  0.01921  0.62464  1.0000
  H   H634      1.0  0.12664  0.20843  0.71991  1.0000
  H   H635      1.0  0.02718  0.21723  0.61597  1.0000
  H   H636      1.0  0.17147  0.19011  0.71573  1.0000
  Fe  Fe65      1.0  0.31261  0.09817  0.57727  1.0000
  H   H637      1.0  0.34103  0.02922  0.58350  1.0000
  H   H638      1.0  0.08214  0.13663  0.65481  1.0000
  H   H639      1.0  0.12894  0.01398  0.63450  1.0000
  H   H640      1.0  0.13546  0.03151  0.63077  1.0000
  H   H641      1.0  0.14027  0.02095  0.61567  1.0000
  C   C577      1.0  0.28653  0.23129  0.71504  1.0000
  H   H642      1.0  0.15005  0.02198  0.65213  1.0000
  H   H643      1.0  0.34213  0.05951  0.60264  1.0000
  H   H644      1.0  0.48766  0.08221  0.72298  1.0000
  H   H645      1.0  0.16342  0.03096  0.62717  1.0000
  Fe  Fe66      1.0  0.18579  0.03781  0.57779  1.0000
  H   H646      1.0  0.02736  0.12456  0.70445  1.0000
  H   H647      1.0  0.26548  0.07247  0.59470  1.0000
  S   S139      1.0  0.25254  0.17996  0.74379  1.0000
  C   C578      1.0  0.33874  0.02503  0.64098  1.0000
  H   H648      1.0  0.17246  0.09225  0.64547  1.0000
  H   H649      1.0  0.20026  0.12395  0.59948  1.0000
  H   H650      1.0  0.29384  0.13155  0.59098  1.0000
  H   H651      1.0  0.30544  0.04619  0.61079  1.0000
  H   H652      1.0  0.12282  0.10522  0.69427  1.0000
  H   H653      1.0  0.11050  0.99528  0.65682  1.0000
  H   H654      1.0  0.18099  0.19787  0.65868  1.0000
  H   H655      1.0  0.05160  0.22242  0.68044  1.0000
  C   C579      1.0  0.31601  0.19877  0.75153  1.0000
  H   H656      1.0  0.19042  0.09452  0.64816  1.0000
  S   S140      1.0  0.10994  0.02482  0.66119  1.0000
  C   C580      1.0  0.18436  0.08595  0.64732  1.0000
  C   C581      1.0  0.08555  0.11598  0.62919  1.0000
  H   H657      1.0  0.12526  0.21873  0.66101  1.0000
  H   H658      1.0  0.29081  0.22448  0.70584  1.0000
  H   H659      1.0  0.00999  0.10325  0.67918  1.0000
  H   H660      1.0  0.19287  0.11694  0.57880  1.0000
  H   H661      1.0  0.21640  0.06439  0.62767  1.0000
  C   C582      1.0  0.08671  0.99408  0.65942  1.0000
  N   N38       1.0  0.08264  0.11964  0.61336  1.0000
  S   S141      1.0  0.48499  0.14421  0.68412  1.0000
  H   H662      1.0  0.18298  0.07800  0.65902  1.0000
  H   H663      1.0  0.24777  0.15249  0.65746  1.0000
  H   H664      1.0  0.07491  0.12063  0.63745  1.0000
  H   H665      1.0  0.48525  0.05322  0.72074  1.0000
  N   N39       1.0  0.14813  0.21284  0.70394  1.0000
  H   H666      1.0  0.38950  0.05231  0.66607  1.0000
  H   H667      1.0  0.29939  0.15072  0.59941  1.0000
  H   H668      1.0  0.06407  0.18193  0.59469  1.0000
  C   C583      1.0  0.07976  0.16512  0.70241  1.0000
  H   H669      1.0  0.48842  0.13068  0.72889  1.0000
  Fe  Fe67      1.0  0.02138  0.18765  0.61728  1.0000
  C   C584      1.0  0.07118  0.11073  0.61381  1.0000
  H   H670      1.0  0.10134  0.10109  0.60577  1.0000
  C   C585      1.0  0.04362  0.12965  0.66002  1.0000
  H   H671      1.0  0.07536  0.01380  0.69792  1.0000
  C   C586      1.0  0.04568  0.23039  0.65804  1.0000
  C   C587      1.0  0.33039  0.15394  0.70712  1.0000
  C   C588      1.0  0.09463  0.01666  0.66115  1.0000
  H   H672      1.0  0.40851  0.14197  0.67775  1.0000
  H   H673      1.0  0.08361  0.21695  0.64204  1.0000
  C   C589      1.0  0.07758  0.98927  0.70052  1.0000
  C   C590      1.0  0.99409  0.13780  0.69047  1.0000
  C   C591      1.0  0.35866  0.06018  0.75640  1.0000
  H   H674      1.0  0.33521  0.18056  0.74441  1.0000
  C   C592      1.0  0.37292  0.04384  0.65075  1.0000
  H   H675      1.0  0.19996  0.17897  0.67323  1.0000
  H   H676      1.0  0.04100  0.19865  0.68739  1.0000
  S   S142      1.0  0.02724  0.18600  0.67057  1.0000
  H   H677      1.0  0.03836  0.14191  0.65882  1.0000
  H   H678      1.0  0.32269  0.12705  0.58281  1.0000
  S   S143      1.0  0.39008  0.98535  0.69933  1.0000
  H   H679      1.0  0.37190  0.07736  0.62221  1.0000
  H   H680      1.0  0.22994  0.11839  0.57585  1.0000
  H   H681      1.0  0.38929  0.99609  0.73552  1.0000
  H   H682      1.0  0.39424  0.15502  0.68921  1.0000
  H   H683      1.0  0.45013  0.14008  0.62531  1.0000
  H   H684      1.0  0.35385  0.04578  0.59105  1.0000
  C   C593      1.0  0.26892  0.15321  0.60042  1.0000
  C   C594      1.0  0.37260  0.03942  0.62571  1.0000
  C   C595      1.0  0.36475  0.03218  0.76023  1.0000
  C   C596      1.0  0.16239  0.20387  0.69525  1.0000
  H   H685      1.0  0.46543  0.05175  0.72512  1.0000
  H   H686      1.0  0.40437  0.15930  0.64957  1.0000
  H   H687      1.0  0.38261  0.01379  0.66800  1.0000
  H   H688      1.0  0.25897  0.14887  0.59978  1.0000
  C   C597      1.0  0.44704  0.18699  0.62153  1.0000
  H   H689      1.0  0.36148  0.01971  0.67248  1.0000
  H   H690      1.0  0.41637  0.16951  0.66466  1.0000
  H   H691      1.0  0.37360  0.02148  0.64592  1.0000
  H   H692      1.0  0.26387  0.16401  0.60492  1.0000
  C   C598      1.0  0.41697  0.15714  0.64769  1.0000
  N   N40       1.0  0.37346  0.03835  0.66740  1.0000
  C   C599      1.0  0.40391  0.11570  0.69770  1.0000
  C   C600      1.0  0.11132  0.11358  0.69420  1.0000
  Fe  Fe68      1.0  0.36971  0.99778  0.71470  1.0000
  S   S144      1.0  0.02869  0.13017  0.63781  1.0000
  S   S145      1.0  0.35699  0.14891  0.68498  1.0000
  C   C601      1.0  0.42379  0.16287  0.65625  1.0000
  H   H693      1.0  0.26802  0.11355  0.62474  1.0000
  H   H694      1.0  0.24813  0.02812  0.58941  1.0000
  H   H695      1.0  0.11264  0.19227  0.63533  1.0000
  H   H696      1.0  0.29614  0.21655  0.75644  1.0000
  H   H697      1.0  0.00094  0.16488  0.59241  1.0000
  H   H698      1.0  0.47964  0.04168  0.71124  1.0000
  C   C602      1.0  0.37245  0.02181  0.67371  1.0000
  H   H699      1.0  0.02810  0.21127  0.64337  1.0000
  H   H700      1.0  0.34589  0.00074  0.65133  1.0000
  S   S146      1.0  0.03633  0.17138  0.63328  1.0000
  C   C603      1.0  0.42643  0.14868  0.63669  1.0000
  C   C604      1.0  0.33228  0.01412  0.75985  1.0000
  C   C605      1.0  0.25443  0.11882  0.64605  1.0000
  S   S147      1.0  0.41833  0.14063  0.62631  1.0000
  H   H701      1.0  0.37275  0.06796  0.64950  1.0000
  C   C606      1.0  0.04650  0.22001  0.67234  1.0000
  H   H702      1.0  0.17631  0.99695  0.61027  1.0000
  H   H703      1.0  0.10515  0.11911  0.72303  1.0000
  H   H704      1.0  0.41183  0.11203  0.72641  1.0000
  H   H705      1.0  0.37249  0.01820  0.68628  1.0000
  C   C607      1.0  0.13888  0.22541  0.69378  1.0000
  C   C608      1.0  0.37254  0.05968  0.64329  1.0000
  C   C609      1.0  0.43021  0.12203  0.72634  1.0000
  C   C610      1.0  0.32950  0.03635  0.58811  1.0000
  C   C611      1.0  0.24863  0.12961  0.65540  1.0000
  C   C612      1.0  0.41324  0.13248  0.70758  1.0000
  H   H706      1.0  0.38613  0.12368  0.72414  1.0000
  H   H707      1.0  0.39860  0.03322  0.66263  1.0000
  C   C613      1.0  0.06714  0.01697  0.66481  1.0000
  H   H708      1.0  0.38245  0.14434  0.71654  1.0000
  H   H709      1.0  0.12572  0.11472  0.71451  1.0000
  H   H710      1.0  0.08303  0.12589  0.69251  1.0000
  C   C614      1.0  0.25275  0.14398  0.65029  1.0000
  S   S148      1.0  0.34476  0.14558  0.61523  1.0000
  C   C615      1.0  0.34069  0.13095  0.60902  1.0000
  C   C616      1.0  0.06716  0.16195  0.69910  1.0000
  C   C617      1.0  0.19052  0.99151  0.57683  1.0000
  H   H711      1.0  0.13523  0.12672  0.68630  1.0000
  Fe  Fe69      1.0  0.47433  0.16030  0.66457  1.0000
  C   C618      1.0  0.38555  0.13287  0.71335  1.0000
  H   H712      1.0  0.37562  0.13201  0.70906  1.0000
  C   C619      1.0  0.42158  0.14460  0.70088  1.0000
  C   C620      1.0  0.11469  0.12380  0.71399  1.0000
  H   H713      1.0  0.11647  0.13375  0.71737  1.0000
  C   C621      1.0  0.33339  0.10802  0.59903  1.0000
  H   H714      1.0  0.33753  0.14714  0.71536  1.0000
  C   C622      1.0  0.44010  0.15982  0.65420  1.0000
  H   H715      1.0  0.25067  0.10789  0.64983  1.0000
  H   H716      1.0  0.46210  0.14960  0.64090  1.0000
  S   S149      1.0  0.10756  0.20608  0.69123  1.0000
  C   C623      1.0  0.08279  0.13666  0.69526  1.0000
  Fe  Fe70      1.0  0.02017  0.15561  0.63744  1.0000
  Fe  Fe71      1.0  0.01832  0.18195  0.65183  1.0000
  H   H717      1.0  0.18644  0.09134  0.58348  1.0000
  S   S150      1.0  0.32941  0.09323  0.59297  1.0000
  H   H718      1.0  0.40452  0.10597  0.70804  1.0000
  N   N41       1.0  0.11109  0.12815  0.69837  1.0000
  S   S151      1.0  0.44812  0.16570  0.66644  1.0000
  H   H719      1.0  0.38842  0.14156  0.68272  1.0000
  H   H720      1.0  0.39465  0.11455  0.69264  1.0000
  H   H721      1.0  0.35858  0.07122  0.74819  1.0000
  C   C624      1.0  0.09594  0.13958  0.69848  1.0000
  C   C625      1.0  0.06865  0.14774  0.69562  1.0000
  C   C626      1.0  0.34252  0.00423  0.62829  1.0000
  H   H722      1.0  0.33943  0.01806  0.74854  1.0000
  H   H723      1.0  0.09859  0.14215  0.60951  1.0000
  H   H724      1.0  0.33838  0.01030  0.60565  1.0000
  H   H725      1.0  0.32049  0.02920  0.59204  1.0000
  C   C627      1.0  0.30240  0.20938  0.74816  1.0000
  S   S152      1.0  0.25770  0.12980  0.57917  1.0000
  C   C628      1.0  0.33837  0.01502  0.61514  1.0000
  H   H726      1.0  0.44456  0.00610  0.76628  1.0000
  H   H727      1.0  0.29228  0.11185  0.76479  1.0000
  C   C629      1.0  0.05784  0.15990  0.59965  1.0000
  H   H728      1.0  0.12902  0.04777  0.60386  1.0000
  H   H729      1.0  0.22493  0.09191  0.58643  1.0000
  H   H730      1.0  0.26850  0.20473  0.74248  1.0000
  C   C630      1.0  0.03082  0.22951  0.57695  1.0000
  C   C631      1.0  0.44756  0.18110  0.60898  1.0000
  H   H731      1.0  0.48702  0.10859  0.74822  1.0000
  H   H732      1.0  0.48067  0.11396  0.65920  1.0000
  H   H733      1.0  0.33925  0.06184  0.58377  1.0000
  H   H734      1.0  0.16186  0.00249  0.65462  1.0000
  N   N42       1.0  0.11604  0.98537  0.60136  1.0000
  C   C632      1.0  0.15237  0.22028  0.71411  1.0000
  H   H735      1.0  0.48101  0.02622  0.75918  1.0000
  H   H736      1.0  0.46805  0.01871  0.72799  1.0000
  H   H737      1.0  0.02958  0.10276  0.69273  1.0000
  H   H738      1.0  0.43673  0.18050  0.60671  1.0000
  H   H739      1.0  0.32611  0.04557  0.57803  1.0000
  H   H740      1.0  0.36836  0.08337  0.76395  1.0000
  H   H741      1.0  0.47927  0.10079  0.68470  1.0000
  H   H742      1.0  0.12346  0.99180  0.61849  1.0000
  S   S153      1.0  0.49138  0.14893  0.64614  1.0000
  C   C633      1.0  0.32475  0.18885  0.74168  1.0000
  H   H743      1.0  0.33314  0.99256  0.75501  1.0000
  C   C634      1.0  0.32658  0.02374  0.77042  1.0000
  H   H744      1.0  0.09010  0.17032  0.60104  1.0000
  H   H745      1.0  0.31077  0.06162  0.59496  1.0000
  S   S154      1.0  0.48792  0.17823  0.66188  1.0000
  H   H746      1.0  0.10373  0.98855  0.62442  1.0000
  H   H747      1.0  0.16094  0.22758  0.70727  1.0000
  H   H748      1.0  0.16934  0.06788  0.58578  1.0000
  H   H749      1.0  0.49045  0.99968  0.73240  1.0000
  C   C635      1.0  0.99507  0.12551  0.68345  1.0000
  C   C636      1.0  0.10893  0.98647  0.70021  1.0000
  H   H750      1.0  0.31969  0.19816  0.76195  1.0000
  H   H751      1.0  0.06546  0.99135  0.70005  1.0000
  H   H752      1.0  0.48568  0.18198  0.61898  1.0000
  C   C637      1.0  0.33737  0.08526  0.77053  1.0000
  H   H753      1.0  0.46398  0.99270  0.71783  1.0000
  H   H754      1.0  0.27596  0.02979  0.57969  1.0000
  Fe  Fe72      1.0  0.09646  0.23088  0.68163  1.0000
  H   H755      1.0  0.12805  0.98999  0.57713  1.0000
  C   C638      1.0  0.46910  0.98736  0.70799  1.0000
  H   H756      1.0  0.14091  0.00623  0.65744  1.0000
  H   H757      1.0  0.48493  0.15452  0.58359  1.0000
  H   H758      1.0  0.14195  0.22791  0.72004  1.0000
  S   S155      1.0  0.29186  0.05298  0.57857  1.0000
  C   C639      1.0  0.49086  0.16445  0.57979  1.0000
  N   N43       1.0  0.49179  0.16977  0.59326  1.0000
  H   H759      1.0  0.25262  0.12403  0.77347  1.0000
  H   H760      1.0  0.13796  0.98730  0.64951  1.0000
  C   C640      1.0  0.14752  0.98411  0.64017  1.0000
  H   H761      1.0  0.12111  0.98550  0.69991  1.0000
  H   H762      1.0  0.29536  0.98715  0.77238  1.0000
  H   H763      1.0  0.12221  0.00634  0.58571  1.0000
  N   N44       1.0  0.44279  0.98381  0.70782  1.0000
  H   H764      1.0  0.32920  0.03516  0.76737  1.0000
  H   H765      1.0  0.44165  0.98679  0.77164  1.0000
  S   S156      1.0  0.48672  0.99382  0.77300  1.0000
  S   S157      1.0  0.25382  0.20141  0.77469  1.0000
  H   H766      1.0  0.29294  0.08349  0.77295  1.0000
  C   C641      1.0  0.35426  0.05926  0.77265  1.0000
  C   C642      1.0  0.45980  0.98220  0.70126  1.0000
  H   H767      1.0  0.09270  0.98173  0.60669  1.0000
  C   C643      1.0  0.38844  0.05520  0.80571  1.0000
  H   H768      1.0  0.26899  0.09739  0.80492  1.0000
  H   H769      1.0  0.27174  0.12278  0.95278  1.0000
  H   H770      1.0  0.36187  0.01938  0.78392  1.0000
  C   C644      1.0  0.42491  0.03088  0.81228  1.0000
  C   C645      1.0  0.27827  0.20297  0.87787  1.0000
  C   C646      1.0  0.38988  0.04149  0.80120  1.0000
  Fe  Fe73      1.0  0.30253  0.01996  0.84951  1.0000
  S   S158      1.0  0.31690  0.02583  0.86238  1.0000
  S   S159      1.0  0.29630  0.99645  0.85949  1.0000
  Fe  Fe74      1.0  0.30580  0.04873  0.82342  1.0000
  S   S160      1.0  0.32100  0.05651  0.83383  1.0000
  S   S161      1.0  0.29981  0.06070  0.80017  1.0000
  Fe  Fe75      1.0  0.33259  0.03126  0.83903  1.0000
  S   S162      1.0  0.35829  0.02112  0.83475  1.0000
  Fe  Fe76      1.0  0.30377  0.05055  0.85620  1.0000
  S   S163      1.0  0.29317  0.06657  0.87304  1.0000
  S   S164      1.0  0.31915  0.02396  0.82651  1.0000
  S   S165      1.0  0.28768  0.04425  0.84545  1.0000
  Fe  Fe77      1.0  0.33549  0.14596  0.90769  1.0000
  S   S166      1.0  0.31465  0.15300  0.92599  1.0000
  S   S167      1.0  0.35357  0.16023  0.89553  1.0000
  Fe  Fe78      1.0  0.32604  0.11655  0.90802  1.0000
  S   S168      1.0  0.30426  0.12096  0.92656  1.0000
  S   S169      1.0  0.33520  0.09778  0.89413  1.0000
  Fe  Fe79      1.0  0.30144  0.14572  0.91311  1.0000
  S   S170      1.0  0.27929  0.16010  0.90600  1.0000
  Fe  Fe80      1.0  0.31925  0.12796  0.93813  1.0000
  C   C647      1.0  0.42337  0.01833  0.80753  1.0000
  S   S171      1.0  0.32190  0.14082  0.89375  1.0000
  S   S172      1.0  0.34141  0.12127  0.92072  1.0000
  H   H771      1.0  0.26903  0.18306  0.88005  1.0000
  C   C648      1.0  0.27258  0.22187  0.79668  1.0000
  C   C649      1.0  0.28923  0.18602  0.90459  1.0000
  C   C650      1.0  0.28123  0.17941  0.89814  1.0000
  C   C651      1.0  0.35122  0.13776  0.96765  1.0000
  H   H772      1.0  0.29330  0.17969  0.91501  1.0000
  H   H773      1.0  0.43879  0.04748  0.80878  1.0000
  C   C652      1.0  0.27814  0.14970  0.95147  1.0000
  C   C653      1.0  0.35881  0.19682  0.90817  1.0000
  C   C654      1.0  0.36185  0.18381  0.90179  1.0000
  C   C655      1.0  0.34955  0.17732  0.90220  1.0000
  C   C656      1.0  0.33418  0.18427  0.90837  1.0000
  C   C657      1.0  0.33112  0.19734  0.91457  1.0000
  H   H774      1.0  0.36836  0.20163  0.90808  1.0000
  H   H775      1.0  0.37377  0.17848  0.89701  1.0000
  H   H776      1.0  0.32460  0.17963  0.90834  1.0000
  H   H777      1.0  0.22996  0.13788  0.78869  1.0000
  C   C658      1.0  0.30476  0.07602  0.87811  1.0000
  C   C659      1.0  0.32057  0.07500  0.87096  1.0000
  C   C660      1.0  0.32964  0.08210  0.87575  1.0000
  C   C661      1.0  0.32300  0.09021  0.88771  1.0000
  C   C662      1.0  0.30707  0.09168  0.89452  1.0000
  C   C663      1.0  0.29798  0.08459  0.88972  1.0000
  H   H778      1.0  0.32584  0.06854  0.86193  1.0000
  H   H779      1.0  0.34191  0.08116  0.87035  1.0000
  H   H780      1.0  0.30188  0.09784  0.90380  1.0000
  H   H781      1.0  0.28574  0.08541  0.89529  1.0000
  C   C664      1.0  0.35136  0.15816  0.94452  1.0000
  C   C665      1.0  0.26088  0.08440  0.82719  1.0000
  C   C666      1.0  0.44789  0.01904  0.78871  1.0000
  S   S173      1.0  0.30069  0.21654  0.80511  1.0000
  C   C667      1.0  0.27982  0.99456  0.83953  1.0000
  H   H782      1.0  0.29051  0.14559  0.95262  1.0000
  C   C668      1.0  0.43782  0.03755  0.80526  1.0000
  H   H783      1.0  0.27759  0.14798  0.94015  1.0000
  H   H784      1.0  0.27387  0.00647  0.83992  1.0000
  H   H785      1.0  0.40614  0.22819  0.87529  1.0000
  C   C669      1.0  0.28657  0.20940  0.88417  1.0000
  C   C670      1.0  0.30181  0.10420  0.79976  1.0000
  C   C671      1.0  0.30193  0.08831  0.80446  1.0000
  C   C672      1.0  0.29892  0.08076  0.79476  1.0000
  H   H786      1.0  0.40687  0.00475  0.79600  1.0000
  H   H787      1.0  0.43092  0.23105  0.86554  1.0000
  N   N45       1.0  0.26801  0.14115  0.96469  1.0000
  H   H788      1.0  0.30432  0.08194  0.81562  1.0000
  C   C673      1.0  0.44941  0.03148  0.79368  1.0000
  H   H789      1.0  0.27396  0.20948  0.86759  1.0000
  C   C674      1.0  0.24334  0.10253  0.81083  1.0000
  H   H790      1.0  0.29804  0.20601  0.90275  1.0000
  C   C675      1.0  0.38042  0.03110  0.81010  1.0000
  C   C676      1.0  0.36910  0.03473  0.82312  1.0000
  C   C677      1.0  0.36706  0.04882  0.82717  1.0000
  C   C678      1.0  0.37696  0.05895  0.81863  1.0000
  C   C679      1.0  0.27458  0.98612  0.83219  1.0000
  H   H791      1.0  0.38180  0.02026  0.80691  1.0000
  H   H792      1.0  0.35812  0.05173  0.83709  1.0000
  H   H793      1.0  0.37573  0.06968  0.82198  1.0000
  H   H794      1.0  0.26192  0.10463  0.78113  1.0000
  C   C680      1.0  0.41672  0.00380  0.78578  1.0000
  H   H795      1.0  0.41315  0.01355  0.81335  1.0000
  H   H796      1.0  0.31609  0.11861  0.86758  1.0000
  H   H797      1.0  0.35190  0.18044  0.94620  1.0000
  H   H798      1.0  0.46769  0.06693  0.77983  1.0000
  H   H799      1.0  0.31288  0.02634  0.79306  1.0000
  H   H800      1.0  0.21898  0.10787  0.79648  1.0000
  C   C681      1.0  0.29176  0.20103  0.89772  1.0000
  Fe  Fe81      1.0  0.38053  0.21624  0.95055  1.0000
  H   H801      1.0  0.35050  0.13473  0.94558  1.0000
  H   H802      1.0  0.35294  0.04214  0.79494  1.0000
  H   H803      1.0  0.33182  0.06482  0.79816  1.0000
  H   H804      1.0  0.30919  0.22944  0.95689  1.0000
  C   C682      1.0  0.27294  0.12450  0.96386  1.0000
  H   H805      1.0  0.28503  0.18500  0.77960  1.0000
  H   H806      1.0  0.28552  0.11974  0.96428  1.0000
  H   H807      1.0  0.41529  0.01510  0.77718  1.0000
  Fe  Fe82      1.0  0.36036  0.22445  0.92706  1.0000
  H   H808      1.0  0.27899  0.12560  0.85542  1.0000
  H   H809      1.0  0.31951  0.13031  0.84820  1.0000
  H   H810      1.0  0.30435  0.10994  0.80724  1.0000
  C   C683      1.0  0.36267  0.08031  0.77644  1.0000
  C   C684      1.0  0.35570  0.04409  0.78243  1.0000
  C   C685      1.0  0.29166  0.12282  0.85549  1.0000
  C   C686      1.0  0.29185  0.19894  0.79084  1.0000
  H   H811      1.0  0.29866  0.12155  0.84371  1.0000
  C   C687      1.0  0.36089  0.03081  0.77623  1.0000
  C   C688      1.0  0.26231  0.21830  0.78999  1.0000
  H   H812      1.0  0.26577  0.11731  0.97349  1.0000
  H   H813      1.0  0.33269  0.15567  0.81776  1.0000
  H   H814      1.0  0.39872  0.03861  0.79122  1.0000
  C   C689      1.0  0.34345  0.20345  0.91474  1.0000
  C   C690      1.0  0.31018  0.14991  0.97062  1.0000
  C   C691      1.0  0.25509  0.11578  0.78439  1.0000
  N   N46       1.0  0.35885  0.03561  0.88023  1.0000
  C   C692      1.0  0.36454  0.04890  0.86874  1.0000
  C   C693      1.0  0.37155  0.02590  0.88817  1.0000
  C   C694      1.0  0.35558  0.02599  0.87147  1.0000
  C   C695      1.0  0.34506  0.04147  0.89178  1.0000
  C   C696      1.0  0.34636  0.05073  0.90118  1.0000
  C   C697      1.0  0.33007  0.03841  0.89396  1.0000
  C   C698      1.0  0.33349  0.05659  0.91200  1.0000
  C   C699      1.0  0.31726  0.04439  0.90478  1.0000
  C   C700      1.0  0.31896  0.05346  0.91377  1.0000
  H   H815      1.0  0.36842  0.05616  0.87413  1.0000
  H   H816      1.0  0.37465  0.04497  0.85957  1.0000
  H   H817      1.0  0.35515  0.05664  0.86283  1.0000
  H   H818      1.0  0.37583  0.03265  0.89377  1.0000
  H   H819      1.0  0.38189  0.02075  0.87992  1.0000
  H   H820      1.0  0.36745  0.01616  0.89737  1.0000
  H   H821      1.0  0.34670  0.03281  0.86452  1.0000
  H   H822      1.0  0.36619  0.02162  0.86299  1.0000
  H   H823      1.0  0.35146  0.01557  0.87928  1.0000
  H   H824      1.0  0.35725  0.05389  0.89998  1.0000
  H   H825      1.0  0.32778  0.03173  0.88725  1.0000
  H   H826      1.0  0.33465  0.06413  0.91861  1.0000
  H   H827      1.0  0.30581  0.04241  0.90580  1.0000
  H   H828      1.0  0.30889  0.05844  0.92180  1.0000
  H   H829      1.0  0.48764  0.18851  0.91660  1.0000
  C   C701      1.0  0.43456  0.01232  0.79525  1.0000
  H   H830      1.0  0.45595  0.99092  0.77864  1.0000
  Fe  Fe83      1.0  0.39270  0.23106  0.91739  1.0000
  H   H831      1.0  0.26469  0.99166  0.82679  1.0000
  H   H832      1.0  0.24350  0.14125  0.97290  1.0000
  H   H833      1.0  0.33676  0.08175  0.79979  1.0000
  C   C702      1.0  0.28709  0.15387  0.83702  1.0000
  H   H834      1.0  0.27982  0.17134  0.81754  1.0000
  S   S174      1.0  0.40103  0.06763  0.79534  1.0000
  H   H835      1.0  0.34186  0.19623  0.96364  1.0000
  H   H836      1.0  0.28605  0.14484  0.83225  1.0000
  C   C703      1.0  0.28348  0.16910  0.82837  1.0000
  H   H837      1.0  0.32040  0.18376  0.81314  1.0000
  H   H838      1.0  0.28149  0.19332  0.82696  1.0000
  H   H839      1.0  0.27267  0.07871  0.82873  1.0000
  H   H840      1.0  0.31921  0.20254  0.91952  1.0000
  C   C704      1.0  0.31265  0.13038  0.86027  1.0000
  C   C705      1.0  0.27544  0.18803  0.88496  1.0000
  C   C706      1.0  0.28445  0.18153  0.83360  1.0000
  S   S175      1.0  0.33931  0.21933  0.92328  1.0000
  H   H841      1.0  0.36306  0.19096  0.95953  1.0000
  H   H842      1.0  0.37171  0.07196  0.78244  1.0000
  C   C707      1.0  0.44417  0.99574  0.77601  1.0000
  N   N47       1.0  0.33194  0.18923  0.85772  1.0000
  C   C708      1.0  0.32310  0.18279  0.87326  1.0000
  C   C709      1.0  0.34817  0.18809  0.85875  1.0000
  C   C710      1.0  0.32455  0.20598  0.85350  1.0000
  C   C711      1.0  0.33208  0.18029  0.84657  1.0000
  C   C712      1.0  0.32543  0.18712  0.83330  1.0000
  C   C713      1.0  0.33887  0.16411  0.84897  1.0000
  C   C714      1.0  0.32565  0.17824  0.82312  1.0000
  C   C715      1.0  0.33917  0.15538  0.83862  1.0000
  C   C716      1.0  0.33250  0.16243  0.82576  1.0000
  H   H843      1.0  0.32903  0.17086  0.87825  1.0000
  H   H844      1.0  0.32184  0.18986  0.88172  1.0000
  H   H845      1.0  0.31114  0.18246  0.87285  1.0000
  H   H846      1.0  0.35422  0.17596  0.86311  1.0000
  H   H847      1.0  0.34842  0.19479  0.86702  1.0000
  H   H848      1.0  0.35533  0.19254  0.84721  1.0000
  H   H849      1.0  0.31204  0.20773  0.85323  1.0000
  H   H850      1.0  0.32457  0.21240  0.86211  1.0000
  H   H851      1.0  0.33085  0.21172  0.84203  1.0000
  H   H852      1.0  0.31987  0.19931  0.83046  1.0000
  H   H853      1.0  0.34407  0.15812  0.85887  1.0000
  C   C717      1.0  0.35105  0.14277  0.95195  1.0000
  H   H854      1.0  0.34468  0.14311  0.84058  1.0000
  N   N48       1.0  0.24051  0.11367  0.79621  1.0000
  H   H855      1.0  0.29681  0.16220  0.86661  1.0000
  H   H856      1.0  0.25023  0.14423  0.95212  1.0000
  H   H857      1.0  0.28853  0.12212  0.88440  1.0000
  H   H858      1.0  0.29423  0.11106  0.86319  1.0000
  H   H859      1.0  0.29121  0.14078  0.88311  1.0000
  H   H860      1.0  0.29019  0.18856  0.85122  1.0000
  C   C718      1.0  0.29301  0.16366  0.85606  1.0000
  C   C719      1.0  0.28705  0.13420  0.87723  1.0000
  C   C720      1.0  0.29174  0.15072  0.85132  1.0000
  S   S176      1.0  0.38407  0.20900  0.92830  1.0000
  H   H861      1.0  0.31644  0.13855  0.86457  1.0000
  C   C721      1.0  0.28930  0.17881  0.84735  1.0000
  N   N49       1.0  0.29563  0.13478  0.86083  1.0000
  S   S177      1.0  0.25745  0.15679  0.77703  1.0000
  H   H862      1.0  0.27429  0.13909  0.87803  1.0000
  C   C722      1.0  0.29488  0.10532  0.77589  1.0000
  N   N50       1.0  0.34901  0.07359  0.77880  1.0000
  S   S178      1.0  0.31784  0.12056  0.96412  1.0000
  C   C723      1.0  0.29200  0.98727  0.84728  1.0000
  H   H863      1.0  0.45957  0.03656  0.78840  1.0000
  C   C724      1.0  0.23090  0.10813  0.78917  1.0000
  C   C725      1.0  0.31739  0.01872  0.78492  1.0000
  C   C726      1.0  0.28151  0.19529  0.78429  1.0000
  H   H864      1.0  0.33179  0.09536  0.77610  1.0000
  C   C727      1.0  0.35178  0.16397  0.96886  1.0000
  C   C728      1.0  0.34163  0.07075  0.79562  1.0000
  H   H865      1.0  0.25001  0.07247  0.84954  1.0000
  C   C729      1.0  0.25163  0.14679  0.96273  1.0000
  H   H866      1.0  0.25980  0.16898  0.97372  1.0000
  C   C730      1.0  0.35226  0.19081  0.96890  1.0000
  H   H867      1.0  0.35126  0.16195  0.93229  1.0000
  C   C731      1.0  0.25859  0.09514  0.81341  1.0000
  N   N51       1.0  0.43222  0.99955  0.78990  1.0000
  S   S179      1.0  0.38603  0.19873  0.97178  1.0000
  H   H868      1.0  0.23657  0.09622  0.78721  1.0000
  C   C732      1.0  0.28744  0.21228  0.79698  1.0000
  H   H869      1.0  0.41585  0.03573  0.82121  1.0000
  H   H870      1.0  0.30916  0.15464  0.95873  1.0000
  C   C733      1.0  0.23058  0.09877  0.82308  1.0000
  S   S180      1.0  0.35617  0.22979  0.95024  1.0000
  H   H871      1.0  0.45728  0.01494  0.77970  1.0000
  H   H872      1.0  0.41194  0.22515  0.85575  1.0000
  H   H873      1.0  0.25088  0.22586  0.78966  1.0000
  H   H874      1.0  0.27489  0.16244  0.95069  1.0000
  H   H875      1.0  0.22920  0.11586  0.77774  1.0000
  H   H876      1.0  0.22308  0.08530  0.84605  1.0000
  H   H877      1.0  0.30327  0.19139  0.79117  1.0000
  C   C734      1.0  0.26674  0.20504  0.78372  1.0000
  H   H878      1.0  0.35932  0.09110  0.78093  1.0000
  H   H879      1.0  0.39169  0.22938  0.86538  1.0000
  H   H880      1.0  0.24758  0.15959  0.96137  1.0000
  C   C735      1.0  0.23200  0.12910  0.79951  1.0000
  H   H881      1.0  0.30666  0.00094  0.80040  1.0000
  H   H882      1.0  0.41517  0.99491  0.78055  1.0000
  C   C736      1.0  0.43292  0.98532  0.80248  1.0000
  H   H883      1.0  0.35019  0.06360  0.80280  1.0000
  C   C737      1.0  0.35172  0.16869  0.95275  1.0000
  C   C738      1.0  0.31386  0.00403  0.78897  1.0000
  H   H884      1.0  0.42348  0.98686  0.81295  1.0000
  C   C739      1.0  0.29822  0.11274  0.78552  1.0000
  C   C740      1.0  0.31946  0.99392  0.77843  1.0000
  C   C741      1.0  0.29530  0.08930  0.78049  1.0000
  S   S181      1.0  0.29861  0.13250  0.77991  1.0000
  H   H885      1.0  0.48288  0.09801  0.77609  1.0000
  H   H886      1.0  0.23875  0.13354  0.80504  1.0000
  H   H887      1.0  0.22031  0.12883  0.80733  1.0000
  C   C742      1.0  0.23299  0.08807  0.83689  1.0000
  C   C743      1.0  0.24812  0.08085  0.83890  1.0000
  H   H888      1.0  0.21864  0.10405  0.82205  1.0000
  H   H889      1.0  0.26263  0.12069  0.78853  1.0000
  H   H890      1.0  0.35070  0.12582  0.97344  1.0000
  S   S182      1.0  0.29143  0.22748  0.87511  1.0000
  H   H891      1.0  0.38242  0.23008  0.97497  1.0000
  C   C744      1.0  0.31127  0.22635  0.96853  1.0000
  H   H892      1.0  0.29500  0.98200  0.80021  1.0000
  H   H893      1.0  0.44432  0.98190  0.80607  1.0000
  Fe  Fe84      1.0  0.38733  0.28036  0.01647  1.0000
  S   S183      1.0  0.37010  0.27862  0.03930  1.0000
  S   S184      1.0  0.39166  0.30277  0.00026  1.0000
  Fe  Fe85      1.0  0.39887  0.24556  0.02042  1.0000
  C   C745      1.0  0.18449  0.45430  0.99772  1.0000
  C   C746      1.0  0.48603  0.24570  0.98141  1.0000
  Fe  Fe86      1.0  0.36506  0.25895  0.03295  1.0000
  C   C747      1.0  0.18724  0.45418  0.10742  1.0000
  Fe  Fe87      1.0  0.38982  0.26062  0.04805  1.0000
  C   C748      1.0  0.21061  0.27219  0.14493  1.0000
  S   S185      1.0  0.38023  0.26255  0.00908  1.0000
  S   S186      1.0  0.40751  0.26363  0.02563  1.0000
  Fe  Fe88      1.0  0.29224  0.27716  0.12446  1.0000
  S   S187      1.0  0.27459  0.27205  0.14677  1.0000
  S   S188      1.0  0.29619  0.30141  0.11265  1.0000
  Fe  Fe89      1.0  0.29964  0.24425  0.11953  1.0000
  C   C749      1.0  0.46461  0.29460  0.98181  1.0000
  C   C750      1.0  0.41716  0.29485  0.05681  1.0000
  Fe  Fe90      1.0  0.26653  0.25935  0.13409  1.0000
  S   S189      1.0  0.24135  0.25842  0.13811  1.0000
  Fe  Fe91      1.0  0.29185  0.24949  0.15235  1.0000
  S   S190      1.0  0.28277  0.26606  0.11125  1.0000
  S   S191      1.0  0.31029  0.25580  0.13130  1.0000
  H   H894      1.0  0.44671  0.26681  0.07003  1.0000
  Fe  Fe92      1.0  0.01484  0.35829  0.13293  1.0000
  S   S192      1.0  0.02894  0.34754  0.11277  1.0000
  C   C751      1.0  0.20921  0.46597  0.12666  1.0000
  Fe  Fe93      1.0  0.17771  0.44434  0.05073  1.0000
  S   S193      1.0  0.20031  0.43806  0.03396  1.0000
  S   S194      1.0  0.16070  0.42895  0.06043  1.0000
  Fe  Fe94      1.0  0.19668  0.46385  0.02455  1.0000
  S   S195      1.0  0.34206  0.25222  0.03845  1.0000
  Fe  Fe95      1.0  0.21132  0.44250  0.05063  1.0000
  S   S196      1.0  0.23147  0.42595  0.05983  1.0000
  S   S197      1.0  0.18910  0.44641  0.06832  1.0000
  Fe  Fe96      1.0  0.10234  0.38264  0.01804  1.0000
  S   S198      1.0  0.08627  0.40563  0.02074  1.0000
  S   S199      1.0  0.10934  0.37439  0.99560  1.0000
  Fe  Fe97      1.0  0.11127  0.37669  0.04929  1.0000
  S   S200      1.0  0.09585  0.39916  0.05432  1.0000
  S   S201      1.0  0.12582  0.35979  0.06585  1.0000
  Fe  Fe98      1.0  0.07834  0.39333  0.04537  1.0000
  S   S202      1.0  0.05353  0.40014  0.05831  1.0000
  Fe  Fe99      1.0  0.10516  0.40940  0.02943  1.0000
  S   S203      1.0  0.11282  0.43206  0.02141  1.0000
  S   S204      1.0  0.09293  0.36979  0.04217  1.0000
  S   S205      1.0  0.12202  0.38739  0.02494  1.0000
  Fe  Fe100     1.0  0.18419  0.33987  0.14030  1.0000
  S   S206      1.0  0.18781  0.35481  0.11614  1.0000
  S   S207      1.0  0.18305  0.31471  0.14654  1.0000
  Fe  Fe101     1.0  0.17514  0.36712  0.15564  1.0000
  S   S208      1.0  0.17786  0.38444  0.13296  1.0000
  H   H895      1.0  0.45996  0.32146  0.08970  1.0000
  Fe  Fe102     1.0  0.16562  0.37080  0.12535  1.0000
  S   S209      1.0  0.14553  0.38430  0.11380  1.0000
  Fe  Fe103     1.0  0.19975  0.36715  0.12587  1.0000
  S   S210      1.0  0.22206  0.37517  0.11261  1.0000
  S   S211      1.0  0.16105  0.35502  0.14870  1.0000
  S   S212      1.0  0.19803  0.35072  0.14929  1.0000
  Fe  Fe104     1.0  0.27158  0.45454  0.10098  1.0000
  S   S213      1.0  0.24892  0.46160  0.11710  1.0000
  S   S214      1.0  0.27190  0.46232  0.07557  1.0000
  Fe  Fe105     1.0  0.28816  0.43785  0.12701  1.0000
  S   S215      1.0  0.26674  0.44361  0.14547  1.0000
  S   S216      1.0  0.31047  0.42213  0.13277  1.0000
  Fe  Fe106     1.0  0.25430  0.43724  0.13104  1.0000
  H   H896      1.0  0.42447  0.23368  0.97650  1.0000
  Fe  Fe107     1.0  0.26344  0.46745  0.12980  1.0000
  S   S217      1.0  0.27595  0.42965  0.11388  1.0000
  S   S218      1.0  0.28589  0.46221  0.11239  1.0000
  S   S219      1.0  0.46406  0.39265  0.08328  1.0000
  Fe  Fe108     1.0  0.39697  0.35180  0.08788  1.0000
  S   S220      1.0  0.39117  0.36948  0.06675  1.0000
  S   S221      1.0  0.41714  0.34788  0.09930  1.0000
  Fe  Fe109     1.0  0.37152  0.33508  0.09036  1.0000
  S   S222      1.0  0.36376  0.35104  0.06920  1.0000
  S   S223      1.0  0.36250  0.31435  0.10621  1.0000
  Fe  Fe110     1.0  0.38933  0.34940  0.05858  1.0000
  S   S224      1.0  0.40093  0.34995  0.03345  1.0000
  Fe  Fe111     1.0  0.36609  0.36991  0.07893  1.0000
  S   S225      1.0  0.34725  0.39166  0.07582  1.0000
  S   S226      1.0  0.39698  0.33154  0.07881  1.0000
  S   S227      1.0  0.37193  0.35406  0.10103  1.0000
  C   C752      1.0  0.45123  0.38006  0.08725  1.0000
  C   C753      1.0  0.43748  0.38525  0.08151  1.0000
  C   C754      1.0  0.42705  0.37541  0.08473  1.0000
  C   C755      1.0  0.43020  0.36044  0.09400  1.0000
  C   C756      1.0  0.44396  0.35528  0.09965  1.0000
  C   C757      1.0  0.45449  0.36498  0.09620  1.0000
  H   H897      1.0  0.43485  0.39693  0.07462  1.0000
  H   H898      1.0  0.41640  0.37956  0.08045  1.0000
  H   H899      1.0  0.44641  0.34383  0.10696  1.0000
  H   H900      1.0  0.46490  0.36092  0.10086  1.0000
  C   C758      1.0  0.32183  0.41443  0.11674  1.0000
  C   C759      1.0  0.31818  0.42092  0.10219  1.0000
  C   C760      1.0  0.32656  0.41421  0.08957  1.0000
  C   C761      1.0  0.33846  0.40082  0.09146  1.0000
  C   C762      1.0  0.34258  0.39466  0.10585  1.0000
  C   C763      1.0  0.33428  0.40150  0.11850  1.0000
  H   H901      1.0  0.30899  0.43123  0.10062  1.0000
  H   H902      1.0  0.32382  0.41950  0.07832  1.0000
  H   H903      1.0  0.35215  0.38468  0.10721  1.0000
  H   H904      1.0  0.33736  0.39670  0.12969  1.0000
  H   H905      1.0  0.00198  0.31382  0.13800  1.0000
  C   C764      1.0  0.22595  0.38857  0.12072  1.0000
  C   C765      1.0  0.21665  0.39196  0.13477  1.0000
  C   C766      1.0  0.21987  0.40255  0.14121  1.0000
  C   C767      1.0  0.23239  0.40987  0.13368  1.0000
  C   C768      1.0  0.24170  0.40653  0.11958  1.0000
  C   C769      1.0  0.23851  0.39584  0.11317  1.0000
  H   H906      1.0  0.20701  0.38635  0.14079  1.0000
  H   H907      1.0  0.21257  0.40511  0.15209  1.0000
  H   H908      1.0  0.25122  0.41229  0.11356  1.0000
  H   H909      1.0  0.24560  0.39337  0.10223  1.0000
  C   C770      1.0  0.13236  0.36694  0.07823  1.0000
  C   C771      1.0  0.12780  0.38263  0.07884  1.0000
  C   C772      1.0  0.13221  0.38782  0.08962  1.0000
  C   C773      1.0  0.14131  0.37742  0.09975  1.0000
  C   C774      1.0  0.14622  0.36177  0.09895  1.0000
  C   C775      1.0  0.14169  0.35654  0.08824  1.0000
  H   H910      1.0  0.12075  0.39077  0.07114  1.0000
  H   H911      1.0  0.12864  0.39997  0.09005  1.0000
  H   H912      1.0  0.15323  0.35365  0.10676  1.0000
  H   H913      1.0  0.14530  0.34438  0.08782  1.0000
  C   C776      1.0  0.09628  0.37896  0.98317  1.0000
  N   N52       1.0  0.44937  0.30265  0.10464  1.0000
  H   H914      1.0  0.46439  0.42555  0.08043  1.0000
  C   C777      1.0  0.08027  0.38485  0.98805  1.0000
  C   C778      1.0  0.44224  0.27777  0.10452  1.0000
  S   S228      1.0  0.00521  0.41325  0.13797  1.0000
  H   H915      1.0  0.07561  0.38675  0.99971  1.0000
  C   C779      1.0  0.24209  0.43663  0.06419  1.0000
  C   C780      1.0  0.24498  0.43291  0.07906  1.0000
  C   C781      1.0  0.25358  0.44128  0.08270  1.0000
  C   C782      1.0  0.25994  0.45290  0.07130  1.0000
  C   C783      1.0  0.25698  0.45669  0.05642  1.0000
  C   C784      1.0  0.24785  0.44869  0.05292  1.0000
  H   H916      1.0  0.24031  0.42374  0.08781  1.0000
  H   H917      1.0  0.25535  0.43862  0.09432  1.0000
  C   C785      1.0  0.14833  0.42986  0.04860  1.0000
  C   C786      1.0  0.14547  0.44262  0.03637  1.0000
  C   C787      1.0  0.13463  0.44331  0.02783  1.0000
  C   C788      1.0  0.12696  0.43110  0.03136  1.0000
  C   C789      1.0  0.13041  0.41810  0.04312  1.0000
  C   C790      1.0  0.14090  0.41760  0.05185  1.0000
  H   H918      1.0  0.15130  0.45208  0.03377  1.0000
  H   H919      1.0  0.13210  0.45330  0.01861  1.0000
  H   H920      1.0  0.12495  0.40845  0.04560  1.0000
  H   H921      1.0  0.14345  0.40759  0.06104  1.0000
  C   C791      1.0  0.03456  0.36200  0.09666  1.0000
  C   C792      1.0  0.02830  0.37766  0.09697  1.0000
  C   C793      1.0  0.03365  0.38924  0.08469  1.0000
  C   C794      1.0  0.04594  0.38526  0.07245  1.0000
  C   C795      1.0  0.05218  0.36960  0.07200  1.0000
  C   C796      1.0  0.04619  0.35798  0.08392  1.0000
  H   H922      1.0  0.01934  0.38091  0.10667  1.0000
  H   H923      1.0  0.02846  0.40131  0.08489  1.0000
  H   H924      1.0  0.06144  0.36646  0.06239  1.0000
  H   H925      1.0  0.05098  0.34587  0.08354  1.0000
  C   C797      1.0  0.22581  0.27467  0.14041  1.0000
  C   C798      1.0  0.22810  0.28976  0.13780  1.0000
  C   C799      1.0  0.21505  0.30230  0.13958  1.0000
  C   C800      1.0  0.19985  0.29967  0.14408  1.0000
  C   C801      1.0  0.19773  0.28458  0.14683  1.0000
  H   H926      1.0  0.32708  0.26990  0.06284  1.0000
  H   H927      1.0  0.23983  0.29173  0.13422  1.0000
  H   H928      1.0  0.21658  0.31397  0.13746  1.0000
  H   H929      1.0  0.17183  0.43832  0.99645  1.0000
  H   H930      1.0  0.48807  0.32335  0.06084  1.0000
  C   C802      1.0  0.34437  0.31062  0.10704  1.0000
  C   C803      1.0  0.33968  0.29783  0.11807  1.0000
  C   C804      1.0  0.32500  0.29483  0.11974  1.0000
  C   C805      1.0  0.31490  0.30461  0.11035  1.0000
  C   C806      1.0  0.31957  0.31741  0.09924  1.0000
  C   C807      1.0  0.33433  0.32038  0.09752  1.0000
  H   H931      1.0  0.47085  0.28740  0.09593  1.0000
  H   H932      1.0  0.32144  0.28504  0.12845  1.0000
  H   H933      1.0  0.31186  0.32487  0.09182  1.0000
  H   H934      1.0  0.33800  0.33009  0.08878  1.0000
  C   C808      1.0  0.46510  0.29279  0.10610  1.0000
  N   N53       1.0  0.33921  0.26771  0.08067  1.0000
  H   H935      1.0  0.12064  0.40142  0.17467  1.0000
  H   H936      1.0  0.26870  0.39747  0.13239  1.0000
  H   H937      1.0  0.34577  0.26267  0.10273  1.0000
  C   C809      1.0  0.39328  0.31609  0.00986  1.0000
  C   C810      1.0  0.39933  0.32904  0.00109  1.0000
  C   C811      1.0  0.40155  0.33938  0.00848  1.0000
  C   C812      1.0  0.39742  0.33702  0.02467  1.0000
  C   C813      1.0  0.39112  0.32422  0.03349  1.0000
  C   C814      1.0  0.38923  0.31365  0.02607  1.0000
  H   H938      1.0  0.40251  0.33098  0.98856  1.0000
  H   H939      1.0  0.40640  0.34930  0.00164  1.0000
  H   H940      1.0  0.38805  0.32230  0.04600  1.0000
  H   H941      1.0  0.38467  0.30364  0.03292  1.0000
  H   H942      1.0  0.05773  0.39166  0.98202  1.0000
  C   C815      1.0  0.11292  0.34009  0.15647  1.0000
  C   C816      1.0  0.42429  0.26317  0.07060  1.0000
  C   C817      1.0  0.43542  0.27217  0.06719  1.0000
  C   C818      1.0  0.40628  0.28569  0.05960  1.0000
  H   H943      1.0  0.06344  0.37600  0.17447  1.0000
  H   H944      1.0  0.33276  0.36804  0.10159  1.0000
  H   H945      1.0  0.36273  0.25343  0.07899  1.0000
  H   H946      1.0  0.24561  0.45157  0.04139  1.0000
  H   H947      1.0  0.31113  0.25047  0.00712  1.0000
  N   N54       1.0  0.44183  0.35085  0.04470  1.0000
  C   C819      1.0  0.43163  0.34179  0.05724  1.0000
  C   C820      1.0  0.43248  0.36693  0.04066  1.0000
  C   C821      1.0  0.44618  0.34411  0.03078  1.0000
  C   C822      1.0  0.45599  0.35003  0.04997  1.0000
  C   C823      1.0  0.45930  0.36319  0.05259  1.0000
  C   C824      1.0  0.46674  0.33560  0.05314  1.0000
  C   C825      1.0  0.47266  0.36191  0.05782  1.0000
  H   H948      1.0  0.42490  0.30103  0.99440  1.0000
  C   C826      1.0  0.99984  0.32272  0.12732  1.0000
  H   H949      1.0  0.42779  0.34668  0.06780  1.0000
  H   H950      1.0  0.42104  0.34178  0.05362  1.0000
  H   H951      1.0  0.43750  0.32942  0.06063  1.0000
  H   H952      1.0  0.42208  0.36715  0.03644  1.0000
  H   H953      1.0  0.43951  0.37445  0.03130  1.0000
  H   H954      1.0  0.42773  0.37230  0.05095  1.0000
  H   H955      1.0  0.45111  0.33138  0.03342  1.0000
  H   H956      1.0  0.43579  0.34558  0.02597  1.0000
  H   H957      1.0  0.45492  0.34975  0.02148  1.0000
  H   H958      1.0  0.45171  0.37460  0.05087  1.0000
  H   H959      1.0  0.46489  0.32504  0.05166  1.0000
  H   H960      1.0  0.29603  0.35863  0.11292  1.0000
  H   H961      1.0  0.11010  0.42191  0.99636  1.0000
  C   C827      1.0  0.20839  0.47825  0.13323  1.0000
  H   H962      1.0  0.99807  0.43683  0.15540  1.0000
  H   H963      1.0  0.33142  0.25308  0.10266  1.0000
  S   S229      1.0  0.49086  0.29052  0.04023  1.0000
  H   H964      1.0  0.32720  0.29525  0.06055  1.0000
  H   H965      1.0  0.33707  0.31886  0.05101  1.0000
  C   C828      1.0  0.23987  0.33216  0.13106  1.0000
  H   H966      1.0  0.35984  0.32113  0.05906  1.0000
  H   H967      1.0  0.13706  0.47614  0.99471  1.0000
  C   C829      1.0  0.30317  0.36207  0.07566  1.0000
  S   S230      1.0  0.00378  0.34460  0.15570  1.0000
  H   H968      1.0  0.31732  0.37862  0.06635  1.0000
  C   C830      1.0  0.30616  0.37824  0.13376  1.0000
  C   C831      1.0  0.40975  0.26990  0.06673  1.0000
  C   C832      1.0  0.11476  0.41639  0.98622  1.0000
  H   H969      1.0  0.99684  0.36262  0.07981  1.0000
  N   N55       1.0  0.04866  0.42113  0.10137  1.0000
  C   C833      1.0  0.04257  0.43029  0.11359  1.0000
  C   C834      1.0  0.03860  0.42777  0.08985  1.0000
  C   C835      1.0  0.04691  0.40491  0.10847  1.0000
  C   C836      1.0  0.06540  0.42133  0.09457  1.0000
  C   C837      1.0  0.07110  0.42772  0.07862  1.0000
  C   C838      1.0  0.07656  0.41518  0.10405  1.0000
  H   H970      1.0  0.04433  0.44238  0.10892  1.0000
  H   H971      1.0  0.02981  0.43100  0.11847  1.0000
  H   H972      1.0  0.04832  0.42510  0.12361  1.0000
  H   H973      1.0  0.03867  0.44024  0.08459  1.0000
  H   H974      1.0  0.02616  0.42716  0.09525  1.0000
  H   H975      1.0  0.04241  0.42129  0.08037  1.0000
  H   H976      1.0  0.05262  0.39961  0.11847  1.0000
  H   H977      1.0  0.06365  0.43243  0.07036  1.0000
  H   H978      1.0  0.07310  0.41021  0.11628  1.0000
  H   H979      1.0  0.47501  0.37207  0.05976  1.0000
  H   H980      1.0  0.04163  0.36815  0.16949  1.0000
  H   H981      1.0  0.10641  0.42172  0.97840  1.0000
  H   H982      1.0  0.45183  0.31627  0.11916  1.0000
  S   S231      1.0  0.47892  0.26786  0.07383  1.0000
  H   H983      1.0  0.28130  0.33181  0.14267  1.0000
  N   N56       1.0  0.48329  0.43543  0.08047  1.0000
  N   N57       1.0  0.08564  0.35866  0.10315  1.0000
  C   C839      1.0  0.08662  0.37016  0.08813  1.0000
  C   C840      1.0  0.09945  0.34551  0.10181  1.0000
  C   C841      1.0  0.07161  0.35232  0.10587  1.0000
  C   C842      1.0  0.08529  0.36623  0.11551  1.0000
  C   C843      1.0  0.07202  0.36870  0.12781  1.0000
  C   C844      1.0  0.09842  0.37172  0.11531  1.0000
  C   C845      1.0  0.07213  0.37595  0.13924  1.0000
  C   C846      1.0  0.09851  0.37874  0.12690  1.0000
  C   C847      1.0  0.08538  0.38081  0.13890  1.0000
  H   H984      1.0  0.09725  0.37499  0.08494  1.0000
  H   H985      1.0  0.08721  0.36489  0.07841  1.0000
  H   H986      1.0  0.07632  0.38012  0.08837  1.0000
  H   H987      1.0  0.11069  0.34924  0.09857  1.0000
  H   H988      1.0  0.10000  0.33972  0.09247  1.0000
  H   H989      1.0  0.09926  0.33658  0.11285  1.0000
  H   H990      1.0  0.06081  0.36169  0.10582  1.0000
  H   H991      1.0  0.07245  0.34633  0.09661  1.0000
  H   H992      1.0  0.07001  0.34362  0.11705  1.0000
  H   H993      1.0  0.06141  0.36509  0.12893  1.0000
  H   H994      1.0  0.10879  0.37054  0.10619  1.0000
  H   H995      1.0  0.26011  0.37020  0.16460  1.0000
  H   H996      1.0  0.10887  0.38257  0.12653  1.0000
  H   H997      1.0  0.08546  0.38619  0.14796  1.0000
  Fe  Fe112     1.0  0.48900  0.38164  0.08590  1.0000
  H   H998      1.0  0.18749  0.44429  0.10255  1.0000
  Fe  Fe113     1.0  0.00491  0.38798  0.14396  1.0000
  H   H999      1.0  0.23525  0.37290  0.15743  1.0000
  H   H1000     1.0  0.43254  0.26846  0.98490  1.0000
  H   H1001     1.0  0.47672  0.23395  0.00460  1.0000
  H   H1002     1.0  0.42708  0.25094  0.07600  1.0000
  H   H1003     1.0  0.23272  0.35568  0.14314  1.0000
  C   C848      1.0  0.27207  0.35062  0.15413  1.0000
  H   H1004     1.0  0.21540  0.45465  0.13181  1.0000
  C   C849      1.0  0.32993  0.35636  0.10656  1.0000
  H   H1005     1.0  0.05202  0.39749  0.09981  1.0000
  C   C850      1.0  0.48962  0.25022  0.00484  1.0000
  H   H1006     1.0  0.34100  0.34749  0.10438  1.0000
  C   C851      1.0  0.20231  0.46846  0.11384  1.0000
  C   C852      1.0  0.19276  0.46584  0.98938  1.0000
  S   S232      1.0  0.20990  0.46779  0.03981  1.0000
  C   C853      1.0  0.29211  0.38927  0.13601  1.0000
  C   C854      1.0  0.27094  0.34047  0.14587  1.0000
  H   H1007     1.0  0.20419  0.47026  0.08310  1.0000
  H   H1008     1.0  0.00312  0.34396  0.10278  1.0000
  H   H1009     1.0  0.27148  0.37793  0.11743  1.0000
  N   N58       1.0  0.44877  0.29592  0.00921  1.0000
  C   C855      1.0  0.44451  0.28105  0.01833  1.0000
  C   C856      1.0  0.46359  0.29647  0.01253  1.0000
  C   C857      1.0  0.43646  0.30894  0.01469  1.0000
  H   H1010     1.0  0.45564  0.30929  0.07979  1.0000
  H   H1011     1.0  0.48794  0.24733  0.01731  1.0000
  C   C858      1.0  0.03733  0.40885  0.16227  1.0000
  C   C859      1.0  0.10221  0.33952  0.14849  1.0000
  H   H1012     1.0  0.32941  0.25045  0.01096  1.0000
  H   H1013     1.0  0.34053  0.26030  0.98516  1.0000
  H   H1014     1.0  0.45351  0.27092  0.01475  1.0000
  H   H1015     1.0  0.44334  0.27977  0.03098  1.0000
  H   H1016     1.0  0.43312  0.28023  0.01687  1.0000
  H   H1017     1.0  0.46214  0.29674  0.02486  1.0000
  H   H1018     1.0  0.46793  0.30695  0.00525  1.0000
  H   H1019     1.0  0.47291  0.28596  0.01066  1.0000
  H   H1020     1.0  0.43785  0.32034  0.00677  1.0000
  H   H1021     1.0  0.42445  0.30762  0.01579  1.0000
  H   H1022     1.0  0.43662  0.30962  0.02652  1.0000
  H   H1023     1.0  0.46141  0.43343  0.09696  1.0000
  C   C860      1.0  0.14112  0.41110  0.98934  1.0000
  C   C861      1.0  0.21215  0.44052  0.11324  1.0000
  H   H1024     1.0  0.21265  0.45027  0.08373  1.0000
  H   H1025     1.0  0.27835  0.33244  0.11739  1.0000
  H   H1026     1.0  0.21395  0.47609  0.14286  1.0000
  H   H1027     1.0  0.42293  0.25240  0.99384  1.0000
  C   C862      1.0  0.35169  0.25480  0.07538  1.0000
  C   C863      1.0  0.45145  0.31467  0.09007  1.0000
  H   H1028     1.0  0.47500  0.41511  0.09500  1.0000
  H   H1029     1.0  0.13633  0.41525  0.00034  1.0000
  S   S233      1.0  0.23544  0.42352  0.14207  1.0000
  N   N59       1.0  0.32267  0.35442  0.12335  1.0000
  H   H1030     1.0  0.30518  0.48075  0.08115  1.0000
  C   C864      1.0  0.01520  0.41643  0.15006  1.0000
  S   S234      1.0  0.17301  0.46980  0.04002  1.0000
  H   H1031     1.0  0.25493  0.31166  0.15277  1.0000
  C   C865      1.0  0.48000  0.33446  0.05849  1.0000
  H   H1032     1.0  0.34519  0.34548  0.12962  1.0000
  H   H1033     1.0  0.35428  0.23490  0.99737  1.0000
  H   H1034     1.0  0.03436  0.40429  0.11307  1.0000
  N   N60       1.0  0.19139  0.38911  0.07124  1.0000
  C   C866      1.0  0.17957  0.39138  0.08567  1.0000
  C   C867      1.0  0.20294  0.37434  0.07482  1.0000
  C   C868      1.0  0.19985  0.40194  0.06635  1.0000
  C   C869      1.0  0.18357  0.38838  0.05943  1.0000
  C   C870      1.0  0.17473  0.37693  0.06259  1.0000
  C   C871      1.0  0.18427  0.39891  0.04472  1.0000
  C   C872      1.0  0.16691  0.37625  0.05181  1.0000
  C   C873      1.0  0.17630  0.39820  0.03408  1.0000
  C   C874      1.0  0.16759  0.38693  0.03764  1.0000
  H   H1035     1.0  0.17000  0.40178  0.08332  1.0000
  H   H1036     1.0  0.17396  0.38134  0.09116  1.0000
  H   H1037     1.0  0.18473  0.39299  0.09457  1.0000
  H   H1038     1.0  0.19736  0.36419  0.07973  1.0000
  H   H1039     1.0  0.20916  0.37459  0.08355  1.0000
  H   H1040     1.0  0.21186  0.37207  0.06417  1.0000
  H   H1041     1.0  0.19170  0.41344  0.06415  1.0000
  H   H1042     1.0  0.20563  0.40214  0.07546  1.0000
  H   H1043     1.0  0.20925  0.40086  0.05573  1.0000
  H   H1044     1.0  0.17354  0.36859  0.07354  1.0000
  H   H1045     1.0  0.19038  0.40820  0.04136  1.0000
  H   H1046     1.0  0.16002  0.36756  0.05455  1.0000
  H   H1047     1.0  0.17650  0.40675  0.02319  1.0000
  H   H1048     1.0  0.16113  0.38664  0.02952  1.0000
  H   H1049     1.0  0.27421  0.31153  0.14061  1.0000
  C   C875      1.0  0.30538  0.37731  0.07093  1.0000
  H   H1050     1.0  0.28673  0.41061  0.04565  1.0000
  C   C876      1.0  0.27533  0.37164  0.08329  1.0000
  C   C877      1.0  0.34459  0.28250  0.07464  1.0000
  H   H1051     1.0  0.31876  0.40232  0.06665  1.0000
  H   H1052     1.0  0.23518  0.34376  0.12420  1.0000
  H   H1053     1.0  0.29715  0.40698  0.08921  1.0000
  C   C878      1.0  0.33550  0.26415  0.09782  1.0000
  C   C879      1.0  0.33716  0.29548  0.06451  1.0000
  C   C880      1.0  0.34271  0.30921  0.05893  1.0000
  H   H1054     1.0  0.35439  0.25673  0.06257  1.0000
  H   H1055     1.0  0.47900  0.42565  0.11311  1.0000
  Fe  Fe114     1.0  0.18652  0.47136  0.05625  1.0000
  C   C881      1.0  0.45000  0.29697  0.99257  1.0000
  H   H1056     1.0  0.32617  0.27360  0.10226  1.0000
  C   C882      1.0  0.00901  0.42899  0.15733  1.0000
  C   C883      1.0  0.31046  0.40817  0.05889  1.0000
  C   C884      1.0  0.29246  0.39026  0.07199  1.0000
  H   H1057     1.0  0.31462  0.40320  0.04836  1.0000
  C   C885      1.0  0.09238  0.41544  0.09797  1.0000
  H   H1058     1.0  0.26361  0.36952  0.08793  1.0000
  H   H1059     1.0  0.47567  0.29174  0.98520  1.0000
  H   H1060     1.0  0.44371  0.24907  0.98709  1.0000
  C   C886      1.0  0.24521  0.36378  0.15422  1.0000
  C   C887      1.0  0.27741  0.38691  0.07859  1.0000
  C   C888      1.0  0.08691  0.42810  0.07272  1.0000
  C   C889      1.0  0.32498  0.26796  0.07568  1.0000
  C   C890      1.0  0.35769  0.28426  0.07888  1.0000
  C   C891      1.0  0.33450  0.35493  0.13136  1.0000
  C   C892      1.0  0.43178  0.28804  0.06049  1.0000
  H   H1061     1.0  0.36409  0.27489  0.08640  1.0000
  S   S235      1.0  0.44599  0.29906  0.05563  1.0000
  H   H1062     1.0  0.31142  0.42056  0.05511  1.0000
  H   H1063     1.0  0.09107  0.43298  0.06050  1.0000
  H   H1064     1.0  0.28654  0.34741  0.08509  1.0000
  H   H1065     1.0  0.10522  0.34168  0.13595  1.0000
  H   H1066     1.0  0.47318  0.29970  0.10652  1.0000
  H   H1067     1.0  0.31487  0.27701  0.07983  1.0000
  H   H1068     1.0  0.32296  0.26215  0.97907  1.0000
  H   H1069     1.0  0.26707  0.39613  0.08003  1.0000
  C   C893      1.0  0.28818  0.35924  0.08173  1.0000
  C   C894      1.0  0.26590  0.33410  0.11707  1.0000
  C   C895      1.0  0.47048  0.42708  0.08865  1.0000
  N   N61       1.0  0.33150  0.23937  0.99238  1.0000
  H   H1070     1.0  0.22279  0.46202  0.08827  1.0000
  C   C896      1.0  0.09753  0.42194  0.08234  1.0000
  N   N62       1.0  0.25591  0.33078  0.13282  1.0000
  S   S236      1.0  0.20082  0.47459  0.99904  1.0000
  H   H1071     1.0  0.20875  0.26061  0.14688  1.0000
  H   H1072     1.0  0.44052  0.30175  0.12907  1.0000
  H   H1073     1.0  0.41840  0.31402  0.10327  1.0000
  C   C897      1.0  0.34609  0.23314  0.03597  1.0000
  C   C898      1.0  0.44329  0.31033  0.11800  1.0000
  C   C899      1.0  0.48796  0.43219  0.10739  1.0000
  S   S237      1.0  0.99367  0.37788  0.13152  1.0000
  C   C900      1.0  0.43810  0.29393  0.10433  1.0000
  H   H1074     1.0  0.45392  0.27089  0.10475  1.0000
  H   H1075     1.0  0.48843  0.42350  0.06183  1.0000
  H   H1076     1.0  0.06189  0.37770  0.14849  1.0000
  H   H1077     1.0  0.26034  0.30607  0.13442  1.0000
  H   H1078     1.0  0.39513  0.29085  0.05641  1.0000
  S   S238      1.0  0.02691  0.36941  0.14353  1.0000
  H   H1079     1.0  0.31271  0.33719  0.14172  1.0000
  H   H1080     1.0  0.44036  0.32324  0.08864  1.0000
  H   H1081     1.0  0.23959  0.32362  0.12468  1.0000
  C   C901      1.0  0.26158  0.31439  0.14055  1.0000
  C   C902      1.0  0.25674  0.34153  0.14175  1.0000
  S   S239      1.0  0.39612  0.25846  0.07044  1.0000
  H   H1082     1.0  0.28297  0.34958  0.15725  1.0000
  N   N63       1.0  0.29425  0.40658  0.06692  1.0000
  C   C903      1.0  0.42239  0.30170  0.10365  1.0000
  H   H1083     1.0  0.26183  0.34626  0.11088  1.0000
  H   H1084     1.0  0.34740  0.29027  0.12548  1.0000
  C   C904      1.0  0.28971  0.41353  0.08067  1.0000
  H   H1085     1.0  0.10074  0.41070  0.10540  1.0000
  H   H1086     1.0  0.18603  0.28247  0.15028  1.0000
  H   H1087     1.0  0.29090  0.42585  0.07745  1.0000
  H   H1088     1.0  0.10980  0.42219  0.07761  1.0000
  H   H1089     1.0  0.32129  0.25666  0.08041  1.0000
  H   H1090     1.0  0.46832  0.45821  0.07956  1.0000
  H   H1091     1.0  0.32984  0.35348  0.14410  1.0000
  C   C905      1.0  0.28403  0.41574  0.05596  1.0000
  H   H1092     1.0  0.31196  0.33640  0.12263  1.0000
  H   H1093     1.0  0.28533  0.42803  0.05176  1.0000
  H   H1094     1.0  0.18295  0.45069  0.01016  1.0000
  C   C906      1.0  0.28125  0.37799  0.12190  1.0000
  C   C907      1.0  0.02937  0.40637  0.15253  1.0000
  N   N64       1.0  0.20323  0.45588  0.10628  1.0000
  H   H1095     1.0  0.27735  0.41358  0.08682  1.0000
  C   C908      1.0  0.43244  0.25657  0.98437  1.0000
  H   H1096     1.0  0.27143  0.41643  0.06128  1.0000
  H   H1097     1.0  0.20667  0.43651  0.12568  1.0000
  C   C909      1.0  0.29529  0.36693  0.11952  1.0000
  H   H1098     1.0  0.26177  0.46576  0.04759  1.0000
  C   C910      1.0  0.48339  0.24252  0.99761  1.0000
  C   C911      1.0  0.21105  0.45980  0.08966  1.0000
  C   C912      1.0  0.04608  0.42064  0.99130  1.0000
  C   C913      1.0  0.31908  0.33874  0.12936  1.0000
  H   H1099     1.0  0.18068  0.45208  0.11972  1.0000
  H   H1100     1.0  0.37288  0.29914  0.07706  1.0000
  H   H1101     1.0  0.43244  0.31945  0.11687  1.0000
  C   C914      1.0  0.24391  0.35366  0.14603  1.0000
  H   H1102     1.0  0.29095  0.39819  0.14216  1.0000
  C   C915      1.0  0.41596  0.27798  0.10346  1.0000
  C   C916      1.0  0.47626  0.45075  0.07159  1.0000
  H   H1103     1.0  0.41438  0.30710  0.05153  1.0000
  C   C917      1.0  0.06456  0.43406  0.99291  1.0000
  H   H1104     1.0  0.46446  0.28349  0.11689  1.0000
  C   C918      1.0  0.43125  0.26998  0.10414  1.0000
  H   H1105     1.0  0.32222  0.35510  0.09979  1.0000
  C   C919      1.0  0.48293  0.34761  0.06081  1.0000
  H   H1106     1.0  0.12520  0.44081  0.98427  1.0000
  C   C920      1.0  0.27963  0.38903  0.13029  1.0000
  H   H1107     1.0  0.26573  0.32616  0.10995  1.0000
  H   H1108     1.0  0.33858  0.36600  0.12679  1.0000
  H   H1109     1.0  0.05162  0.42031  0.01264  1.0000
  C   C921      1.0  0.05383  0.42464  0.00014  1.0000
  H   H1110     1.0  0.31316  0.35240  0.07440  1.0000
  H   H1111     1.0  0.12387  0.34299  0.14963  1.0000
  S   S240      1.0  0.47391  0.26239  0.04211  1.0000
  H   H1112     1.0  0.39961  0.29999  0.10263  1.0000
  C   C922      1.0  0.10954  0.33706  0.17293  1.0000
  H   H1113     1.0  0.31533  0.37930  0.13843  1.0000
  H   H1114     1.0  0.40758  0.27198  0.10279  1.0000
  C   C923      1.0  0.17805  0.44740  0.98996  1.0000
  C   C924      1.0  0.36298  0.29808  0.07341  1.0000
  H   H1115     1.0  0.22447  0.44084  0.11236  1.0000
  H   H1116     1.0  0.15294  0.41374  0.98471  1.0000
  Fe  Fe115     1.0  0.46909  0.28227  0.05347  1.0000
  H   H1117     1.0  0.03427  0.39676  0.14683  1.0000
  H   H1118     1.0  0.32994  0.32936  0.12873  1.0000
  C   C925      1.0  0.03088  0.42107  0.16999  1.0000
  H   H1119     1.0  0.03789  0.41313  0.99695  1.0000
  H   H1120     1.0  0.39335  0.24024  0.99084  1.0000
  C   C926      1.0  0.35558  0.31050  0.06337  1.0000
  H   H1121     1.0  0.14256  0.39823  0.99228  1.0000
  C   C927      1.0  0.41152  0.29380  0.10325  1.0000
  H   H1122     1.0  0.18028  0.46466  0.10086  1.0000
  H   H1123     1.0  0.23166  0.33004  0.14256  1.0000
  H   H1124     1.0  0.21271  0.43130  0.10729  1.0000
  H   H1125     1.0  0.43471  0.25773  0.10397  1.0000
  C   C928      1.0  0.06768  0.43944  0.97678  1.0000
  C   C929      1.0  0.30810  0.36653  0.12564  1.0000
  C   C930      1.0  0.08768  0.33636  0.15658  1.0000
  Fe  Fe116     1.0  0.48613  0.24856  0.06126  1.0000
  C   C931      1.0  0.43636  0.29986  0.98678  1.0000
  C   C932      1.0  0.33416  0.25403  0.98110  1.0000
  C   C933      1.0  0.07017  0.38772  0.97799  1.0000
  H   H1126     1.0  0.00331  0.33313  0.12803  1.0000
  H   H1127     1.0  0.48527  0.45717  0.06390  1.0000
  N   N65       1.0  0.13078  0.41855  0.97817  1.0000
  H   H1128     1.0  0.11459  0.40388  0.99076  1.0000
  H   H1129     1.0  0.07930  0.33611  0.15039  1.0000
  C   C934      1.0  0.08384  0.33369  0.17270  1.0000
  C   C935      1.0  0.49172  0.43768  0.09100  1.0000
  H   H1130     1.0  0.00790  0.31822  0.11722  1.0000
  C   C936      1.0  0.25922  0.36226  0.15829  1.0000
  C   C937      1.0  0.01673  0.43118  0.16749  1.0000
  H   H1131     1.0  0.01181  0.44075  0.17327  1.0000
  Fe  Fe117     1.0  0.01399  0.35757  0.16632  1.0000
  H   H1132     1.0  0.12750  0.35812  0.16491  1.0000
  H   H1133     1.0  0.07059  0.43711  0.99986  1.0000
  H   H1134     1.0  0.34804  0.24347  0.08004  1.0000
  H   H1135     1.0  0.46937  0.44951  0.06394  1.0000
  C   C938      1.0  0.32320  0.24353  0.00751  1.0000
  S   S241      1.0  0.38326  0.24082  0.04384  1.0000
  H   H1136     1.0  0.22616  0.24498  0.17375  1.0000
  S   S242      1.0  0.28256  0.23636  0.14115  1.0000
  H   H1137     1.0  0.04827  0.40106  0.16420  1.0000
  H   H1138     1.0  0.38261  0.29176  0.97754  1.0000
  H   H1139     1.0  0.25087  0.25151  0.16662  1.0000
  H   H1140     1.0  0.40750  0.27780  0.98392  1.0000
  H   H1141     1.0  0.14181  0.33104  0.16350  1.0000
  H   H1142     1.0  0.15558  0.47840  0.00862  1.0000
  H   H1143     1.0  0.36889  0.23423  0.02119  1.0000
  H   H1144     1.0  0.32232  0.23320  0.01720  1.0000
  H   H1145     1.0  0.26675  0.23980  0.17520  1.0000
  S   S243      1.0  0.99291  0.37719  0.16768  1.0000
  Fe  Fe118     1.0  0.07637  0.42635  0.32090  1.0000
  S   S244      1.0  0.05156  0.42487  0.33229  1.0000
  S   S245      1.0  0.09208  0.40458  0.31387  1.0000
  Fe  Fe119     1.0  0.07136  0.45918  0.32531  1.0000
  S   S246      1.0  0.04622  0.46018  0.33732  1.0000
  Fe  Fe120     1.0  0.05472  0.43573  0.34977  1.0000
  N   N66       1.0  0.05953  0.46923  0.24364  1.0000
  Fe  Fe121     1.0  0.04546  0.44926  0.31884  1.0000
  S   S247      1.0  0.02555  0.45825  0.30679  1.0000
  S   S248      1.0  0.08015  0.43555  0.33948  1.0000
  S   S249      1.0  0.06997  0.44995  0.30573  1.0000
  S   S250      1.0  0.03358  0.44730  0.21369  1.0000
  H   H1146     1.0  0.07742  0.47692  0.24887  1.0000
  H   H1147     1.0  0.01264  0.40262  0.19106  1.0000
  C   C939      1.0  0.02854  0.40415  0.30709  1.0000
  Fe  Fe122     1.0  0.09391  0.37535  0.24372  1.0000
  S   S251      1.0  0.10077  0.35261  0.25986  1.0000
  S   S252      1.0  0.09566  0.39847  0.24616  1.0000
  Fe  Fe123     1.0  0.08368  0.36034  0.22337  1.0000
  S   S253      1.0  0.08937  0.33639  0.23817  1.0000
  S   S254      1.0  0.07884  0.36603  0.19949  1.0000
  Fe  Fe124     1.0  0.07840  0.34823  0.25820  1.0000
  S   S255      1.0  0.06281  0.34019  0.28110  1.0000
  Fe  Fe125     1.0  0.11103  0.34315  0.23841  1.0000
  S   S256      1.0  0.13478  0.32778  0.23281  1.0000
  S   S257      1.0  0.07079  0.37175  0.24333  1.0000
  S   S258      1.0  0.10610  0.36628  0.22228  1.0000
  Fe  Fe126     1.0  0.08111  0.26957  0.35520  1.0000
  S   S259      1.0  0.09826  0.26817  0.33255  1.0000
  C   C940      1.0  0.07444  0.40414  0.19838  1.0000
  H   H1148     1.0  0.10581  0.34052  0.20317  1.0000
  Fe  Fe127     1.0  0.10680  0.24331  0.34415  1.0000
  Fe  Fe128     1.0  0.08063  0.25905  0.32707  1.0000
  S   S260      1.0  0.07494  0.26713  0.30352  1.0000
  S   S261      1.0  0.06269  0.26230  0.34880  1.0000
  C   C941      1.0  0.01015  0.38271  0.21977  1.0000
  H   H1149     1.0  0.11267  0.24960  0.30067  1.0000
  C   C942      1.0  0.06558  0.31992  0.28729  1.0000
  C   C943      1.0  0.06988  0.31053  0.27653  1.0000
  C   C944      1.0  0.07218  0.29432  0.28166  1.0000
  C   C945      1.0  0.07069  0.28745  0.29750  1.0000
  C   C946      1.0  0.06647  0.29683  0.30827  1.0000
  C   C947      1.0  0.06367  0.31308  0.30318  1.0000
  H   H1150     1.0  0.07112  0.31575  0.26429  1.0000
  H   H1151     1.0  0.07538  0.28708  0.27332  1.0000
  H   H1152     1.0  0.06543  0.29158  0.32051  1.0000
  H   H1153     1.0  0.06043  0.32031  0.31153  1.0000
  C   C948      1.0  0.15994  0.36111  0.19386  1.0000
  C   C949      1.0  0.16225  0.34572  0.19270  1.0000
  C   C950      1.0  0.15558  0.33500  0.20526  1.0000
  C   C951      1.0  0.14619  0.33984  0.21869  1.0000
  C   C952      1.0  0.14445  0.35503  0.22002  1.0000
  C   C953      1.0  0.15149  0.36557  0.20771  1.0000
  H   H1154     1.0  0.04868  0.47257  0.21668  1.0000
  H   H1155     1.0  0.15716  0.32317  0.20431  1.0000
  H   H1156     1.0  0.13750  0.35873  0.23051  1.0000
  C   C954      1.0  0.03874  0.35128  0.19105  1.0000
  H   H1157     1.0  0.09064  0.33210  0.19329  1.0000
  H   H1158     1.0  0.09344  0.42401  0.21778  1.0000
  C   C955      1.0  0.06317  0.36036  0.19674  1.0000
  C   C956      1.0  0.05611  0.34901  0.20780  1.0000
  C   C957      1.0  0.04393  0.34445  0.20492  1.0000
  C   C958      1.0  0.00519  0.41363  0.29664  1.0000
  N   N67       1.0  0.11534  0.40903  0.19617  1.0000
  H   H1159     1.0  0.06006  0.34371  0.21851  1.0000
  H   H1160     1.0  0.03851  0.33562  0.21346  1.0000
  C   C959      1.0  0.05797  0.36718  0.18292  1.0000
  H   H1161     1.0  0.03670  0.47781  0.36177  1.0000
  N   N68       1.0  0.01896  0.29780  0.36231  1.0000
  C   C960      1.0  0.02883  0.44786  0.29253  1.0000
  C   C961      1.0  0.99259  0.37441  0.20995  1.0000
  C   C962      1.0  0.04571  0.36274  0.18009  1.0000
  C   C963      1.0  0.05845  0.36930  0.37471  1.0000
  C   C964      1.0  0.04546  0.42861  0.27817  1.0000
  C   C965      1.0  0.04249  0.43638  0.29010  1.0000
  H   H1162     1.0  0.04195  0.36287  0.29921  1.0000
  S   S262      1.0  0.08062  0.48104  0.31758  1.0000
  H   H1163     1.0  0.05612  0.41994  0.27618  1.0000
  H   H1164     1.0  0.05084  0.43355  0.29731  1.0000
  C   C966      1.0  0.09361  0.40318  0.29482  1.0000
  C   C967      1.0  0.08782  0.41601  0.28394  1.0000
  C   C968      1.0  0.08877  0.41450  0.26893  1.0000
  C   C969      1.0  0.09504  0.40005  0.26490  1.0000
  C   C970      1.0  0.10085  0.38720  0.27576  1.0000
  C   C971      1.0  0.10033  0.38883  0.29062  1.0000
  H   H1165     1.0  0.08269  0.42712  0.28703  1.0000
  H   H1166     1.0  0.08435  0.42446  0.26053  1.0000
  H   H1167     1.0  0.10606  0.37611  0.27262  1.0000
  H   H1168     1.0  0.10495  0.37890  0.29896  1.0000
  C   C972      1.0  0.01806  0.45135  0.28319  1.0000
  H   H1169     1.0  0.09678  0.39645  0.18503  1.0000
  C   C973      1.0  0.11651  0.33251  0.19825  1.0000
  C   C974      1.0  0.05988  0.38272  0.28092  1.0000
  H   H1170     1.0  0.00940  0.36958  0.25876  1.0000
  H   H1171     1.0  0.99402  0.42167  0.29607  1.0000
  H   H1172     1.0  0.06871  0.39901  0.19286  1.0000
  S   S263      1.0  0.07216  0.29163  0.36405  1.0000
  C   C975      1.0  0.02148  0.27325  0.35322  1.0000
  C   C976      1.0  0.12069  0.25736  0.29710  1.0000
  H   H1173     1.0  0.13909  0.24002  0.30634  1.0000
  H   H1174     1.0  0.11083  0.31330  0.25795  1.0000
  C   C977      1.0  0.03474  0.43210  0.26875  1.0000
  H   H1175     1.0  0.12424  0.29530  0.25540  1.0000
  H   H1176     1.0  0.13626  0.30995  0.28336  1.0000
  C   C978      1.0  0.13219  0.30942  0.27325  1.0000
  H   H1177     1.0  0.99390  0.30531  0.36645  1.0000
  H   H1178     1.0  0.02981  0.38512  0.27961  1.0000
  C   C979      1.0  0.00729  0.39271  0.19250  1.0000
  S   S264      1.0  0.00101  0.44980  0.20319  1.0000
  H   H1179     1.0  0.12756  0.32168  0.26763  1.0000
  C   C980      1.0  0.12326  0.35371  0.17753  1.0000
  H   H1180     1.0  0.11268  0.43340  0.19480  1.0000
  C   C981      1.0  0.01382  0.41406  0.30675  1.0000
  H   H1181     1.0  0.22442  0.24295  0.19417  1.0000
  H   H1182     1.0  0.10905  0.34572  0.35123  1.0000
  C   C982      1.0  0.02105  0.44352  0.27125  1.0000
  C   C983      1.0  0.07257  0.41879  0.21698  1.0000
  H   H1183     1.0  0.00742  0.46013  0.28515  1.0000
  C   C984      1.0  0.06048  0.38381  0.36557  1.0000
  H   H1184     1.0  0.00381  0.31919  0.36773  1.0000
  C   C985      1.0  0.04860  0.36708  0.30504  1.0000
  H   H1185     1.0  0.03345  0.30006  0.33912  1.0000
  H   H1186     1.0  0.13191  0.35463  0.18351  1.0000
  H   H1187     1.0  0.06558  0.42450  0.22628  1.0000
  H   H1188     1.0  0.07993  0.45637  0.25286  1.0000
  H   H1189     1.0  0.01267  0.44623  0.26418  1.0000
  H   H1190     1.0  0.04832  0.37852  0.22131  1.0000
  C   C986      1.0  0.12587  0.28346  0.28523  1.0000
  H   H1191     1.0  0.15716  0.25775  0.29875  1.0000
  C   C987      1.0  0.01112  0.40309  0.28700  1.0000
  Fe  Fe129     1.0  0.02458  0.43357  0.20287  1.0000
  H   H1192     1.0  0.03690  0.47099  0.25908  1.0000
  H   H1193     1.0  0.04910  0.48115  0.26263  1.0000
  C   C988      1.0  0.07592  0.46736  0.24463  1.0000
  C   C989      1.0  0.10688  0.30711  0.28921  1.0000
  H   H1194     1.0  0.13519  0.31509  0.17782  1.0000
  Fe  Fe130     1.0  0.00933  0.46207  0.21618  1.0000
  H   H1195     1.0  0.11045  0.30651  0.30001  1.0000
  H   H1196     1.0  0.05304  0.41228  0.21378  1.0000
  H   H1197     1.0  0.10456  0.29560  0.26654  1.0000
  H   H1198     1.0  0.00450  0.40295  0.27896  1.0000
  C   C990      1.0  0.13553  0.25197  0.30031  1.0000
  H   H1199     1.0  0.02193  0.31798  0.34371  1.0000
  C   C991      1.0  0.01412  0.37326  0.24646  1.0000
  H   H1200     1.0  0.06005  0.39467  0.27373  1.0000
  N   N69       1.0  0.05076  0.38298  0.29706  1.0000
  H   H1201     1.0  0.01255  0.30511  0.34007  1.0000
  H   H1202     1.0  0.03196  0.38624  0.20272  1.0000
  H   H1203     1.0  0.09976  0.37785  0.35812  1.0000
  H   H1204     1.0  0.04207  0.36661  0.31728  1.0000
  C   C992      1.0  0.12235  0.40427  0.21000  1.0000
  Fe  Fe131     1.0  0.99403  0.43465  0.22665  1.0000
  H   H1205     1.0  0.11449  0.32050  0.20180  1.0000
  C   C993      1.0  0.12401  0.39785  0.18608  1.0000
  C   C994      1.0  0.02173  0.25739  0.35655  1.0000
  H   H1206     1.0  0.11990  0.39295  0.21733  1.0000
  C   C995      1.0  0.14568  0.26202  0.29603  1.0000
  H   H1207     1.0  0.01956  0.23667  0.37443  1.0000
  H   H1208     1.0  0.03745  0.36995  0.24938  1.0000
  H   H1209     1.0  0.05526  0.38613  0.31776  1.0000
  H   H1210     1.0  0.08401  0.46710  0.23308  1.0000
  C   C996      1.0  0.00434  0.37781  0.23595  1.0000
  C   C997      1.0  0.03181  0.29893  0.36852  1.0000
  H   H1211     1.0  0.06191  0.44427  0.24926  1.0000
  H   H1212     1.0  0.16904  0.34213  0.18212  1.0000
  S   S265      1.0  0.02362  0.34519  0.18769  1.0000
  H   H1213     1.0  0.10201  0.31951  0.28424  1.0000
  H   H1214     1.0  0.03468  0.40540  0.31496  1.0000
  C   C998      1.0  0.08863  0.41819  0.21217  1.0000
  C   C999      1.0  0.11471  0.30101  0.26392  1.0000
  H   H1215     1.0  0.05280  0.46051  0.26831  1.0000
  H   H1216     1.0  0.03365  0.31098  0.36553  1.0000
  N   N70       1.0  0.12016  0.29996  0.27800  1.0000
  H   H1217     1.0  0.05565  0.45673  0.36912  1.0000
  C   C1000     1.0  0.03602  0.37824  0.22540  1.0000
  H   H1218     1.0  0.02434  0.25147  0.34717  1.0000
  H   H1219     1.0  0.07690  0.41953  0.37224  1.0000
  C   C1001     1.0  0.02181  0.30551  0.34555  1.0000
  H   H1220     1.0  0.99893  0.39687  0.18467  1.0000
  H   H1221     1.0  0.06176  0.39953  0.30000  1.0000
  H   H1222     1.0  0.05519  0.37671  0.27493  1.0000
  C   C1002     1.0  0.11591  0.27283  0.28968  1.0000
  C   C1003     1.0  0.09828  0.40975  0.20086  1.0000
  H   H1223     1.0  0.11266  0.42875  0.17715  1.0000
  C   C1004     1.0  0.02993  0.37347  0.24119  1.0000
  H   H1224     1.0  0.14242  0.30485  0.26453  1.0000
  H   H1225     1.0  0.05041  0.39314  0.36358  1.0000
  H   H1226     1.0  0.14944  0.28470  0.28567  1.0000
  S   S266      1.0  0.01697  0.41743  0.22539  1.0000
  C   C1005     1.0  0.14102  0.27756  0.28856  1.0000
  H   H1227     1.0  0.07755  0.47312  0.35089  1.0000
  H   H1228     1.0  0.02408  0.27885  0.34108  1.0000
  H   H1229     1.0  0.07224  0.37630  0.28055  1.0000
  H   H1230     1.0  0.04295  0.29136  0.36379  1.0000
  C   C1006     1.0  0.11797  0.42464  0.18751  1.0000
  S   S267      1.0  0.00020  0.44833  0.23965  1.0000
  H   H1231     1.0  0.07228  0.37976  0.30423  1.0000
  H   H1232     1.0  0.13526  0.40302  0.20672  1.0000
  C   C1007     1.0  0.04918  0.47058  0.25903  1.0000
  H   H1233     1.0  0.09706  0.30109  0.29277  1.0000
  H   H1234     1.0  0.01648  0.38310  0.18816  1.0000
  C   C1008     1.0  0.22905  0.23665  0.18455  1.0000
  C   C1009     1.0  0.01848  0.28123  0.36530  1.0000
  C   C1010     1.0  0.06033  0.38737  0.30511  1.0000
  C   C1011     1.0  0.02639  0.38271  0.21477  1.0000
  Fe  Fe132     1.0  0.02391  0.43255  0.23629  1.0000
  H   H1235     1.0  0.10417  0.27646  0.28774  1.0000
  S   S268      1.0  0.03899  0.42224  0.25379  1.0000
  C   C1012     1.0  0.02578  0.39306  0.28731  1.0000
  C   C1013     1.0  0.03516  0.39358  0.29705  1.0000
  H   H1236     1.0  0.15013  0.37728  0.20881  1.0000
  H   H1237     1.0  0.06004  0.35857  0.30506  1.0000
  C   C1014     1.0  0.09062  0.40291  0.19389  1.0000
  N   N71       1.0  0.99947  0.38756  0.20894  1.0000
  H   H1238     1.0  0.04618  0.45498  0.24010  1.0000
  H   H1239     1.0  0.09227  0.32850  0.37376  1.0000
  H   H1240     1.0  0.11789  0.41276  0.21758  1.0000
  H   H1241     1.0  0.11199  0.36176  0.18131  1.0000
  C   C1015     1.0  0.06550  0.41177  0.21010  1.0000
  S   S269      1.0  0.04038  0.42294  0.18322  1.0000
  H   H1242     1.0  0.12215  0.38592  0.19185  1.0000
  H   H1243     1.0  0.07702  0.39789  0.35248  1.0000
  C   C1016     1.0  0.00397  0.30658  0.37019  1.0000
  C   C1017     1.0  0.11352  0.34685  0.36085  1.0000
  S   S270      1.0  0.09062  0.23400  0.33660  1.0000
  H   H1244     1.0  0.25005  0.25100  0.18632  1.0000
  H   H1245     1.0  0.12568  0.33252  0.20402  1.0000
  H   H1246     1.0  0.00932  0.42251  0.31400  1.0000
  S   S271      1.0  0.16664  0.37524  0.17795  1.0000
  Fe  Fe133     1.0  0.07421  0.23806  0.35898  1.0000
  N   N72       1.0  0.12116  0.33756  0.18111  1.0000
  H   H1247     1.0  0.12345  0.33677  0.36286  1.0000
  C   C1018     1.0  0.05841  0.45474  0.24025  1.0000
  S   S272      1.0  0.09116  0.24552  0.36747  1.0000
  H   H1248     1.0  0.00821  0.47298  0.24285  1.0000
  C   C1019     1.0  0.07548  0.38651  0.35940  1.0000
  H   H1249     1.0  0.06617  0.45270  0.22898  1.0000
  H   H1250     1.0  0.14528  0.32689  0.18232  1.0000
  C   C1020     1.0  0.25380  0.24370  0.17756  1.0000
  C   C1021     1.0  0.09455  0.33400  0.18083  1.0000
  S   S273      1.0  0.29706  0.24083  0.17630  1.0000
  C   C1022     1.0  0.08850  0.37481  0.36256  1.0000
  H   H1251     1.0  0.11874  0.35724  0.35676  1.0000
  C   C1023     1.0  0.08691  0.35976  0.37156  1.0000
  H   H1252     1.0  0.13688  0.39698  0.18337  1.0000
  H   H1253     1.0  0.13068  0.42460  0.18343  1.0000
  C   C1024     1.0  0.01911  0.24902  0.37186  1.0000
  H   H1254     1.0  0.00192  0.36404  0.20752  1.0000
  H   H1255     1.0  0.07238  0.33155  0.17899  1.0000
  S   S274      1.0  0.04344  0.42697  0.37462  1.0000
  N   N73       1.0  0.10087  0.34763  0.37507  1.0000
  S   S275      1.0  0.13251  0.23204  0.34033  1.0000
  C   C1025     1.0  0.13644  0.32723  0.17595  1.0000
  H   H1256     1.0  0.26509  0.23191  0.20159  1.0000
  H   H1257     1.0  0.99214  0.37754  0.24061  1.0000
  Fe  Fe134     1.0  0.04930  0.33894  0.44288  1.0000
  S   S276      1.0  0.06391  0.31654  0.45325  1.0000
  S   S277      1.0  0.02355  0.34039  0.44670  1.0000
  Fe  Fe135     1.0  0.07686  0.35434  0.42939  1.0000
  S   S278      1.0  0.09372  0.33307  0.43883  1.0000
  S   S279      1.0  0.08704  0.37468  0.41450  1.0000
  Fe  Fe136     1.0  0.08122  0.32017  0.43062  1.0000
  S   S280      1.0  0.09515  0.30041  0.41900  1.0000
  Fe  Fe137     1.0  0.07488  0.33158  0.46055  1.0000
  S   S281      1.0  0.07791  0.32302  0.48530  1.0000
  S   S282      1.0  0.06575  0.34158  0.41951  1.0000
  S   S283      1.0  0.05885  0.35390  0.45182  1.0000
  Fe  Fe138     1.0  0.07481  0.35798  0.55208  1.0000
  H   H1258     1.0  0.10909  0.36340  0.38286  1.0000
  S   S284      1.0  0.08587  0.36416  0.52646  1.0000
  H   H1259     1.0  0.05778  0.46576  0.40530  1.0000
  C   C1026     1.0  0.03901  0.31599  0.51112  1.0000
  H   H1260     1.0  0.03273  0.25872  0.46073  1.0000
  H   H1261     1.0  0.11821  0.42868  0.55106  1.0000
  S   S285      1.0  0.05614  0.34429  0.56143  1.0000
  H   H1262     1.0  0.09393  0.38016  0.56317  1.0000
  H   H1263     1.0  0.99997  0.32533  0.46991  1.0000
  H   H1264     1.0  0.00587  0.34320  0.50639  1.0000
  H   H1265     1.0  0.04905  0.27773  0.45592  1.0000
  H   H1266     1.0  0.05838  0.27393  0.50590  1.0000
  H   H1267     1.0  0.05333  0.37382  0.49181  1.0000
  C   C1027     1.0  0.05332  0.28728  0.56926  1.0000
  C   C1028     1.0  0.05188  0.25683  0.42315  1.0000
  C   C1029     1.0  0.02060  0.32783  0.43700  1.0000
  H   H1268     1.0  0.06808  0.46124  0.37849  1.0000
  C   C1030     1.0  0.03333  0.31826  0.42917  1.0000
  S   S286      1.0  0.01676  0.28444  0.51279  1.0000
  N   N74       1.0  0.04384  0.46471  0.39034  1.0000
  S   S287      1.0  0.01259  0.29485  0.41256  1.0000
  C   C1031     1.0  0.08822  0.29737  0.40435  1.0000
  C   C1032     1.0  0.09699  0.28574  0.39628  1.0000
  H   H1269     1.0  0.08109  0.26744  0.56310  1.0000
  H   H1270     1.0  0.09900  0.39174  0.54403  1.0000
  C   C1033     1.0  0.06944  0.30465  0.38804  1.0000
  C   C1034     1.0  0.07428  0.30661  0.40039  1.0000
  H   H1271     1.0  0.10776  0.27851  0.39936  1.0000
  H   H1272     1.0  0.10066  0.37146  0.54662  1.0000
  H   H1273     1.0  0.06731  0.31539  0.40671  1.0000
  C   C1035     1.0  0.07486  0.38877  0.40320  1.0000
  C   C1036     1.0  0.05879  0.38953  0.40662  1.0000
  C   C1037     1.0  0.04918  0.40135  0.39783  1.0000
  C   C1038     1.0  0.12003  0.41675  0.55762  1.0000
  C   C1039     1.0  0.01559  0.30736  0.42220  1.0000
  C   C1040     1.0  0.00285  0.31678  0.43018  1.0000
  H   H1274     1.0  0.05373  0.38119  0.41622  1.0000
  H   H1275     1.0  0.03671  0.40204  0.40063  1.0000
  C   C1041     1.0  0.06042  0.27476  0.43278  1.0000
  H   H1276     1.0  0.09892  0.27475  0.37772  1.0000
  C   C1042     1.0  0.07971  0.33529  0.49609  1.0000
  C   C1043     1.0  0.07581  0.33082  0.51228  1.0000
  C   C1044     1.0  0.07763  0.33968  0.52154  1.0000
  C   C1045     1.0  0.08336  0.35316  0.51473  1.0000
  C   C1046     1.0  0.08718  0.35779  0.49845  1.0000
  C   C1047     1.0  0.08528  0.34891  0.48912  1.0000
  H   H1277     1.0  0.07123  0.32052  0.51762  1.0000
  H   H1278     1.0  0.07480  0.33601  0.53397  1.0000
  H   H1279     1.0  0.09164  0.36822  0.49306  1.0000
  H   H1280     1.0  0.08837  0.35244  0.47660  1.0000
  C   C1048     1.0  0.04241  0.35453  0.49653  1.0000
  H   H1281     1.0  0.14176  0.37517  0.53928  1.0000
  H   H1282     1.0  0.04570  0.33056  0.48177  1.0000
  H   H1283     1.0  0.01937  0.46456  0.39885  1.0000
  H   H1284     1.0  0.02969  0.29526  0.38137  1.0000
  H   H1285     1.0  0.08981  0.33087  0.39323  1.0000
  C   C1049     1.0  0.12035  0.38929  0.56032  1.0000
  H   H1286     1.0  0.00179  0.27365  0.47048  1.0000
  H   H1287     1.0  0.08285  0.28341  0.56972  1.0000
  C   C1050     1.0  0.07219  0.28389  0.51435  1.0000
  H   H1288     1.0  0.06768  0.28296  0.43082  1.0000
  H   H1289     1.0  0.04433  0.27345  0.55418  1.0000
  C   C1051     1.0  0.05236  0.27665  0.54333  1.0000
  H   H1290     1.0  0.11555  0.40820  0.54050  1.0000
  H   H1291     1.0  0.12659  0.38753  0.52962  1.0000
  H   H1292     1.0  0.02906  0.25329  0.56441  1.0000
  C   C1052     1.0  0.06850  0.23918  0.40703  1.0000
  S   S288      1.0  0.06176  0.37705  0.56485  1.0000
  H   H1293     1.0  0.03453  0.24529  0.44091  1.0000
  C   C1053     1.0  0.08134  0.39963  0.39078  1.0000
  H   H1294     1.0  0.06024  0.26794  0.39127  1.0000
  H   H1295     1.0  0.04108  0.26716  0.53156  1.0000
  C   C1054     1.0  0.01299  0.33152  0.51042  1.0000
  H   H1296     1.0  0.13395  0.35793  0.56585  1.0000
  C   C1055     1.0  0.06141  0.26741  0.42103  1.0000
  C   C1056     1.0  0.12189  0.36116  0.56380  1.0000
  C   C1057     1.0  0.04299  0.36726  0.51601  1.0000
  C   C1058     1.0  0.00538  0.32726  0.43724  1.0000
  H   H1297     1.0  0.02466  0.34029  0.57419  1.0000
  H   H1298     1.0  0.02793  0.45829  0.38091  1.0000
  H   H1299     1.0  0.07976  0.28690  0.50303  1.0000
  H   H1300     1.0  0.05173  0.31503  0.50624  1.0000
  C   C1059     1.0  0.04997  0.27178  0.44696  1.0000
  C   C1060     1.0  0.07142  0.35737  0.37763  1.0000
  H   H1301     1.0  0.06952  0.23308  0.39777  1.0000
  C   C1061     1.0  0.11850  0.40493  0.55173  1.0000
  H   H1302     1.0  0.12083  0.35216  0.55843  1.0000
  H   H1303     1.0  0.03728  0.31433  0.52383  1.0000
  C   C1062     1.0  0.05767  0.45630  0.38060  1.0000
  S   S289      1.0  0.08844  0.34454  0.57042  1.0000
  C   C1063     1.0  0.09200  0.28358  0.38407  1.0000
  C   C1064     1.0  0.00710  0.33993  0.56285  1.0000
  C   C1065     1.0  0.03082  0.30827  0.42151  1.0000
  H   H1304     1.0  0.00989  0.32890  0.52328  1.0000
  H   H1305     1.0  0.04966  0.44893  0.41130  1.0000
  H   H1306     1.0  0.03582  0.30609  0.50896  1.0000
  H   H1307     1.0  0.08393  0.29308  0.52541  1.0000
  H   H1308     1.0  0.11744  0.34311  0.38942  1.0000
  C   C1066     1.0  0.10237  0.38027  0.55181  1.0000
  H   H1309     1.0  0.08126  0.42527  0.57431  1.0000
  N   N75       1.0  0.05285  0.24952  0.41037  1.0000
  N   N76       1.0  0.11861  0.37700  0.55381  1.0000
  N   N77       1.0  0.06616  0.28935  0.55529  1.0000
  C   C1067     1.0  0.12946  0.37672  0.53844  1.0000
  C   C1068     1.0  0.06018  0.27662  0.51592  1.0000
  Fe  Fe139     1.0  0.00716  0.28326  0.56964  1.0000
  H   H1310     1.0  0.04068  0.30106  0.41525  1.0000
  C   C1069     1.0  0.04183  0.25355  0.43800  1.0000
  S   S290      1.0  0.00140  0.26029  0.44420  1.0000
  C   C1070     1.0  0.03066  0.34537  0.52349  1.0000
  C   C1071     1.0  0.00927  0.27722  0.48924  1.0000
  H   H1311     1.0  0.01971  0.28086  0.48187  1.0000
  H   H1312     1.0  0.07801  0.24570  0.40300  1.0000
  C   C1072     1.0  0.04078  0.26111  0.44962  1.0000
  N   N78       1.0  0.02990  0.33114  0.50408  1.0000
  H   H1313     1.0  0.04512  0.31857  0.42896  1.0000
  C   C1073     1.0  0.03299  0.33203  0.48715  1.0000
  C   C1074     1.0  0.03492  0.35699  0.52742  1.0000
  H   H1314     1.0  0.10840  0.32272  0.38322  1.0000
  C   C1075     1.0  0.06671  0.30604  0.55086  1.0000
  H   H1315     1.0  0.02929  0.32259  0.48465  1.0000
  C   C1076     1.0  0.05040  0.27287  0.53040  1.0000
  H   H1316     1.0  0.01378  0.24993  0.39583  1.0000
  H   H1317     1.0  0.04994  0.25672  0.38666  1.0000
  H   H1318     1.0  0.04609  0.35399  0.48447  1.0000
  H   H1319     1.0  0.03712  0.46721  0.41408  1.0000
  C   C1077     1.0  0.04722  0.46162  0.40594  1.0000
  H   H1320     1.0  0.05875  0.31201  0.38490  1.0000
  H   H1321     1.0  0.09133  0.28177  0.55005  1.0000
  H   H1322     1.0  0.03209  0.35800  0.53939  1.0000
  H   H1323     1.0  0.01110  0.32768  0.56293  1.0000
  H   H1324     1.0  0.02468  0.33753  0.53280  1.0000
  H   H1325     1.0  0.12893  0.36709  0.53359  1.0000
  C   C1078     1.0  0.99198  0.27260  0.51457  1.0000
  H   H1326     1.0  0.06898  0.34648  0.38490  1.0000
  C   C1079     1.0  0.03422  0.34380  0.50788  1.0000
  C   C1080     1.0  0.05569  0.41213  0.38533  1.0000
  C   C1081     1.0  0.04667  0.36606  0.50060  1.0000
  C   C1082     1.0  0.04096  0.24009  0.41387  1.0000
  C   C1083     1.0  0.07180  0.41120  0.38176  1.0000
  C   C1084     1.0  0.99389  0.31605  0.47740  1.0000
  C   C1085     1.0  0.03020  0.45808  0.39223  1.0000
  S   S291      1.0  0.99865  0.26961  0.55825  1.0000
  H   H1327     1.0  0.03206  0.44562  0.39844  1.0000
  C   C1086     1.0  0.07434  0.28759  0.52723  1.0000
  C   C1087     1.0  0.06419  0.28451  0.54203  1.0000
  H   H1328     1.0  0.02887  0.24718  0.41668  1.0000
  S   S292      1.0  0.01482  0.30008  0.54775  1.0000
  C   C1088     1.0  0.99916  0.27312  0.48280  1.0000
  C   C1089     1.0  0.04050  0.48143  0.38273  1.0000
  H   H1329     1.0  0.05307  0.27480  0.57423  1.0000
  H   H1330     1.0  0.99559  0.33508  0.44269  1.0000
  C   C1090     1.0  0.09762  0.33182  0.38149  1.0000
  H   H1331     1.0  0.04668  0.37596  0.51917  1.0000
  C   C1091     1.0  0.08101  0.28008  0.55971  1.0000
  H   H1332     1.0  0.02667  0.34327  0.48099  1.0000
  H   H1333     1.0  0.00915  0.32275  0.50697  1.0000
  H   H1334     1.0  0.06656  0.31048  0.56094  1.0000
  C   C1092     1.0  0.00942  0.36289  0.56949  1.0000
  C   C1093     1.0  0.10661  0.35155  0.38670  1.0000
  H   H1335     1.0  0.99217  0.38369  0.56361  1.0000
  H   H1336     1.0  0.99588  0.30739  0.47027  1.0000
  C   C1094     1.0  0.99427  0.34871  0.55643  1.0000
  Fe  Fe140     1.0  0.00425  0.28789  0.53674  1.0000
  H   H1337     1.0  0.06967  0.27017  0.41023  1.0000
  H   H1338     1.0  0.03954  0.27053  0.39869  1.0000
  C   C1095     1.0  0.00547  0.27727  0.50508  1.0000
  H   H1339     1.0  0.99998  0.31027  0.48714  1.0000
  H   H1340     1.0  0.09771  0.35140  0.39781  1.0000
  H   H1341     1.0  0.06077  0.44372  0.38614  1.0000
  H   H1342     1.0  0.04170  0.29369  0.56667  1.0000
  C   C1096     1.0  0.05054  0.26170  0.39616  1.0000
  H   H1343     1.0  0.01337  0.27758  0.39053  1.0000
  H   H1344     1.0  0.05653  0.31335  0.54588  1.0000
  C   C1097     1.0  0.01485  0.34711  0.56913  1.0000
  H   H1345     1.0  0.04163  0.23518  0.40385  1.0000
  C   C1098     1.0  0.07833  0.29321  0.37982  1.0000
  H   H1346     1.0  0.07764  0.30824  0.54240  1.0000
  C   C1099     1.0  0.99643  0.37151  0.56333  1.0000
  Fe  Fe141     1.0  0.99403  0.28193  0.42696  1.0000
  H   H1347     1.0  0.09377  0.39908  0.38814  1.0000
  H   H1348     1.0  0.00181  0.30263  0.38305  1.0000
  H   H1349     1.0  0.04673  0.36737  0.37982  1.0000
  C   C1100     1.0  0.01590  0.25651  0.38393  1.0000
  C   C1101     1.0  0.01560  0.27236  0.38076  1.0000
  C   C1102     1.0  0.12343  0.41338  0.57219  1.0000
  H   H1350     1.0  0.11339  0.36019  0.57522  1.0000
  C   C1103     1.0  0.12356  0.38630  0.57528  1.0000
  Fe  Fe142     1.0  0.09890  0.26156  0.65881  1.0000
  S   S293      1.0  0.07347  0.27173  0.66610  1.0000
  S   S294      1.0  0.11176  0.27838  0.64081  1.0000
  Fe  Fe143     1.0  0.07716  0.26116  0.69026  1.0000
  S   S295      1.0  0.06655  0.27674  0.70741  1.0000
  S   S296      1.0  0.10299  0.25225  0.68292  1.0000
  C   C1104     1.0  0.09452  0.35742  0.66341  1.0000
  H   H1351     1.0  0.07623  0.27688  0.61062  1.0000
  C   C1105     1.0  0.04708  0.41577  0.63699  1.0000
  C   C1106     1.0  0.16437  0.29479  0.77325  1.0000
  C   C1107     1.0  0.10114  0.30304  0.67603  1.0000
  H   H1352     1.0  0.01364  0.27547  0.63669  1.0000
  H   H1353     1.0  0.05156  0.29842  0.62450  1.0000
  Fe  Fe144     1.0  0.06989  0.24865  0.66596  1.0000
  H   H1354     1.0  0.01601  0.34261  0.60703  1.0000
  H   H1355     1.0  0.08928  0.34699  0.70263  1.0000
  C   C1108     1.0  0.03128  0.40923  0.75300  1.0000
  H   H1356     1.0  0.04813  0.26786  0.62306  1.0000
  S   S297      1.0  0.10919  0.32426  0.76270  1.0000
  H   H1357     1.0  0.11301  0.30505  0.66992  1.0000
  H   H1358     1.0  0.04592  0.38247  0.74648  1.0000
  H   H1359     1.0  0.13730  0.44526  0.67028  1.0000
  S   S298      1.0  0.01842  0.37205  0.57785  1.0000
  Fe  Fe145     1.0  0.00943  0.44991  0.73183  1.0000
  S   S299      1.0  0.02238  0.46356  0.73836  1.0000
  S   S300      1.0  0.02318  0.43190  0.71836  1.0000
  Fe  Fe146     1.0  0.00644  0.45909  0.76170  1.0000
  H   H1360     1.0  0.14601  0.23372  0.68583  1.0000
  H   H1361     1.0  0.26415  0.23998  0.73846  1.0000
  C   C1109     1.0  0.00038  0.31397  0.60523  1.0000
  C   C1110     1.0  0.13042  0.47754  0.66761  1.0000
  H   H1362     1.0  0.04830  0.28419  0.60677  1.0000
  N   N79       1.0  0.03155  0.28896  0.62739  1.0000
  H   H1363     1.0  0.05020  0.41324  0.67399  1.0000
  C   C1111     1.0  0.07328  0.31281  0.67892  1.0000
  C   C1112     1.0  0.09029  0.31622  0.65373  1.0000
  H   H1364     1.0  0.03326  0.32059  0.61993  1.0000
  H   H1365     1.0  0.28270  0.23894  0.74217  1.0000
  C   C1113     1.0  0.00224  0.32889  0.60365  1.0000
  H   H1366     1.0  0.99244  0.38776  0.76903  1.0000
  Fe  Fe147     1.0  0.09051  0.44652  0.61490  1.0000
  S   S301      1.0  0.11008  0.45017  0.62288  1.0000
  C   C1114     1.0  0.05934  0.39451  0.66207  1.0000
  Fe  Fe148     1.0  0.06584  0.45995  0.63985  1.0000
  S   S302      1.0  0.08273  0.46465  0.65051  1.0000
  S   S303      1.0  0.03994  0.46642  0.64855  1.0000
  Fe  Fe149     1.0  0.09476  0.47346  0.62608  1.0000
  H   H1367     1.0  0.09444  0.34364  0.64850  1.0000
  Fe  Fe150     1.0  0.09698  0.44125  0.64694  1.0000
  S   S304      1.0  0.11076  0.42678  0.66492  1.0000
  S   S305      1.0  0.07645  0.47080  0.61562  1.0000
  S   S306      1.0  0.07877  0.43548  0.63873  1.0000
  S   S307      1.0  0.09518  0.23925  0.65660  1.0000
  C   C1115     1.0  0.02545  0.24106  0.60347  1.0000
  C   C1116     1.0  0.08166  0.40117  0.58553  1.0000
  Fe  Fe151     1.0  0.10385  0.32399  0.74039  1.0000
  S   S308      1.0  0.07972  0.33889  0.74541  1.0000
  S   S309      1.0  0.11151  0.30190  0.73132  1.0000
  Fe  Fe152     1.0  0.11876  0.34527  0.74929  1.0000
  S   S310      1.0  0.09595  0.36221  0.75468  1.0000
  H   H1368     1.0  0.09540  0.40996  0.61788  1.0000
  H   H1369     1.0  0.02314  0.36061  0.76935  1.0000
  Fe  Fe153     1.0  0.09138  0.35891  0.73319  1.0000
  S   S311      1.0  0.07755  0.37771  0.71739  1.0000
  C   C1117     1.0  0.13958  0.47665  0.64032  1.0000
  S   S312      1.0  0.11513  0.34391  0.72652  1.0000
  C   C1118     1.0  0.08857  0.41939  0.59595  1.0000
  S   S313      1.0  0.05485  0.34928  0.59593  1.0000
  H   H1370     1.0  0.01723  0.42472  0.63509  1.0000
  H   H1371     1.0  0.29577  0.23740  0.71422  1.0000
  C   C1119     1.0  0.07137  0.40218  0.76160  1.0000
  H   H1372     1.0  0.05704  0.39584  0.62577  1.0000
  H   H1373     1.0  0.09424  0.36913  0.68081  1.0000
  C   C1120     1.0  0.99424  0.40955  0.73252  1.0000
  C   C1121     1.0  0.09142  0.47037  0.69555  1.0000
  H   H1374     1.0  0.10026  0.30141  0.68863  1.0000
  C   C1122     1.0  0.08529  0.38920  0.59812  1.0000
  H   H1375     1.0  0.04782  0.44649  0.62725  1.0000
  C   C1123     1.0  0.13645  0.47128  0.68129  1.0000
  H   H1376     1.0  0.02767  0.27098  0.64814  1.0000
  H   H1377     1.0  0.03593  0.41080  0.61424  1.0000
  H   H1378     1.0  0.04552  0.44856  0.60811  1.0000
  H   H1379     1.0  0.08896  0.30502  0.65235  1.0000
  H   H1380     1.0  0.15084  0.47915  0.64026  1.0000
  C   C1124     1.0  0.06112  0.38985  0.64841  1.0000
  H   H1381     1.0  0.99454  0.23840  0.58886  1.0000
  H   H1382     1.0  0.01081  0.46809  0.67097  1.0000
  S   S314      1.0  0.05345  0.24710  0.65252  1.0000
  H   H1383     1.0  0.08115  0.32549  0.64864  1.0000
  C   C1125     1.0  0.02412  0.31813  0.61629  1.0000
  H   H1384     1.0  0.14182  0.46979  0.63138  1.0000
  H   H1385     1.0  0.00832  0.28971  0.61344  1.0000
  C   C1126     1.0  0.08897  0.33235  0.68808  1.0000
  H   H1386     1.0  0.02329  0.24550  0.61376  1.0000
  H   H1387     1.0  0.04978  0.28209  0.64031  1.0000
  H   H1388     1.0  0.10892  0.47790  0.65252  1.0000
  H   H1389     1.0  0.07161  0.31124  0.69163  1.0000
  H   H1390     1.0  0.10205  0.31774  0.64661  1.0000
  C   C1127     1.0  0.01426  0.33096  0.60889  1.0000
  C   C1128     1.0  0.09150  0.40759  0.60888  1.0000
  N   N80       1.0  0.08880  0.31605  0.67028  1.0000
  C   C1129     1.0  0.08291  0.46227  0.69151  1.0000
  H   H1391     1.0  0.01314  0.28876  0.64800  1.0000
  H   H1392     1.0  0.09036  0.40141  0.77158  1.0000
  C   C1130     1.0  0.02209  0.30276  0.61871  1.0000
  C   C1131     1.0  0.05169  0.38628  0.75350  1.0000
  N   N81       1.0  0.13248  0.46840  0.65597  1.0000
  H   H1393     1.0  0.16793  0.34417  0.76544  1.0000
  H   H1394     1.0  0.05184  0.35131  0.76702  1.0000
  C   C1132     1.0  0.07805  0.40604  0.77154  1.0000
  H   H1395     1.0  0.15449  0.45301  0.65955  1.0000
  C   C1133     1.0  0.04287  0.29275  0.63385  1.0000
  H   H1396     1.0  0.02203  0.44117  0.63811  1.0000
  H   H1397     1.0  0.03712  0.42929  0.60125  1.0000
  C   C1134     1.0  0.10161  0.41297  0.67937  1.0000
  C   C1135     1.0  0.08613  0.41268  0.68037  1.0000
  C   C1136     1.0  0.07890  0.40179  0.69214  1.0000
  C   C1137     1.0  0.08714  0.39104  0.70283  1.0000
  C   C1138     1.0  0.10265  0.39123  0.70182  1.0000
  C   C1139     1.0  0.10984  0.40225  0.69014  1.0000
  H   H1398     1.0  0.07971  0.42088  0.67215  1.0000
  H   H1399     1.0  0.06689  0.40168  0.69299  1.0000
  H   H1400     1.0  0.10908  0.38294  0.71004  1.0000
  H   H1401     1.0  0.12183  0.40240  0.68940  1.0000
  H   H1402     1.0  0.11806  0.45993  0.64681  1.0000
  C   C1140     1.0  0.09314  0.34375  0.66050  1.0000
  C   C1141     1.0  0.05510  0.40024  0.63602  1.0000
  H   H1403     1.0  0.07894  0.39477  0.75397  1.0000
  H   H1404     1.0  0.02800  0.42216  0.75013  1.0000
  H   H1405     1.0  0.08782  0.45024  0.69062  1.0000
  Fe  Fe154     1.0  0.07381  0.36254  0.58404  1.0000
  C   C1142     1.0  0.27487  0.23180  0.74175  1.0000
  H   H1406     1.0  0.11135  0.46013  0.66697  1.0000
  C   C1143     1.0  0.04059  0.27825  0.61700  1.0000
  H   H1407     1.0  0.06408  0.38646  0.67164  1.0000
  Fe  Fe155     1.0  0.08601  0.34109  0.76645  1.0000
  H   H1408     1.0  0.09206  0.26579  0.63050  1.0000
  H   H1409     1.0  0.05097  0.40648  0.72617  1.0000
  H   H1410     1.0  0.01862  0.44192  0.61985  1.0000
  H   H1411     1.0  0.05459  0.41610  0.60536  1.0000
  H   H1412     1.0  0.02652  0.40548  0.74509  1.0000
  S   S315      1.0  0.07057  0.30687  0.59055  1.0000
  H   H1413     1.0  0.10289  0.46466  0.69790  1.0000
  H   H1414     1.0  0.18128  0.27329  0.77226  1.0000
  C   C1144     1.0  0.05153  0.40960  0.66339  1.0000
  N   N82       1.0  0.04849  0.40346  0.75080  1.0000
  C   C1145     1.0  0.02562  0.25131  0.58897  1.0000
  S   S316      1.0  0.07075  0.23893  0.69102  1.0000
  C   C1146     1.0  0.04939  0.43992  0.61827  1.0000
  S   S317      1.0  0.09169  0.43807  0.59365  1.0000
  C   C1147     1.0  0.02766  0.44112  0.69886  1.0000
  C   C1148     1.0  0.04303  0.43802  0.69032  1.0000
  C   C1149     1.0  0.04682  0.44591  0.67484  1.0000
  C   C1150     1.0  0.03520  0.45669  0.66787  1.0000
  C   C1151     1.0  0.01981  0.45975  0.67638  1.0000
  C   C1152     1.0  0.01605  0.45201  0.69194  1.0000
  H   H1415     1.0  0.05205  0.42973  0.69575  1.0000
  H   H1416     1.0  0.05874  0.44362  0.66832  1.0000
  C   C1153     1.0  0.14255  0.45256  0.65920  1.0000
  H   H1417     1.0  0.00412  0.45425  0.69847  1.0000
  S   S318      1.0  0.08459  0.36985  0.59950  1.0000
  H   H1418     1.0  0.14391  0.44614  0.65010  1.0000
  H   H1419     1.0  0.12450  0.37496  0.58299  1.0000
  C   C1154     1.0  0.99773  0.39719  0.74477  1.0000
  C   C1155     1.0  0.04215  0.42049  0.61070  1.0000
  H   H1420     1.0  0.03683  0.30045  0.64215  1.0000
  H   H1421     1.0  0.06215  0.43526  0.61461  1.0000
  C   C1156     1.0  0.13149  0.36737  0.77062  1.0000
  C   C1157     1.0  0.05529  0.40796  0.76128  1.0000
  H   H1422     1.0  0.08698  0.32295  0.69805  1.0000
  H   H1423     1.0  0.07168  0.30184  0.67727  1.0000
  Fe  Fe156     1.0  0.04411  0.36212  0.57556  1.0000
  C   C1158     1.0  0.04556  0.42011  0.65105  1.0000
  H   H1424     1.0  0.15714  0.29244  0.76700  1.0000
  H   H1425     1.0  0.06363  0.32243  0.67517  1.0000
  C   C1159     1.0  0.02102  0.28074  0.64058  1.0000
  C   C1160     1.0  0.06810  0.46962  0.68847  1.0000
  C   C1161     1.0  0.05567  0.40978  0.73445  1.0000
  C   C1162     1.0  0.14401  0.35601  0.76514  1.0000
  C   C1163     1.0  0.01017  0.30107  0.61258  1.0000
  C   C1164     1.0  0.11703  0.46656  0.65559  1.0000
  H   H1426     1.0  0.10040  0.29176  0.67429  1.0000
  H   H1427     1.0  0.12069  0.37019  0.76676  1.0000
  C   C1165     1.0  0.08358  0.41616  0.58432  1.0000
  C   C1166     1.0  0.09309  0.35857  0.67855  1.0000
  C   C1167     1.0  0.09031  0.34607  0.69085  1.0000
  H   H1428     1.0  0.06205  0.46289  0.68523  1.0000
  H   H1429     1.0  0.02511  0.40484  0.76507  1.0000
  H   H1430     1.0  0.03293  0.27377  0.61264  1.0000
  C   C1168     1.0  0.15810  0.35268  0.76997  1.0000
  C   C1169     1.0  0.02854  0.24550  0.57569  1.0000
  C   C1170     1.0  0.02395  0.43401  0.62954  1.0000
  H   H1431     1.0  0.03422  0.42359  0.77154  1.0000
  H   H1432     1.0  0.99459  0.33889  0.59800  1.0000
  H   H1433     1.0  0.06431  0.38100  0.75004  1.0000
  S   S319      1.0  0.14240  0.34552  0.75252  1.0000
  C   C1171     1.0  0.09012  0.39249  0.60981  1.0000
  N   N83       1.0  0.04077  0.42723  0.62405  1.0000
  H   H1434     1.0  0.06855  0.40533  0.73162  1.0000
  H   H1435     1.0  0.06727  0.37812  0.64735  1.0000
  H   H1436     1.0  0.09685  0.36715  0.65387  1.0000
  H   H1437     1.0  0.03660  0.47179  0.69426  1.0000
  H   H1438     1.0  0.05333  0.42270  0.73183  1.0000
  S   S320      1.0  0.02146  0.27138  0.58755  1.0000
  H   H1439     1.0  0.05466  0.29176  0.57872  1.0000
  C   C1172     1.0  0.09030  0.33075  0.67282  1.0000
  H   H1440     1.0  0.09293  0.38329  0.61960  1.0000
  H   H1441     1.0  0.03997  0.43180  0.65252  1.0000
  C   C1173     1.0  0.07895  0.28311  0.71483  1.0000
  C   C1174     1.0  0.09489  0.27618  0.71309  1.0000
  C   C1175     1.0  0.10466  0.28197  0.71838  1.0000
  C   C1176     1.0  0.09861  0.29477  0.72540  1.0000
  C   C1177     1.0  0.08263  0.30158  0.72736  1.0000
  C   C1178     1.0  0.07282  0.29569  0.72218  1.0000
  H   H1442     1.0  0.09969  0.26632  0.70777  1.0000
  H   H1443     1.0  0.11698  0.27658  0.71697  1.0000
  H   H1444     1.0  0.07782  0.31134  0.73290  1.0000
  H   H1445     1.0  0.06046  0.30100  0.72373  1.0000
  C   C1179     1.0  0.10111  0.28621  0.62617  1.0000
  C   C1180     1.0  0.10104  0.30138  0.61734  1.0000
  C   C1181     1.0  0.09162  0.30789  0.60637  1.0000
  C   C1182     1.0  0.08266  0.29905  0.60393  1.0000
  C   C1183     1.0  0.08305  0.28379  0.61250  1.0000
  C   C1184     1.0  0.09204  0.27749  0.62377  1.0000
  H   H1446     1.0  0.10801  0.30817  0.61919  1.0000
  H   H1447     1.0  0.09131  0.31971  0.59983  1.0000
  H   H1448     1.0  0.14297  0.45945  0.68397  1.0000
  Fe  Fe157     1.0  0.06851  0.33251  0.58092  1.0000
  H   H1449     1.0  0.12853  0.23227  0.70063  1.0000
  H   H1450     1.0  0.04755  0.38103  0.76594  1.0000
  C   C1185     1.0  0.04644  0.41826  0.77119  1.0000
  H   H1451     1.0  0.00689  0.38712  0.74250  1.0000
  H   H1452     1.0  0.13904  0.47541  0.70230  1.0000
  S   S321      1.0  0.99537  0.44338  0.75579  1.0000
  H   H1453     1.0  0.07762  0.39890  0.57660  1.0000
  C   C1186     1.0  0.13424  0.48034  0.69200  1.0000
  H   H1454     1.0  0.27611  0.24024  0.71201  1.0000
  C   C1187     1.0  0.12516  0.39821  0.58100  1.0000
  H   H1455     1.0  0.00091  0.40928  0.72078  1.0000
  H   H1456     1.0  0.03826  0.23522  0.63658  1.0000
  H   H1457     1.0  0.12719  0.39579  0.59259  1.0000
  H   H1458     1.0  0.12413  0.42265  0.57693  1.0000
  S   S322      1.0  0.36544  0.33065  0.88974  1.0000
  H   H1459     1.0  0.35122  0.32826  0.92212  1.0000
  H   H1460     1.0  0.14063  0.37457  0.89052  1.0000
  H   H1461     1.0  0.39500  0.30793  0.92518  1.0000
  H   H1462     1.0  0.12359  0.38442  0.78468  1.0000
  C   C1188     1.0  0.11760  0.34148  0.82518  1.0000
  H   H1463     1.0  0.32618  0.35270  0.86129  1.0000
  H   H1464     1.0  0.44547  0.28843  0.88123  1.0000
  C   C1189     1.0  0.32719  0.29253  0.87972  1.0000
  H   H1465     1.0  0.28291  0.31639  0.82599  1.0000
  H   H1466     1.0  0.39219  0.26918  0.94004  1.0000
  C   C1190     1.0  0.17262  0.42440  0.89341  1.0000
  C   C1191     1.0  0.14698  0.37158  0.78618  1.0000
  C   C1192     1.0  0.99977  0.44330  0.79768  1.0000
  H   H1467     1.0  0.42088  0.36000  0.85154  1.0000
  C   C1193     1.0  0.29313  0.40108  0.87809  1.0000
  H   H1468     1.0  0.07226  0.43030  0.93013  1.0000
  H   H1469     1.0  0.32959  0.25914  0.83075  1.0000
  H   H1470     1.0  0.48596  0.31891  0.88906  1.0000
  H   H1471     1.0  0.17420  0.31650  0.81280  1.0000
  C   C1194     1.0  0.31706  0.35031  0.90013  1.0000
  Fe  Fe158     1.0  0.36701  0.25000  0.93736  1.0000
  S   S323      1.0  0.35618  0.27265  0.94473  1.0000
  H   H1472     1.0  0.45844  0.25111  0.90355  1.0000
  C   C1195     1.0  0.42021  0.26974  0.91126  1.0000
  S   S324      1.0  0.36928  0.24586  0.91389  1.0000
  H   H1473     1.0  0.25555  0.35325  0.79777  1.0000
  H   H1474     1.0  0.24976  0.32516  0.82480  1.0000
  S   S325      1.0  0.27695  0.26464  0.84561  1.0000
  Fe  Fe159     1.0  0.28664  0.23900  0.85133  1.0000
  C   C1196     1.0  0.39577  0.27087  0.94961  1.0000
  S   S326      1.0  0.11677  0.44718  0.93535  1.0000
  S   S327      1.0  0.16031  0.44743  0.92622  1.0000
  H   H1475     1.0  0.31993  0.30888  0.82265  1.0000
  C   C1197     1.0  0.40967  0.37977  0.81706  1.0000
  Fe  Fe160     1.0  0.17796  0.35183  0.84028  1.0000
  S   S328      1.0  0.17092  0.33417  0.86165  1.0000
  Fe  Fe161     1.0  0.06123  0.39518  0.89471  1.0000
  S   S329      1.0  0.06379  0.37400  0.91402  1.0000
  S   S330      1.0  0.04037  0.40436  0.88330  1.0000
  Fe  Fe162     1.0  0.09212  0.40190  0.89483  1.0000
  S   S331      1.0  0.09750  0.38102  0.91375  1.0000
  S   S332      1.0  0.10860  0.41820  0.88429  1.0000
  Fe  Fe163     1.0  0.08876  0.36896  0.90095  1.0000
  S   S333      1.0  0.10058  0.34483  0.89788  1.0000
  Fe  Fe164     1.0  0.07222  0.38802  0.92521  1.0000
  S   S334      1.0  0.06294  0.38927  0.95053  1.0000
  S   S335      1.0  0.08573  0.38913  0.88081  1.0000
  S   S336      1.0  0.06736  0.40989  0.90705  1.0000
  H   H1476     1.0  0.34749  0.30538  0.94379  1.0000
  C   C1198     1.0  0.41359  0.25933  0.90795  1.0000
  H   H1477     1.0  0.09673  0.37751  0.94637  1.0000
  C   C1199     1.0  0.15173  0.33799  0.87262  1.0000
  C   C1200     1.0  0.14583  0.32555  0.88300  1.0000
  C   C1201     1.0  0.13019  0.32786  0.89104  1.0000
  C   C1202     1.0  0.12046  0.34270  0.88904  1.0000
  C   C1203     1.0  0.12647  0.35534  0.87914  1.0000
  C   C1204     1.0  0.14208  0.35294  0.87075  1.0000
  H   H1478     1.0  0.15325  0.31399  0.88452  1.0000
  H   H1479     1.0  0.12557  0.31809  0.89871  1.0000
  H   H1480     1.0  0.11894  0.36683  0.87755  1.0000
  H   H1481     1.0  0.14655  0.36258  0.86277  1.0000
  C   C1205     1.0  0.11569  0.43875  0.92089  1.0000
  C   C1206     1.0  0.10866  0.42601  0.92532  1.0000
  C   C1207     1.0  0.10633  0.41981  0.91411  1.0000
  C   C1208     1.0  0.11132  0.42613  0.89835  1.0000
  C   C1209     1.0  0.11880  0.43860  0.89385  1.0000
  C   C1210     1.0  0.12093  0.44497  0.90513  1.0000
  H   H1482     1.0  0.10497  0.42091  0.93749  1.0000
  H   H1483     1.0  0.10067  0.41013  0.91770  1.0000
  H   H1484     1.0  0.12266  0.44352  0.88167  1.0000
  H   H1485     1.0  0.12633  0.45485  0.90164  1.0000
  N   N84       1.0  0.06322  0.44067  0.95024  1.0000
  N   N85       1.0  0.19352  0.30549  0.79680  1.0000
  H   H1486     1.0  0.28392  0.41199  0.87832  1.0000
  S   S337      1.0  0.44477  0.27929  0.91466  1.0000
  C   C1211     1.0  0.23451  0.40868  0.80965  1.0000
  C   C1212     1.0  0.22237  0.30145  0.83040  1.0000
  N   N86       1.0  0.15659  0.39021  0.88136  1.0000
  H   H1487     1.0  0.21458  0.29747  0.84120  1.0000
  H   H1488     1.0  0.20931  0.32516  0.82758  1.0000
  H   H1489     1.0  0.46415  0.34265  0.82198  1.0000
  S   S338      1.0  0.31726  0.41812  0.84310  1.0000
  H   H1490     1.0  0.14451  0.35228  0.82211  1.0000
  H   H1491     1.0  0.17819  0.37959  0.86717  1.0000
  H   H1492     1.0  0.21087  0.48103  0.82253  1.0000
  C   C1213     1.0  0.46536  0.29592  0.96612  1.0000
  C   C1214     1.0  0.24007  0.41466  0.81899  1.0000
  S   S339      1.0  0.99603  0.38380  0.82761  1.0000
  H   H1493     1.0  0.38533  0.25012  0.84497  1.0000
  H   H1494     1.0  0.27002  0.37504  0.88779  1.0000
  H   H1495     1.0  0.00656  0.33406  0.91360  1.0000
  H   H1496     1.0  0.32114  0.38105  0.81231  1.0000
  H   H1497     1.0  0.07853  0.45271  0.93094  1.0000
  C   C1215     1.0  0.15284  0.40995  0.89741  1.0000
  H   H1498     1.0  0.09411  0.34114  0.83959  1.0000
  H   H1499     1.0  0.47354  0.23956  0.87636  1.0000
  H   H1500     1.0  0.03687  0.36184  0.83379  1.0000
  H   H1501     1.0  0.14131  0.40826  0.90361  1.0000
  C   C1216     1.0  0.33724  0.37228  0.82758  1.0000
  H   H1502     1.0  0.30521  0.37584  0.86212  1.0000
  C   C1217     1.0  0.02030  0.37163  0.86852  1.0000
  C   C1218     1.0  0.03358  0.36580  0.87498  1.0000
  C   C1219     1.0  0.03992  0.37573  0.87945  1.0000
  C   C1220     1.0  0.03302  0.39159  0.87744  1.0000
  C   C1221     1.0  0.01976  0.39744  0.87091  1.0000
  C   C1222     1.0  0.01336  0.38749  0.86653  1.0000
  H   H1503     1.0  0.03897  0.35353  0.87663  1.0000
  H   H1504     1.0  0.05006  0.37109  0.88457  1.0000
  H   H1505     1.0  0.01433  0.40970  0.86939  1.0000
  C   C1223     1.0  0.06012  0.43538  0.96737  1.0000
  C   C1224     1.0  0.15893  0.40647  0.94221  1.0000
  H   H1506     1.0  0.32711  0.30350  0.87134  1.0000
  H   H1507     1.0  0.14532  0.34538  0.84189  1.0000
  H   H1508     1.0  0.41564  0.37964  0.78584  1.0000
  C   C1225     1.0  0.01788  0.35637  0.79431  1.0000
  C   C1226     1.0  0.02406  0.35072  0.80761  1.0000
  C   C1227     1.0  0.47012  0.30029  0.87636  1.0000
  C   C1228     1.0  0.20838  0.29378  0.79805  1.0000
  C   C1229     1.0  0.06901  0.41602  0.78123  1.0000
  H   H1509     1.0  0.01638  0.35043  0.81897  1.0000
  C   C1230     1.0  0.12079  0.33625  0.79960  1.0000
  H   H1510     1.0  0.21575  0.29740  0.80356  1.0000
  H   H1511     1.0  0.01134  0.34656  0.89501  1.0000
  C   C1231     1.0  0.13719  0.41188  0.96419  1.0000
  H   H1512     1.0  0.40609  0.31791  0.93078  1.0000
  C   C1232     1.0  0.39512  0.33527  0.90580  1.0000
  C   C1233     1.0  0.45169  0.29950  0.96070  1.0000
  H   H1513     1.0  0.01486  0.42704  0.81204  1.0000
  S   S340      1.0  0.01495  0.45053  0.78372  1.0000
  H   H1514     1.0  0.40906  0.34053  0.84789  1.0000
  C   C1234     1.0  0.18197  0.41664  0.88190  1.0000
  C   C1235     1.0  0.25427  0.33477  0.82592  1.0000
  C   C1236     1.0  0.39667  0.25347  0.84295  1.0000
  C   C1237     1.0  0.36298  0.31451  0.90500  1.0000
  C   C1238     1.0  0.36868  0.29950  0.90235  1.0000
  C   C1239     1.0  0.36699  0.28663  0.91463  1.0000
  C   C1240     1.0  0.35913  0.28871  0.92952  1.0000
  C   C1241     1.0  0.35350  0.30373  0.93224  1.0000
  C   C1242     1.0  0.35558  0.31664  0.92000  1.0000
  H   H1515     1.0  0.37456  0.29772  0.89091  1.0000
  H   H1516     1.0  0.37177  0.27514  0.91251  1.0000
  C   C1243     1.0  0.04879  0.45082  0.94550  1.0000
  C   C1244     1.0  0.41791  0.25333  0.85411  1.0000
  C   C1245     1.0  0.43411  0.27276  0.84245  1.0000
  H   H1517     1.0  0.26086  0.33382  0.79547  1.0000
  C   C1246     1.0  0.39130  0.25755  0.86893  1.0000
  H   H1518     1.0  0.43523  0.23748  0.95677  1.0000
  H   H1519     1.0  0.24455  0.34523  0.82486  1.0000
  C   C1247     1.0  0.42319  0.24608  0.90288  1.0000
  H   H1520     1.0  0.38933  0.27033  0.86452  1.0000
  H   H1521     1.0  0.44019  0.27586  0.95640  1.0000
  H   H1522     1.0  0.14174  0.43821  0.96880  1.0000
  H   H1523     1.0  0.25630  0.33188  0.83788  1.0000
  C   C1248     1.0  0.27531  0.34866  0.81706  1.0000
  C   C1249     1.0  0.47876  0.24962  0.87158  1.0000
  H   H1524     1.0  0.04488  0.34051  0.81663  1.0000
  C   C1250     1.0  0.15232  0.41323  0.95506  1.0000
  C   C1251     1.0  0.17801  0.28408  0.77617  1.0000
  C   C1252     1.0  0.18528  0.45630  0.83719  1.0000
  C   C1253     1.0  0.00301  0.43132  0.81039  1.0000
  C   C1254     1.0  0.00846  0.39017  0.91099  1.0000
  H   H1525     1.0  0.37520  0.36222  0.81274  1.0000
  C   C1255     1.0  0.21179  0.40447  0.83031  1.0000
  H   H1526     1.0  0.25424  0.36719  0.81579  1.0000
  C   C1256     1.0  0.16932  0.31184  0.78624  1.0000
  H   H1527     1.0  0.44560  0.29032  0.86106  1.0000
  H   H1528     1.0  0.04629  0.43028  0.78824  1.0000
  H   H1529     1.0  0.41762  0.25495  0.94563  1.0000
  C   C1257     1.0  0.05032  0.34569  0.79165  1.0000
  H   H1530     1.0  0.05691  0.35579  0.82465  1.0000
  H   H1531     1.0  0.40663  0.34734  0.79688  1.0000
  C   C1258     1.0  0.29086  0.34557  0.81913  1.0000
  H   H1532     1.0  0.34033  0.27257  0.91233  1.0000
  H   H1533     1.0  0.37316  0.37991  0.79792  1.0000
  C   C1259     1.0  0.10567  0.33386  0.80361  1.0000
  H   H1534     1.0  0.42652  0.30390  0.96695  1.0000
  N   N87       1.0  0.24330  0.48036  0.87913  1.0000
  H   H1535     1.0  0.11759  0.40159  0.96583  1.0000
  N   N88       1.0  0.26882  0.33696  0.81410  1.0000
  H   H1536     1.0  0.00757  0.40251  0.90600  1.0000
  H   H1537     1.0  0.99511  0.33758  0.89969  1.0000
  H   H1538     1.0  0.15680  0.46022  0.87032  1.0000
  C   C1260     1.0  0.16039  0.44284  0.85746  1.0000
  C   C1261     1.0  0.43131  0.24268  0.85877  1.0000
  H   H1539     1.0  0.03132  0.38022  0.80933  1.0000
  H   H1540     1.0  0.43515  0.28447  0.83616  1.0000
  C   C1262     1.0  0.10197  0.33963  0.82863  1.0000
  C   C1263     1.0  0.30805  0.36890  0.87302  1.0000
  H   H1541     1.0  0.46290  0.31616  0.84899  1.0000
  Fe  Fe165     1.0  0.16530  0.46923  0.90934  1.0000
  S   S341      1.0  0.24931  0.44885  0.84075  1.0000
  C   C1264     1.0  0.05327  0.42220  0.78097  1.0000
  C   C1265     1.0  0.16220  0.40157  0.88594  1.0000
  N   N89       1.0  0.31282  0.25567  0.88622  1.0000
  C   C1266     1.0  0.31887  0.25312  0.87019  1.0000
  H   H1542     1.0  0.07425  0.41916  0.78878  1.0000
  C   C1267     1.0  0.29570  0.26194  0.88866  1.0000
  C   C1268     1.0  0.32037  0.26696  0.88843  1.0000
  C   C1269     1.0  0.32784  0.26397  0.90096  1.0000
  C   C1270     1.0  0.32015  0.28166  0.87796  1.0000
  C   C1271     1.0  0.39575  0.37840  0.81402  1.0000
  S   S342      1.0  0.47945  0.27004  0.93628  1.0000
  H   H1543     1.0  0.15099  0.43761  0.86528  1.0000
  C   C1272     1.0  0.25185  0.46659  0.88879  1.0000
  H   H1544     1.0  0.36986  0.39903  0.84014  1.0000
  H   H1545     1.0  0.39422  0.26620  0.83813  1.0000
  H   H1546     1.0  0.04312  0.42215  0.96877  1.0000
  H   H1547     1.0  0.45840  0.26501  0.84343  1.0000
  H   H1548     1.0  0.31478  0.24355  0.86851  1.0000
  C   C1273     1.0  0.15953  0.36027  0.78064  1.0000
  C   C1274     1.0  0.16363  0.45560  0.86024  1.0000
  H   H1549     1.0  0.34004  0.29766  0.89330  1.0000
  H   H1550     1.0  0.18123  0.29602  0.81963  1.0000
  H   H1551     1.0  0.31467  0.28483  0.86818  1.0000
  H   H1552     1.0  0.32864  0.25315  0.90953  1.0000
  C   C1275     1.0  0.41499  0.26430  0.96584  1.0000
  H   H1553     1.0  0.33188  0.25012  0.86734  1.0000
  C   C1276     1.0  0.15055  0.39806  0.86712  1.0000
  H   H1554     1.0  0.14117  0.40860  0.86891  1.0000
  H   H1555     1.0  0.15995  0.40181  0.85720  1.0000
  H   H1556     1.0  0.14544  0.39031  0.86356  1.0000
  H   H1557     1.0  0.16510  0.36720  0.87634  1.0000
  H   H1558     1.0  0.14721  0.37926  0.90491  1.0000
  C   C1277     1.0  0.32529  0.38328  0.82122  1.0000
  H   H1559     1.0  0.10689  0.39056  0.80761  1.0000
  H   H1560     1.0  0.38379  0.33157  0.91077  1.0000
  H   H1561     1.0  0.15073  0.42729  0.90996  1.0000
  Fe  Fe166     1.0  0.36989  0.32497  0.86652  1.0000
  H   H1562     1.0  0.12931  0.39040  0.94336  1.0000
  C   C1278     1.0  0.27969  0.32145  0.81452  1.0000
  N   N90       1.0  0.04842  0.38069  0.82126  1.0000
  S   S343      1.0  0.48991  0.26114  0.90213  1.0000
  C   C1279     1.0  0.03637  0.39152  0.83012  1.0000
  C   C1280     1.0  0.04340  0.38212  0.80681  1.0000
  C   C1281     1.0  0.06430  0.38375  0.81746  1.0000
  C   C1282     1.0  0.06785  0.39493  0.82318  1.0000
  C   C1283     1.0  0.07694  0.37505  0.80814  1.0000
  C   C1284     1.0  0.08306  0.39728  0.81959  1.0000
  C   C1285     1.0  0.09209  0.37752  0.80463  1.0000
  C   C1286     1.0  0.09513  0.38865  0.81030  1.0000
  C   C1287     1.0  0.33471  0.27503  0.90269  1.0000
  C   C1288     1.0  0.12907  0.40342  0.95956  1.0000
  H   H1563     1.0  0.20387  0.47264  0.84245  1.0000
  H   H1564     1.0  0.03891  0.39048  0.84155  1.0000
  H   H1565     1.0  0.02457  0.38893  0.83280  1.0000
  H   H1566     1.0  0.03539  0.40381  0.82356  1.0000
  S   S344      1.0  0.19324  0.39986  0.83700  1.0000
  H   H1567     1.0  0.40404  0.37325  0.77713  1.0000
  S   S345      1.0  0.14808  0.38095  0.80000  1.0000
  H   H1568     1.0  0.05913  0.40197  0.83056  1.0000
  H   H1569     1.0  0.07525  0.36613  0.80360  1.0000
  H   H1570     1.0  0.08550  0.40583  0.82414  1.0000
  H   H1571     1.0  0.10151  0.37064  0.79753  1.0000
  C   C1289     1.0  0.28735  0.37194  0.82170  1.0000
  Fe  Fe167     1.0  0.46785  0.26527  0.92020  1.0000
  H   H1572     1.0  0.05201  0.36321  0.84190  1.0000
  S   S346      1.0  0.23832  0.27115  0.83347  1.0000
  H   H1573     1.0  0.20157  0.45059  0.86412  1.0000
  C   C1290     1.0  0.16944  0.37663  0.87807  1.0000
  Fe  Fe168     1.0  0.26367  0.25914  0.83153  1.0000
  Fe  Fe169     1.0  0.13547  0.46060  0.92978  1.0000
  C   C1291     1.0  0.14381  0.38405  0.89351  1.0000
  H   H1574     1.0  0.22794  0.43373  0.86416  1.0000
  Fe  Fe170     1.0  0.16233  0.45858  0.94402  1.0000
  S   S347      1.0  0.30710  0.23980  0.83104  1.0000
  H   H1575     1.0  0.13274  0.39304  0.89492  1.0000
  C   C1292     1.0  0.16939  0.43668  0.84474  1.0000
  H   H1576     1.0  0.17565  0.37155  0.88778  1.0000
  C   C1293     1.0  0.23545  0.29091  0.82427  1.0000
  S   S348      1.0  0.20151  0.35732  0.83477  1.0000
  C   C1294     1.0  0.04022  0.34519  0.80628  1.0000
  C   C1295     1.0  0.21935  0.31712  0.82265  1.0000
  H   H1577     1.0  0.39563  0.34331  0.91262  1.0000
  S   S349      1.0  0.24823  0.42712  0.88509  1.0000
  H   H1578     1.0  0.22478  0.43927  0.90978  1.0000
  H   H1579     1.0  0.18861  0.46789  0.95312  1.0000
  C   C1296     1.0  0.21966  0.44160  0.89987  1.0000
  H   H1580     1.0  0.24092  0.40838  0.79787  1.0000
  S   S350      1.0  0.16531  0.37655  0.83458  1.0000
  H   H1581     1.0  0.21088  0.41087  0.85138  1.0000
  C   C1297     1.0  0.22835  0.43593  0.88667  1.0000
  C   C1298     1.0  0.20457  0.45098  0.89995  1.0000
  H   H1582     1.0  0.19805  0.45580  0.90995  1.0000
  Fe  Fe171     1.0  0.26050  0.43324  0.86010  1.0000
  C   C1299     1.0  0.19465  0.46900  0.81063  1.0000
  S   S351      1.0  0.18035  0.34739  0.81694  1.0000
  C   C1300     1.0  0.17683  0.40549  0.87810  1.0000
  H   H1583     1.0  0.39432  0.34207  0.89386  1.0000
  C   C1301     1.0  0.15809  0.42108  0.90112  1.0000
  H   H1584     1.0  0.29612  0.47470  0.83278  1.0000
  C   C1302     1.0  0.22158  0.43877  0.87402  1.0000
  S   S352      1.0  0.45114  0.36707  0.83918  1.0000
  H   H1585     1.0  0.18435  0.40023  0.86875  1.0000
  H   H1586     1.0  0.17654  0.43320  0.89618  1.0000
  Fe  Fe172     1.0  0.48287  0.24450  0.94669  1.0000
  N   N91       1.0  0.46638  0.29396  0.86503  1.0000
  N   N92       1.0  0.43059  0.25597  0.96901  1.0000
  C   C1303     1.0  0.24547  0.29609  0.81031  1.0000
  Fe  Fe173     1.0  0.20289  0.35523  0.81079  1.0000
  H   H1587     1.0  0.37963  0.25460  0.87197  1.0000
  S   S353      1.0  0.38698  0.30397  0.85958  1.0000
  Fe  Fe174     1.0  0.18917  0.38193  0.82703  1.0000
  Fe  Fe175     1.0  0.16940  0.37274  0.81057  1.0000
  C   C1304     1.0  0.22918  0.32222  0.80851  1.0000
  H   H1588     1.0  0.25541  0.28796  0.80536  1.0000
  C   C1305     1.0  0.07573  0.44959  0.94388  1.0000
  C   C1306     1.0  0.42775  0.35193  0.84430  1.0000
  C   C1307     1.0  0.45102  0.33920  0.89215  1.0000
  S   S354      1.0  0.28476  0.44478  0.81831  1.0000
  N   N93       1.0  0.40261  0.24909  0.85740  1.0000
  H   H1589     1.0  0.29261  0.27301  0.88019  1.0000
  H   H1590     1.0  0.21553  0.44565  0.83705  1.0000
  C   C1308     1.0  0.29672  0.35711  0.82141  1.0000
  C   C1309     1.0  0.44330  0.35260  0.83703  1.0000
  H   H1591     1.0  0.04456  0.46103  0.95099  1.0000
  C   C1310     1.0  0.24220  0.31167  0.80232  1.0000
  H   H1592     1.0  0.45239  0.30069  0.94849  1.0000
  S   S355      1.0  0.27947  0.44603  0.85489  1.0000
  H   H1593     1.0  0.12630  0.33475  0.86048  1.0000
  H   H1594     1.0  0.03913  0.44456  0.94887  1.0000
  S   S356      1.0  0.35095  0.32234  0.85702  1.0000
  C   C1311     1.0  0.42099  0.34098  0.84213  1.0000
  H   H1595     1.0  0.40912  0.31997  0.88299  1.0000
  H   H1596     1.0  0.45685  0.26545  0.87406  1.0000
  S   S357      1.0  0.37888  0.34196  0.84541  1.0000
  S   S358      1.0  0.22512  0.34166  0.79838  1.0000
  H   H1597     1.0  0.41861  0.34264  0.87948  1.0000
  H   H1598     1.0  0.44254  0.26200  0.94527  1.0000
  C   C1312     1.0  0.21753  0.41011  0.83978  1.0000
  H   H1599     1.0  0.23615  0.41927  0.84159  1.0000
  H   H1600     1.0  0.35134  0.25732  0.84290  1.0000
  C   C1313     1.0  0.19829  0.45469  0.88680  1.0000
  C   C1314     1.0  0.27208  0.37531  0.81974  1.0000
  H   H1601     1.0  0.07616  0.44665  0.97199  1.0000
  S   S359      1.0  0.27468  0.41538  0.84653  1.0000
  H   H1602     1.0  0.29881  0.33441  0.81887  1.0000
  C   C1315     1.0  0.34437  0.26857  0.83866  1.0000
  C   C1316     1.0  0.33207  0.26958  0.83179  1.0000
  C   C1317     1.0  0.32667  0.29760  0.82719  1.0000
  H   H1603     1.0  0.25597  0.46971  0.89753  1.0000
  Fe  Fe176     1.0  0.36883  0.30288  0.84794  1.0000
  C   C1318     1.0  0.42665  0.33836  0.88718  1.0000
  H   H1604     1.0  0.44220  0.35297  0.87208  1.0000
  H   H1605     1.0  0.34094  0.39182  0.85227  1.0000
  C   C1319     1.0  0.42963  0.33087  0.83237  1.0000
  H   H1606     1.0  0.30301  0.40236  0.88213  1.0000
  N   N94       1.0  0.40870  0.32180  0.90604  1.0000
  C   C1320     1.0  0.40629  0.31172  0.92191  1.0000
  H   H1607     1.0  0.46281  0.31211  0.87710  1.0000
  H   H1608     1.0  0.30870  0.35459  0.82274  1.0000
  Fe  Fe177     1.0  0.39493  0.32072  0.83781  1.0000
  S   S360      1.0  0.36263  0.28036  0.84943  1.0000
  H   H1609     1.0  0.12019  0.36386  0.84777  1.0000
  C   C1321     1.0  0.14093  0.34341  0.83263  1.0000
  C   C1322     1.0  0.34768  0.28205  0.84004  1.0000
  H   H1610     1.0  0.35177  0.36680  0.84405  1.0000
  H   H1611     1.0  0.18840  0.43782  0.82521  1.0000
  C   C1323     1.0  0.42348  0.32730  0.90131  1.0000
  S   S361      1.0  0.48194  0.33657  0.85805  1.0000
  C   C1324     1.0  0.45215  0.34213  0.82769  1.0000
  C   C1325     1.0  0.02114  0.36634  0.92595  1.0000
  C   C1326     1.0  0.23181  0.41490  0.83425  1.0000
  C   C1327     1.0  0.33655  0.38944  0.84361  1.0000
  H   H1612     1.0  0.41554  0.30086  0.92284  1.0000
  Fe  Fe178     1.0  0.36156  0.33735  0.83511  1.0000
  S   S362      1.0  0.42098  0.31794  0.82843  1.0000
  Fe  Fe179     1.0  0.29294  0.42946  0.83960  1.0000
  H   H1613     1.0  0.43411  0.31306  0.92090  1.0000
  C   C1328     1.0  0.13310  0.37530  0.78090  1.0000
  C   C1329     1.0  0.40867  0.31279  0.89499  1.0000
  C   C1330     1.0  0.43513  0.32189  0.91029  1.0000
  C   C1331     1.0  0.44016  0.34427  0.88278  1.0000
  Fe  Fe180     1.0  0.26514  0.43194  0.82664  1.0000
  C   C1332     1.0  0.44864  0.32785  0.90573  1.0000
  C   C1333     1.0  0.34270  0.37528  0.83895  1.0000
  H   H1614     1.0  0.27000  0.40079  0.90309  1.0000
  C   C1334     1.0  0.44527  0.33136  0.82528  1.0000
  H   H1615     1.0  0.27439  0.38040  0.91117  1.0000
  H   H1616     1.0  0.41886  0.30273  0.89463  1.0000
  H   H1617     1.0  0.45735  0.32375  0.91278  1.0000
  S   S363      1.0  0.99773  0.36392  0.79595  1.0000
  S   S364      1.0  0.48636  0.37220  0.85217  1.0000
  H   H1618     1.0  0.46809  0.29271  0.88821  1.0000
  C   C1335     1.0  0.20664  0.44826  0.87402  1.0000
  Fe  Fe181     1.0  0.29617  0.26512  0.82427  1.0000
  C   C1336     1.0  0.27968  0.39017  0.90342  1.0000
  H   H1619     1.0  0.28824  0.39217  0.90879  1.0000
  H   H1620     1.0  0.39786  0.30818  0.89830  1.0000
  H   H1621     1.0  0.10744  0.33654  0.85794  1.0000
  C   C1337     1.0  0.11628  0.36101  0.83868  1.0000
  H   H1622     1.0  0.04356  0.39383  0.79913  1.0000
  H   H1623     1.0  0.45203  0.32358  0.81769  1.0000
  C   C1338     1.0  0.33888  0.29659  0.83418  1.0000
  H   H1624     1.0  0.34146  0.30707  0.83502  1.0000
  H   H1625     1.0  0.29951  0.36583  0.91232  1.0000
  N   N95       1.0  0.19821  0.46316  0.82629  1.0000
  C   C1339     1.0  0.17577  0.46238  0.85023  1.0000
  H   H1626     1.0  0.45438  0.25784  0.95918  1.0000
  H   H1627     1.0  0.17758  0.47221  0.85318  1.0000
  H   H1628     1.0  0.15921  0.41944  0.95791  1.0000
  C   C1340     1.0  0.41021  0.26259  0.95311  1.0000
  C   C1341     1.0  0.32310  0.28410  0.82615  1.0000
  C   C1342     1.0  0.12002  0.33401  0.85210  1.0000
  S   S365      1.0  0.37845  0.31766  0.82530  1.0000
  H   H1629     1.0  0.24429  0.45812  0.89512  1.0000
  H   H1630     1.0  0.10124  0.33070  0.79545  1.0000
  C   C1343     1.0  0.13576  0.39678  0.94663  1.0000
  H   H1631     1.0  0.39458  0.40061  0.84516  1.0000
  H   H1632     1.0  0.46761  0.29960  0.84042  1.0000
  H   H1633     1.0  0.32081  0.34309  0.91057  1.0000
  C   C1344     1.0  0.30484  0.36348  0.90093  1.0000
  Fe  Fe182     1.0  0.47630  0.35919  0.84138  1.0000
  H   H1634     1.0  0.20395  0.47456  0.80211  1.0000
  H   H1635     1.0  0.29073  0.26422  0.90052  1.0000
  S   S366      1.0  0.30744  0.28575  0.81771  1.0000
  S   S367      1.0  0.28219  0.26131  0.80954  1.0000
  H   H1636     1.0  0.41267  0.27978  0.91537  1.0000
  H   H1637     1.0  0.27439  0.31285  0.81248  1.0000
  H   H1638     1.0  0.07245  0.46068  0.94783  1.0000
  H   H1639     1.0  0.26492  0.38695  0.81976  1.0000
  N   N96       1.0  0.28706  0.38721  0.88764  1.0000
  C   C1345     1.0  0.02791  0.35639  0.77966  1.0000
  H   H1640     1.0  0.26454  0.39581  0.88143  1.0000
  H   H1641     1.0  0.30965  0.40582  0.82117  1.0000
  C   C1346     1.0  0.32464  0.40046  0.83721  1.0000
  C   C1347     1.0  0.29994  0.37319  0.88733  1.0000
  H   H1642     1.0  0.01345  0.34595  0.92802  1.0000
  C   C1348     1.0  0.43639  0.26673  0.90987  1.0000
  H   H1643     1.0  0.29761  0.40045  0.86572  1.0000
  C   C1349     1.0  0.18170  0.44321  0.83479  1.0000
  S   S368      1.0  0.47865  0.23557  0.97252  1.0000
  H   H1644     1.0  0.14722  0.33161  0.83075  1.0000
  S   S369      1.0  0.34539  0.35499  0.82101  1.0000
  C   C1350     1.0  0.38101  0.39357  0.83373  1.0000
  C   C1351     1.0  0.47592  0.27796  0.86518  1.0000
  C   C1352     1.0  0.44924  0.29492  0.86916  1.0000
  H   H1645     1.0  0.11939  0.36954  0.82765  1.0000
  C   C1353     1.0  0.23988  0.47501  0.86691  1.0000
  H   H1646     1.0  0.16537  0.32270  0.78998  1.0000
  H   H1647     1.0  0.05095  0.37341  0.80006  1.0000
  H   H1648     1.0  0.38203  0.36165  0.79273  1.0000
  H   H1649     1.0  0.33412  0.33623  0.88539  1.0000
  H   H1650     1.0  0.27879  0.38464  0.86882  1.0000
  H   H1651     1.0  0.10331  0.36298  0.84210  1.0000
  N   N97       1.0  0.12370  0.34489  0.83688  1.0000
  H   H1652     1.0  0.31484  0.26346  0.86138  1.0000
  C   C1354     1.0  0.46930  0.26463  0.87042  1.0000
  C   C1355     1.0  0.27460  0.38558  0.88114  1.0000
  C   C1356     1.0  0.43721  0.30133  0.97105  1.0000
  H   H1653     1.0  0.48231  0.30519  0.84573  1.0000
  H   H1654     1.0  0.12788  0.33518  0.78818  1.0000
  C   C1357     1.0  0.15070  0.39818  0.93807  1.0000
  C   C1358     1.0  0.18354  0.30142  0.78901  1.0000
  H   H1655     1.0  0.12346  0.32173  0.85086  1.0000
  C   C1359     1.0  0.32464  0.34640  0.88591  1.0000
  H   H1656     1.0  0.17039  0.35762  0.78435  1.0000
  H   H1657     1.0  0.23282  0.46599  0.87193  1.0000
  C   C1360     1.0  0.01953  0.38225  0.91988  1.0000
  C   C1361     1.0  0.31881  0.39728  0.82620  1.0000
  C   C1362     1.0  0.43938  0.24332  0.90103  1.0000
  H   H1658     1.0  0.29060  0.32193  0.80534  1.0000
  H   H1659     1.0  0.13849  0.34196  0.80613  1.0000
  S   S370      1.0  0.25690  0.42242  0.81104  1.0000
  H   H1660     1.0  0.44249  0.30715  0.86854  1.0000
  C   C1363     1.0  0.12674  0.34009  0.81012  1.0000
  C   C1364     1.0  0.09620  0.33568  0.81803  1.0000
  Fe  Fe183     1.0  0.26964  0.46035  0.83435  1.0000
  H   H1661     1.0  0.08434  0.33401  0.82090  1.0000
  C   C1365     1.0  0.26506  0.34256  0.79852  1.0000
  C   C1366     1.0  0.43390  0.23930  0.96853  1.0000
  H   H1662     1.0  0.21276  0.44178  0.82006  1.0000
  H   H1663     1.0  0.29195  0.38092  0.82327  1.0000
  H   H1664     1.0  0.46136  0.34402  0.88885  1.0000
  C   C1367     1.0  0.44716  0.26185  0.84659  1.0000
  C   C1368     1.0  0.22049  0.40344  0.81535  1.0000
  C   C1369     1.0  0.01179  0.35827  0.92299  1.0000
  C   C1370     1.0  0.44570  0.24693  0.85496  1.0000
  C   C1371     1.0  0.39489  0.39451  0.83653  1.0000
  C   C1372     1.0  0.32015  0.35567  0.87239  1.0000
  H   H1665     1.0  0.19217  0.30966  0.81913  1.0000
  H   H1666     1.0  0.40106  0.26151  0.90938  1.0000
  C   C1373     1.0  0.41966  0.26865  0.84627  1.0000
  C   C1374     1.0  0.38134  0.38571  0.82261  1.0000
  H   H1667     1.0  0.16695  0.42670  0.84259  1.0000
  H   H1668     1.0  0.20356  0.32015  0.77573  1.0000
  H   H1669     1.0  0.18735  0.33043  0.78789  1.0000
  C   C1375     1.0  0.44593  0.25350  0.90477  1.0000
  C   C1376     1.0  0.19424  0.47076  0.97328  1.0000
  H   H1670     1.0  0.37013  0.38559  0.82097  1.0000
  S   S371      1.0  0.07059  0.34069  0.79042  1.0000
  S   S372      1.0  0.13707  0.47039  0.94882  1.0000
  H   H1671     1.0  0.39647  0.39099  0.78402  1.0000
  H   H1672     1.0  0.40985  0.27763  0.84300  1.0000
  C   C1377     1.0  0.04861  0.36470  0.83077  1.0000
  H   H1673     1.0  0.41901  0.35427  0.80392  1.0000
  H   H1674     1.0  0.26238  0.46032  0.88163  1.0000
  C   C1378     1.0  0.46996  0.30409  0.84938  1.0000
  C   C1379     1.0  0.26610  0.36389  0.81747  1.0000
  S   S373      1.0  0.01266  0.35867  0.86326  1.0000
  S   S374      1.0  0.19229  0.38051  0.80229  1.0000
  H   H1675     1.0  0.20575  0.32368  0.79313  1.0000
  C   C1380     1.0  0.33449  0.28923  0.89203  1.0000
  H   H1676     1.0  0.19314  0.41950  0.87569  1.0000
  H   H1677     1.0  0.99342  0.41525  0.83049  1.0000
  H   H1678     1.0  0.05829  0.42132  0.94484  1.0000
  H   H1679     1.0  0.02986  0.36024  0.93281  1.0000
  H   H1680     1.0  0.11445  0.37157  0.96434  1.0000
  H   H1681     1.0  0.08676  0.44262  0.94738  1.0000
  C   C1381     1.0  0.00070  0.36590  0.91357  1.0000
  H   H1682     1.0  0.21613  0.39914  0.80795  1.0000
  C   C1382     1.0  0.20091  0.47632  0.83082  1.0000
  H   H1683     1.0  0.32834  0.23486  0.89556  1.0000
  C   C1383     1.0  0.07603  0.38523  0.96286  1.0000
  H   H1684     1.0  0.27549  0.34518  0.78938  1.0000
  H   H1685     1.0  0.05079  0.45521  0.93267  1.0000
  H   H1686     1.0  0.24964  0.31544  0.79122  1.0000
  H   H1687     1.0  0.17051  0.40768  0.93547  1.0000
  H   H1688     1.0  0.47666  0.29418  0.95811  1.0000
  H   H1689     1.0  0.00309  0.39211  0.86161  1.0000
  C   C1384     1.0  0.09208  0.37966  0.95790  1.0000
  S   S375      1.0  0.18045  0.46798  0.88574  1.0000
  C   C1385     1.0  0.13005  0.43549  0.97394  1.0000
  C   C1386     1.0  0.21302  0.45117  0.82534  1.0000
  C   C1387     1.0  0.40658  0.35429  0.80503  1.0000
  S   S376      1.0  0.46927  0.24020  0.93214  1.0000
  C   C1388     1.0  0.18736  0.46420  0.96556  1.0000
  C   C1389     1.0  0.04414  0.35108  0.77833  1.0000
  N   N98       1.0  0.39658  0.37017  0.80199  1.0000
  H   H1690     1.0  0.40235  0.34780  0.81695  1.0000
  H   H1691     1.0  0.15594  0.39278  0.92824  1.0000
  C   C1390     1.0  0.38108  0.36847  0.80134  1.0000
  C   C1391     1.0  0.40919  0.38767  0.82817  1.0000
  C   C1392     1.0  0.18487  0.30700  0.81275  1.0000
  H   H1692     1.0  0.37454  0.28747  0.95587  1.0000
  H   H1693     1.0  0.21562  0.29217  0.78644  1.0000
  H   H1694     1.0  0.42003  0.38837  0.83038  1.0000
  C   C1393     1.0  0.19768  0.32055  0.78801  1.0000
  H   H1695     1.0  0.19374  0.45951  0.80585  1.0000
  C   C1394     1.0  0.17944  0.45235  0.97390  1.0000
  C   C1395     1.0  0.44249  0.26324  0.95693  1.0000
  H   H1696     1.0  0.20629  0.28235  0.80544  1.0000
  H   H1697     1.0  0.12260  0.44153  0.96536  1.0000
  H   H1698     1.0  0.22326  0.45604  0.81799  1.0000
  H   H1699     1.0  0.48254  0.30131  0.87322  1.0000
  H   H1700     1.0  0.07763  0.41811  0.94773  1.0000
  H   H1701     1.0  0.42109  0.37471  0.81091  1.0000
  H   H1702     1.0  0.02705  0.38845  0.92184  1.0000
  C   C1396     1.0  0.06806  0.42707  0.94296  1.0000
  C   C1397     1.0  0.38582  0.28126  0.95846  1.0000
  H   H1703     1.0  0.39551  0.25479  0.87984  1.0000
  H   H1704     1.0  0.28954  0.25370  0.88727  1.0000
  C   C1398     1.0  0.40350  0.37887  0.78657  1.0000
  S   S377      1.0  0.17182  0.44307  0.96443  1.0000
  H   H1705     1.0  0.25078  0.46958  0.85957  1.0000
  C   C1399     1.0  0.10212  0.37634  0.96809  1.0000
  H   H1706     1.0  0.18334  0.47772  0.81091  1.0000
  C   C1400     1.0  0.16002  0.30861  0.77831  1.0000
  H   H1707     1.0  0.45576  0.23857  0.85856  1.0000
  S   S378      1.0  0.39116  0.23693  0.93985  1.0000
  C   C1401     1.0  0.39036  0.28360  0.97068  1.0000
  H   H1708     1.0  0.34162  0.25182  0.96980  1.0000
  H   H1709     1.0  0.40520  0.24786  0.83376  1.0000
  H   H1710     1.0  0.32266  0.24477  0.96396  1.0000
  C   C1402     1.0  0.31562  0.24022  0.89697  1.0000
  H   H1711     1.0  0.31062  0.24093  0.90932  1.0000
  C   C1403     1.0  0.00144  0.34323  0.90449  1.0000
  S   S379      1.0  0.16991  0.47926  0.92681  1.0000
  Fe  Fe184     1.0  0.29125  0.23576  0.81841  1.0000
  H   H1712     1.0  0.20083  0.47950  0.96679  1.0000
  C   C1404     1.0  0.40322  0.23221  0.86367  1.0000
  H   H1713     1.0  0.14949  0.31696  0.77582  1.0000
  H   H1714     1.0  0.19793  0.27848  0.78573  1.0000
  S   S380      1.0  0.27153  0.23325  0.83929  1.0000
  H   H1715     1.0  0.44682  0.23301  0.89726  1.0000
  H   H1716     1.0  0.26903  0.23211  0.80150  1.0000
  C   C1405     1.0  0.31913  0.23505  0.97275  1.0000
  C   C1406     1.0  0.99917  0.38220  0.90780  1.0000
  C   C1407     1.0  0.40475  0.27536  0.97431  1.0000
  S   S381      1.0  0.41494  0.23262  0.89952  1.0000
  H   H1717     1.0  0.44505  0.23265  0.97210  1.0000
  C   C1408     1.0  0.18752  0.28727  0.78393  1.0000
  Fe  Fe185     1.0  0.99269  0.36726  0.85074  1.0000
  H   H1718     1.0  0.31005  0.23191  0.89482  1.0000
  C   C1409     1.0  0.04916  0.42589  0.97516  1.0000
  C   C1410     1.0  0.45028  0.68855  0.10546  1.0000
  S   S382      1.0  0.15663  0.66588  0.13968  1.0000
  S   S383      1.0  0.18145  0.66837  0.15845  1.0000
  Fe  Fe186     1.0  0.17935  0.65193  0.14548  1.0000
  S   S384      1.0  0.18427  0.62588  0.15097  1.0000
  Fe  Fe187     1.0  0.15986  0.68351  0.15040  1.0000
  C   C1411     1.0  0.28691  0.64787  0.14471  1.0000
  S   S385      1.0  0.19366  0.66219  0.12304  1.0000
  S   S386      1.0  0.07994  0.61664  0.09284  1.0000
  H   H1719     1.0  0.16143  0.50680  0.03727  1.0000
  H   H1720     1.0  0.04841  0.68233  0.12420  1.0000
  S   S387      1.0  0.40140  0.66219  0.07987  1.0000
  H   H1721     1.0  0.16640  0.55363  0.02923  1.0000
  C   C1412     1.0  0.13559  0.63813  0.10850  1.0000
  H   H1722     1.0  0.02639  0.65870  0.05054  1.0000
  Fe  Fe188     1.0  0.39806  0.65049  0.13555  1.0000
  Fe  Fe189     1.0  0.16570  0.57646  0.07725  1.0000
  S   S388      1.0  0.16771  0.60083  0.06514  1.0000
  S   S389      1.0  0.14505  0.56945  0.09517  1.0000
  Fe  Fe190     1.0  0.19766  0.56250  0.05957  1.0000
  S   S390      1.0  0.20247  0.58571  0.04581  1.0000
  S   S391      1.0  0.21489  0.54014  0.05645  1.0000
  Fe  Fe191     1.0  0.19230  0.59289  0.06862  1.0000
  S   S392      1.0  0.20110  0.60669  0.07961  1.0000
  Fe  Fe192     1.0  0.17744  0.59129  0.04364  1.0000
  S   S393      1.0  0.18953  0.56917  0.08254  1.0000
  S   S394      1.0  0.17351  0.56747  0.05551  1.0000
  H   H1723     1.0  0.34441  0.52826  0.14478  1.0000
  Fe  Fe193     1.0  0.27249  0.59158  0.13101  1.0000
  S   S395      1.0  0.28322  0.60512  0.10799  1.0000
  S   S396      1.0  0.25700  0.60608  0.14778  1.0000
  Fe  Fe194     1.0  0.29119  0.56030  0.12433  1.0000
  S   S397      1.0  0.30360  0.57153  0.10101  1.0000
  S   S398      1.0  0.29947  0.53411  0.12986  1.0000
  Fe  Fe195     1.0  0.30577  0.58908  0.11249  1.0000
  S   S399      1.0  0.32880  0.59661  0.10533  1.0000
  Fe  Fe196     1.0  0.28005  0.58642  0.09874  1.0000
  S   S400      1.0  0.27355  0.59001  0.07607  1.0000
  S   S401      1.0  0.29538  0.57664  0.13618  1.0000
  S   S402      1.0  0.26726  0.57411  0.12134  1.0000
  C   C1413     1.0  0.26652  0.50251  0.13490  1.0000
  C   C1414     1.0  0.26043  0.51823  0.13539  1.0000
  C   C1415     1.0  0.27039  0.52806  0.13380  1.0000
  C   C1416     1.0  0.28652  0.52213  0.13204  1.0000
  C   C1417     1.0  0.29259  0.50636  0.13173  1.0000
  C   C1418     1.0  0.28266  0.49663  0.13293  1.0000
  H   H1724     1.0  0.24794  0.52278  0.13721  1.0000
  H   H1725     1.0  0.26555  0.54012  0.13428  1.0000
  H   H1726     1.0  0.30504  0.50165  0.13048  1.0000
  H   H1727     1.0  0.16067  0.63668  0.00610  1.0000
  C   C1419     1.0  0.22115  0.60061  0.07910  1.0000
  C   C1420     1.0  0.22670  0.60038  0.09190  1.0000
  C   C1421     1.0  0.24283  0.59664  0.09121  1.0000
  C   C1422     1.0  0.25338  0.59348  0.07760  1.0000
  C   C1423     1.0  0.24782  0.59344  0.06491  1.0000
  C   C1424     1.0  0.23169  0.59686  0.06571  1.0000
  H   H1728     1.0  0.21854  0.60331  0.10227  1.0000
  H   H1729     1.0  0.24707  0.59666  0.10104  1.0000
  H   H1730     1.0  0.25597  0.59110  0.05433  1.0000
  H   H1731     1.0  0.22742  0.59719  0.05576  1.0000
  C   C1425     1.0  0.44849  0.70088  0.09228  1.0000
  C   C1426     1.0  0.15873  0.63512  0.98388  1.0000
  C   C1427     1.0  0.18804  0.50207  0.06857  1.0000
  C   C1428     1.0  0.18112  0.51567  0.07410  1.0000
  C   C1429     1.0  0.18960  0.52715  0.07098  1.0000
  C   C1430     1.0  0.20503  0.52495  0.06245  1.0000
  C   C1431     1.0  0.21230  0.51087  0.05791  1.0000
  C   C1432     1.0  0.20374  0.49951  0.06079  1.0000
  H   H1732     1.0  0.16907  0.51753  0.08047  1.0000
  H   H1733     1.0  0.18410  0.53776  0.07503  1.0000
  H   H1734     1.0  0.22425  0.50908  0.05133  1.0000
  H   H1735     1.0  0.02939  0.60896  0.10994  1.0000
  C   C1433     1.0  0.34647  0.61394  0.10978  1.0000
  C   C1434     1.0  0.33302  0.60777  0.11580  1.0000
  C   C1435     1.0  0.32363  0.61008  0.13019  1.0000
  C   C1436     1.0  0.32784  0.61833  0.13859  1.0000
  H   H1736     1.0  0.35379  0.61218  0.09865  1.0000
  H   H1737     1.0  0.31329  0.60528  0.13498  1.0000
  H   H1738     1.0  0.45396  0.71672  0.15887  1.0000
  C   C1437     1.0  0.40952  0.71083  0.05613  1.0000
  C   C1438     1.0  0.41981  0.69780  0.05124  1.0000
  C   C1439     1.0  0.41701  0.68293  0.05834  1.0000
  C   C1440     1.0  0.40421  0.68099  0.07073  1.0000
  C   C1441     1.0  0.39407  0.69398  0.07591  1.0000
  C   C1442     1.0  0.39655  0.70896  0.06840  1.0000
  H   H1739     1.0  0.42984  0.69922  0.04176  1.0000
  C   C1443     1.0  0.18338  0.56768  0.99065  1.0000
  H   H1740     1.0  0.38423  0.69248  0.08557  1.0000
  H   H1741     1.0  0.38868  0.71896  0.07238  1.0000
  H   H1742     1.0  0.10584  0.62011  0.11482  1.0000
  H   H1743     1.0  0.01495  0.61872  0.12353  1.0000
  H   H1744     1.0  0.28745  0.48448  0.13276  1.0000
  H   H1745     1.0  0.17182  0.60713  0.12652  1.0000
  H   H1746     1.0  0.04822  0.70877  0.10828  1.0000
  C   C1444     1.0  0.47526  0.64156  0.08853  1.0000
  C   C1445     1.0  0.48612  0.71085  0.10488  1.0000
  C   C1446     1.0  0.02492  0.64796  0.07483  1.0000
  H   H1747     1.0  0.47581  0.64462  0.07621  1.0000
  C   C1447     1.0  0.16713  0.59173  0.99732  1.0000
  C   C1448     1.0  0.09819  0.60377  0.09316  1.0000
  C   C1449     1.0  0.11211  0.60878  0.08590  1.0000
  C   C1450     1.0  0.12655  0.59824  0.08623  1.0000
  C   C1451     1.0  0.12713  0.58272  0.09404  1.0000
  C   C1452     1.0  0.11320  0.57776  0.10143  1.0000
  C   C1453     1.0  0.09876  0.58823  0.10087  1.0000
  H   H1748     1.0  0.11185  0.62078  0.08023  1.0000
  H   H1749     1.0  0.13718  0.60229  0.08091  1.0000
  H   H1750     1.0  0.11358  0.56578  0.10756  1.0000
  H   H1751     1.0  0.08803  0.58430  0.10657  1.0000
  C   C1454     1.0  0.12291  0.61502  0.99421  1.0000
  H   H1752     1.0  0.31124  0.73067  0.15763  1.0000
  C   C1455     1.0  0.45256  0.65902  0.15092  1.0000
  H   H1753     1.0  0.10048  0.71034  0.13484  1.0000
  C   C1456     1.0  0.47783  0.68027  0.09466  1.0000
  C   C1457     1.0  0.20439  0.61965  0.15048  1.0000
  C   C1458     1.0  0.21155  0.62785  0.15609  1.0000
  C   C1459     1.0  0.22762  0.62323  0.15559  1.0000
  C   C1460     1.0  0.23675  0.61074  0.14896  1.0000
  C   C1461     1.0  0.22968  0.60264  0.14306  1.0000
  C   C1462     1.0  0.21343  0.60697  0.14403  1.0000
  H   H1754     1.0  0.20467  0.63762  0.16109  1.0000
  H   H1755     1.0  0.23298  0.62945  0.16028  1.0000
  H   H1756     1.0  0.23667  0.59297  0.13794  1.0000
  H   H1757     1.0  0.20793  0.60067  0.13955  1.0000
  H   H1758     1.0  0.44055  0.68674  0.11512  1.0000
  C   C1463     1.0  0.42770  0.71957  0.10447  1.0000
  H   H1759     1.0  0.19177  0.57387  0.02189  1.0000
  C   C1464     1.0  0.04830  0.62371  0.06454  1.0000
  N   N99       1.0  0.43303  0.71149  0.09146  1.0000
  C   C1465     1.0  0.47596  0.63391  0.11996  1.0000
  H   H1760     1.0  0.44159  0.66735  0.09401  1.0000
  C   C1466     1.0  0.03070  0.64857  0.05894  1.0000
  H   H1761     1.0  0.11054  0.68643  0.12013  1.0000
  H   H1762     1.0  0.44096  0.73140  0.07552  1.0000
  C   C1467     1.0  0.35516  0.70660  0.06449  1.0000
  H   H1763     1.0  0.32075  0.61978  0.14988  1.0000
  H   H1764     1.0  0.16629  0.54293  0.00693  1.0000
  H   H1765     1.0  0.03307  0.69921  0.14919  1.0000
  H   H1766     1.0  0.31028  0.54640  0.06537  1.0000
  C   C1468     1.0  0.29808  0.51558  0.09081  1.0000
  H   H1767     1.0  0.14742  0.53997  0.01831  1.0000
  S   S403      1.0  0.01156  0.66350  0.17040  1.0000
  C   C1469     1.0  0.07181  0.69812  0.16458  1.0000
  H   H1768     1.0  0.31983  0.54007  0.15463  1.0000
  N   N100      1.0  0.24574  0.50917  0.08622  1.0000
  C   C1470     1.0  0.25883  0.49954  0.09363  1.0000
  C   C1471     1.0  0.23235  0.50141  0.09228  1.0000
  C   C1472     1.0  0.25102  0.50959  0.06933  1.0000
  C   C1473     1.0  0.24090  0.52474  0.08995  1.0000
  C   C1474     1.0  0.23681  0.52617  0.10563  1.0000
  C   C1475     1.0  0.23981  0.53879  0.07840  1.0000
  C   C1476     1.0  0.23198  0.54074  0.10947  1.0000
  C   C1477     1.0  0.23482  0.55329  0.08237  1.0000
  C   C1478     1.0  0.23095  0.55427  0.09786  1.0000
  H   H1769     1.0  0.26813  0.50598  0.09144  1.0000
  H   H1770     1.0  0.42679  0.63151  0.09982  1.0000
  H   H1771     1.0  0.15820  0.60201  0.99493  1.0000
  C   C1479     1.0  0.16363  0.50646  0.97560  1.0000
  H   H1772     1.0  0.17206  0.49707  0.99724  1.0000
  H   H1773     1.0  0.22860  0.49942  0.10513  1.0000
  H   H1774     1.0  0.19403  0.50352  0.97702  1.0000
  S   S404      1.0  0.05058  0.66377  0.98850  1.0000
  H   H1775     1.0  0.24143  0.51580  0.06312  1.0000
  H   H1776     1.0  0.04817  0.61318  0.08830  1.0000
  H   H1777     1.0  0.24233  0.53896  0.06619  1.0000
  H   H1778     1.0  0.23359  0.56385  0.07338  1.0000
  H   H1779     1.0  0.13309  0.61119  0.98560  1.0000
  N   N101      1.0  0.24173  0.64557  0.09859  1.0000
  C   C1480     1.0  0.23816  0.63243  0.11168  1.0000
  C   C1481     1.0  0.25673  0.64010  0.08811  1.0000
  C   C1482     1.0  0.24400  0.65757  0.10521  1.0000
  C   C1483     1.0  0.22898  0.65125  0.09002  1.0000
  C   C1484     1.0  0.21923  0.66643  0.08907  1.0000
  C   C1485     1.0  0.22577  0.64130  0.08253  1.0000
  C   C1486     1.0  0.20687  0.67108  0.08143  1.0000
  C   C1487     1.0  0.21336  0.64605  0.07498  1.0000
  C   C1488     1.0  0.20385  0.66089  0.07452  1.0000
  H   H1780     1.0  0.23706  0.62249  0.10776  1.0000
  H   H1781     1.0  0.24747  0.62783  0.11847  1.0000
  H   H1782     1.0  0.22691  0.63606  0.11983  1.0000
  H   H1783     1.0  0.25689  0.62947  0.08448  1.0000
  H   H1784     1.0  0.26681  0.63699  0.09379  1.0000
  H   H1785     1.0  0.25910  0.64924  0.07740  1.0000
  H   H1786     1.0  0.23343  0.66150  0.11396  1.0000
  H   H1787     1.0  0.25379  0.65303  0.11140  1.0000
  H   H1788     1.0  0.24675  0.66788  0.09604  1.0000
  H   H1789     1.0  0.22058  0.67483  0.09451  1.0000
  H   H1790     1.0  0.23278  0.62969  0.08259  1.0000
  H   H1791     1.0  0.19926  0.68255  0.08124  1.0000
  H   H1792     1.0  0.21101  0.63809  0.06959  1.0000
  H   H1793     1.0  0.19401  0.66452  0.06894  1.0000
  H   H1794     1.0  0.02948  0.70810  0.13054  1.0000
  N   N102      1.0  0.11353  0.61918  0.03604  1.0000
  C   C1489     1.0  0.12034  0.60296  0.04326  1.0000
  C   C1490     1.0  0.12438  0.62911  0.03466  1.0000
  C   C1491     1.0  0.09867  0.62451  0.04680  1.0000
  C   C1492     1.0  0.11145  0.61986  0.02044  1.0000
  C   C1493     1.0  0.12453  0.61507  0.00887  1.0000
  C   C1494     1.0  0.47175  0.72477  0.16425  1.0000
  H   H1795     1.0  0.05701  0.72129  0.11343  1.0000
  C   C1495     1.0  0.16406  0.49690  0.99066  1.0000
  H   H1796     1.0  0.22695  0.56557  0.10084  1.0000
  H   H1797     1.0  0.13234  0.59858  0.03676  1.0000
  H   H1798     1.0  0.12147  0.60191  0.05527  1.0000
  H   H1799     1.0  0.11294  0.59494  0.04391  1.0000
  H   H1800     1.0  0.13648  0.62463  0.02850  1.0000
  H   H1801     1.0  0.12530  0.62984  0.04624  1.0000
  H   H1802     1.0  0.12035  0.64114  0.02820  1.0000
  H   H1803     1.0  0.09014  0.61719  0.04885  1.0000
  H   H1804     1.0  0.10051  0.62394  0.05839  1.0000
  H   H1805     1.0  0.09320  0.63684  0.04232  1.0000
  H   H1806     1.0  0.15854  0.53551  0.97887  1.0000
  H   H1807     1.0  0.16614  0.58311  0.97822  1.0000
  S   S405      1.0  0.26943  0.72981  0.14735  1.0000
  H   H1808     1.0  0.42121  0.73117  0.07641  1.0000
  C   C1496     1.0  0.46261  0.72376  0.15454  1.0000
  H   H1809     1.0  0.20030  0.55536  0.00448  1.0000
  H   H1810     1.0  0.35387  0.71419  0.04042  1.0000
  C   C1497     1.0  0.28760  0.66972  0.17021  1.0000
  C   C1498     1.0  0.31868  0.71951  0.15648  1.0000
  H   H1811     1.0  0.15633  0.64989  0.11593  1.0000
  H   H1812     1.0  0.29929  0.51995  0.10005  1.0000
  C   C1499     1.0  0.18597  0.57581  0.01255  1.0000
  S   S406      1.0  0.01400  0.62711  0.15399  1.0000
  C   C1500     1.0  0.05591  0.68377  0.13112  1.0000
  C   C1501     1.0  0.42142  0.70244  0.09274  1.0000
  H   H1813     1.0  0.48689  0.69394  0.07257  1.0000
  C   C1502     1.0  0.43590  0.65737  0.09982  1.0000
  H   H1814     1.0  0.16282  0.51435  0.05257  1.0000
  C   C1503     1.0  0.06738  0.66848  0.02289  1.0000
  Fe  Fe197     1.0  0.08614  0.66621  0.05312  1.0000
  C   C1504     1.0  0.08344  0.66683  0.01665  1.0000
  C   C1505     1.0  0.19066  0.56520  0.00287  1.0000
  C   C1506     1.0  0.46192  0.63606  0.11553  1.0000
  H   H1815     1.0  0.12558  0.67199  0.98652  1.0000
  H   H1816     1.0  0.45162  0.63485  0.12465  1.0000
  H   H1817     1.0  0.43408  0.62908  0.11638  1.0000
  C   C1507     1.0  0.37404  0.73059  0.00660  1.0000
  H   H1818     1.0  0.42484  0.67292  0.05430  1.0000
  H   H1819     1.0  0.04503  0.66883  0.01905  1.0000
  H   H1820     1.0  0.43565  0.64640  0.07577  1.0000
  C   C1508     1.0  0.44726  0.64478  0.07849  1.0000
  C   C1509     1.0  0.30915  0.66081  0.15050  1.0000
  N   N103      1.0  0.44589  0.64288  0.09537  1.0000
  C   C1510     1.0  0.05745  0.66747  0.01416  1.0000
  H   H1821     1.0  0.11138  0.64643  0.10702  1.0000
  C   C1511     1.0  0.43781  0.62993  0.10364  1.0000
  C   C1512     1.0  0.23457  0.71397  0.14520  1.0000
  H   H1822     1.0  0.28781  0.52593  0.05566  1.0000
  C   C1513     1.0  0.48928  0.63932  0.09310  1.0000
  C   C1514     1.0  0.46210  0.70242  0.08029  1.0000
  H   H1823     1.0  0.46125  0.71886  0.10860  1.0000
  C   C1515     1.0  0.47654  0.69227  0.08158  1.0000
  H   H1824     1.0  0.33565  0.70535  0.11058  1.0000
  S   S407      1.0  0.25361  0.49053  0.13701  1.0000
  S   S408      1.0  0.18905  0.55436  0.97869  1.0000
  C   C1516     1.0  0.17169  0.58103  0.98778  1.0000
  H   H1825     1.0  0.46199  0.71155  0.06995  1.0000
  S   S409      1.0  0.99471  0.70295  0.14355  1.0000
  C   C1517     1.0  0.07949  0.66360  0.99270  1.0000
  Fe  Fe198     1.0  0.00089  0.64624  0.16639  1.0000
  N   N104      1.0  0.02510  0.63408  0.10306  1.0000
  C   C1518     1.0  0.01974  0.61941  0.11085  1.0000
  C   C1519     1.0  0.03812  0.63430  0.10956  1.0000
  C   C1520     1.0  0.01190  0.64710  0.10708  1.0000
  C   C1521     1.0  0.03068  0.63503  0.08612  1.0000
  C   C1522     1.0  0.20691  0.71756  0.15687  1.0000
  C   C1523     1.0  0.25523  0.66246  0.14828  1.0000
  C   C1524     1.0  0.14251  0.65501  0.99738  1.0000
  H   H1826     1.0  0.33777  0.72924  0.14092  1.0000
  C   C1525     1.0  0.15455  0.64180  0.99669  1.0000
  C   C1526     1.0  0.29170  0.51907  0.06605  1.0000
  C   C1527     1.0  0.32776  0.71707  0.10864  1.0000
  H   H1827     1.0  0.03429  0.63461  0.12210  1.0000
  H   H1828     1.0  0.04783  0.62388  0.10864  1.0000
  H   H1829     1.0  0.00798  0.64605  0.11988  1.0000
  H   H1830     1.0  0.31087  0.64883  0.15788  1.0000
  H   H1831     1.0  0.11041  0.67509  0.14832  1.0000
  H   H1832     1.0  0.09345  0.70383  0.16351  1.0000
  H   H1833     1.0  0.18732  0.50771  0.11054  1.0000
  C   C1528     1.0  0.10819  0.61979  0.99064  1.0000
  C   C1529     1.0  0.46472  0.67840  0.10657  1.0000
  H   H1834     1.0  0.16981  0.62744  0.08536  1.0000
  C   C1530     1.0  0.22135  0.72134  0.15465  1.0000
  H   H1835     1.0  0.14586  0.52155  0.04446  1.0000
  H   H1836     1.0  0.08343  0.70859  0.11968  1.0000
  H   H1837     1.0  0.41040  0.67364  0.14369  1.0000
  C   C1531     1.0  0.48139  0.72846  0.03828  1.0000
  C   C1532     1.0  0.21050  0.52610  0.02319  1.0000
  C   C1533     1.0  0.44445  0.64851  0.15002  1.0000
  H   H1838     1.0  0.21068  0.49578  0.00910  1.0000
  C   C1534     1.0  0.33981  0.72462  0.08138  1.0000
  C   C1535     1.0  0.19439  0.53119  0.02835  1.0000
  H   H1839     1.0  0.25500  0.49590  0.10636  1.0000
  C   C1536     1.0  0.03765  0.70679  0.13802  1.0000
  H   H1840     1.0  0.16279  0.64651  0.08949  1.0000
  H   H1841     1.0  0.16590  0.54083  0.04829  1.0000
  H   H1842     1.0  0.30648  0.54377  0.08607  1.0000
  H   H1843     1.0  0.14880  0.54771  0.04045  1.0000
  C   C1537     1.0  0.33265  0.57254  0.15175  1.0000
  H   H1844     1.0  0.28038  0.62998  0.13845  1.0000
  C   C1538     1.0  0.20055  0.49325  0.12745  1.0000
  Fe  Fe199     1.0  0.48149  0.67919  0.14750  1.0000
  H   H1845     1.0  0.41961  0.69398  0.10403  1.0000
  N   N105      1.0  0.28725  0.54277  0.07728  1.0000
  C   C1539     1.0  0.30111  0.54890  0.07578  1.0000
  C   C1540     1.0  0.27986  0.55169  0.06400  1.0000
  C   C1541     1.0  0.27577  0.54581  0.09174  1.0000
  C   C1542     1.0  0.06344  0.66510  0.99901  1.0000
  H   H1846     1.0  0.24571  0.71687  0.14333  1.0000
  C   C1543     1.0  0.16984  0.63468  0.09323  1.0000
  H   H1847     1.0  0.17699  0.60460  0.10671  1.0000
  C   C1544     1.0  0.14411  0.48479  0.98961  1.0000
  H   H1848     1.0  0.29798  0.56174  0.07464  1.0000
  C   C1545     1.0  0.28184  0.66218  0.14964  1.0000
  H   H1849     1.0  0.28824  0.55112  0.05266  1.0000
  H   H1850     1.0  0.27578  0.56428  0.06409  1.0000
  H   H1851     1.0  0.26940  0.54758  0.06437  1.0000
  H   H1852     1.0  0.28115  0.54197  0.10201  1.0000
  H   H1853     1.0  0.27052  0.55843  0.09096  1.0000
  H   H1854     1.0  0.26604  0.53978  0.09437  1.0000
  C   C1546     1.0  0.16011  0.53444  0.01603  1.0000
  C   C1547     1.0  0.05713  0.70892  0.11437  1.0000
  H   H1855     1.0  0.35077  0.57414  0.12148  1.0000
  C   C1548     1.0  0.19432  0.48386  0.10836  1.0000
  C   C1549     1.0  0.12270  0.65909  0.16533  1.0000
  H   H1856     1.0  0.26424  0.48857  0.08950  1.0000
  H   H1857     1.0  0.01626  0.65798  0.07789  1.0000
  H   H1858     1.0  0.29581  0.49796  0.05811  1.0000
  H   H1859     1.0  0.42441  0.69214  0.14609  1.0000
  H   H1860     1.0  0.44084  0.67758  0.97950  1.0000
  C   C1550     1.0  0.18354  0.52392  0.02623  1.0000
  S   S410      1.0  0.16784  0.60223  0.02209  1.0000
  C   C1551     1.0  0.35613  0.56200  0.12675  1.0000
  Fe  Fe200     1.0  0.08014  0.64183  0.08269  1.0000
  H   H1861     1.0  0.13611  0.61129  0.01123  1.0000
  Fe  Fe201     1.0  0.19410  0.67994  0.13521  1.0000
  C   C1552     1.0  0.13489  0.68366  0.10887  1.0000
  C   C1553     1.0  0.32152  0.57792  0.16410  1.0000
  Fe  Fe202     1.0  0.17105  0.67740  0.11792  1.0000
  H   H1862     1.0  0.22882  0.50940  0.01242  1.0000
  H   H1863     1.0  0.42508  0.69592  0.08333  1.0000
  H   H1864     1.0  0.21849  0.53199  0.02481  1.0000
  H   H1865     1.0  0.45169  0.65531  0.07151  1.0000
  C   C1554     1.0  0.09513  0.62492  0.00160  1.0000
  S   S411      1.0  0.13792  0.69610  0.16428  1.0000
  C   C1555     1.0  0.31015  0.56966  0.17294  1.0000
  H   H1866     1.0  0.15048  0.67514  0.07331  1.0000
  H   H1867     1.0  0.04313  0.64462  0.10324  1.0000
  C   C1556     1.0  0.14175  0.67758  0.08354  1.0000
  C   C1557     1.0  0.43009  0.68000  0.14702  1.0000
  S   S412      1.0  0.06664  0.65376  0.06424  1.0000
  S   S413      1.0  0.16603  0.67893  0.09483  1.0000
  S   S414      1.0  0.21781  0.68526  0.13095  1.0000
  S   S415      1.0  0.17265  0.69637  0.12796  1.0000
  S   S416      1.0  0.10071  0.65276  0.07079  1.0000
  S   S417      1.0  0.06813  0.65945  0.09715  1.0000
  S   S418      1.0  0.41379  0.72917  0.04740  1.0000
  C   C1558     1.0  0.21891  0.69917  0.14016  1.0000
  H   H1868     1.0  0.32904  0.56465  0.11890  1.0000
  C   C1559     1.0  0.17412  0.58908  0.00982  1.0000
  H   H1869     1.0  0.06249  0.67091  0.03429  1.0000
  C   C1560     1.0  0.43307  0.72360  0.07683  1.0000
  H   H1870     1.0  0.19450  0.70364  0.15139  1.0000
  H   H1871     1.0  0.12265  0.67530  0.07538  1.0000
  C   C1561     1.0  0.01611  0.68359  0.12600  1.0000
  H   H1872     1.0  0.01769  0.67554  0.13681  1.0000
  N   N106      1.0  0.05415  0.70034  0.13086  1.0000
  S   S419      1.0  0.34601  0.63505  0.14332  1.0000
  C   C1562     1.0  0.35050  0.62247  0.11802  1.0000
  C   C1563     1.0  0.14621  0.68039  0.09573  1.0000
  C   C1564     1.0  0.12604  0.67764  0.08471  1.0000
  C   C1565     1.0  0.32355  0.69148  0.16357  1.0000
  H   H1873     1.0  0.42690  0.71213  0.98258  1.0000
  H   H1874     1.0  0.18207  0.63599  0.09116  1.0000
  H   H1875     1.0  0.03282  0.66850  0.11197  1.0000
  C   C1566     1.0  0.06173  0.69712  0.15609  1.0000
  C   C1567     1.0  0.00564  0.69801  0.12602  1.0000
  C   C1568     1.0  0.14801  0.62517  0.11156  1.0000
  H   H1876     1.0  0.18719  0.61507  0.11253  1.0000
  H   H1877     1.0  0.24357  0.69741  0.13053  1.0000
  H   H1878     1.0  0.00161  0.64750  0.10265  1.0000
  H   H1879     1.0  0.05273  0.67685  0.14312  1.0000
  S   S420      1.0  0.36205  0.70322  0.13295  1.0000
  H   H1880     1.0  0.42648  0.71138  0.11599  1.0000
  C   C1569     1.0  0.02471  0.67961  0.11192  1.0000
  C   C1570     1.0  0.34122  0.62464  0.13249  1.0000
  S   S421      1.0  0.37594  0.71782  0.98250  1.0000
  S   S422      1.0  0.09509  0.68060  0.10032  1.0000
  Fe  Fe203     1.0  0.08762  0.67153  0.08386  1.0000
  C   C1571     1.0  0.00373  0.70841  0.11197  1.0000
  C   C1572     1.0  0.46489  0.73122  0.13885  1.0000
  C   C1573     1.0  0.11479  0.68076  0.09797  1.0000
  H   H1881     1.0  0.13814  0.68623  0.11813  1.0000
  H   H1882     1.0  0.16046  0.64299  0.17079  1.0000
  H   H1883     1.0  0.06848  0.70355  0.10752  1.0000
  C   C1574     1.0  0.01989  0.59548  0.16213  1.0000
  H   H1884     1.0  0.12508  0.62784  0.14348  1.0000
  Fe  Fe204     1.0  0.05650  0.67253  0.07753  1.0000
  H   H1885     1.0  0.42444  0.66026  0.09650  1.0000
  C   C1575     1.0  0.01177  0.70411  0.09791  1.0000
  C   C1576     1.0  0.02226  0.68971  0.09786  1.0000
  C   C1577     1.0  0.11923  0.68389  0.10994  1.0000
  C   C1578     1.0  0.48962  0.63553  0.10878  1.0000
  Fe  Fe205     1.0  0.38879  0.66087  0.10468  1.0000
  C   C1579     1.0  0.47237  0.72153  0.10215  1.0000
  C   C1580     1.0  0.15881  0.51761  0.04154  1.0000
  H   H1886     1.0  0.43336  0.65642  0.11258  1.0000
  H   H1887     1.0  0.36084  0.62725  0.11323  1.0000
  C   C1581     1.0  0.33836  0.69064  0.15362  1.0000
  H   H1888     1.0  0.10186  0.66267  0.99685  1.0000
  C   C1582     1.0  0.30259  0.49952  0.09194  1.0000
  C   C1583     1.0  0.26057  0.64835  0.14367  1.0000
  H   H1889     1.0  0.22885  0.54152  0.12153  1.0000
  C   C1584     1.0  0.11684  0.65187  0.14461  1.0000
  Fe  Fe206     1.0  0.37211  0.67888  0.12967  1.0000
  S   S423      1.0  0.36336  0.66933  0.11465  1.0000
  C   C1585     1.0  0.08565  0.70304  0.15692  1.0000
  C   C1586     1.0  0.12440  0.63654  0.14965  1.0000
  S   S424      1.0  0.03099  0.68393  0.08027  1.0000
  C   C1587     1.0  0.17537  0.61288  0.11411  1.0000
  S   S425      1.0  0.09627  0.66777  0.02744  1.0000
  S   S426      1.0  0.39119  0.63790  0.12167  1.0000
  H   H1890     1.0  0.29894  0.64158  0.14308  1.0000
  H   H1891     1.0  0.03633  0.71849  0.14012  1.0000
  H   H1892     1.0  0.48911  0.67263  0.09573  1.0000
  C   C1588     1.0  0.46111  0.63989  0.09969  1.0000
  H   H1893     1.0  0.40970  0.71011  0.09187  1.0000
  C   C1589     1.0  0.12057  0.63631  0.10973  1.0000
  H   H1894     1.0  0.20927  0.48891  0.05680  1.0000
  C   C1590     1.0  0.04229  0.63645  0.05379  1.0000
  S   S427      1.0  0.07497  0.68615  0.06508  1.0000
  C   C1591     1.0  0.30169  0.49322  0.08021  1.0000
  H   H1895     1.0  0.48535  0.70015  0.11336  1.0000
  C   C1592     1.0  0.07950  0.70589  0.13216  1.0000
  N   N107      1.0  0.34409  0.55265  0.13473  1.0000
  H   H1896     1.0  0.12696  0.59699  0.12014  1.0000
  H   H1897     1.0  0.45498  0.63437  0.07430  1.0000
  H   H1898     1.0  0.44544  0.61856  0.10167  1.0000
  H   H1899     1.0  0.31699  0.66661  0.15313  1.0000
  H   H1900     1.0  0.08371  0.62900  0.99865  1.0000
  C   C1593     1.0  0.06503  0.70143  0.13961  1.0000
  S   S428      1.0  0.39716  0.67279  0.11777  1.0000
  H   H1901     1.0  0.27574  0.67715  0.17315  1.0000
  C   C1594     1.0  0.20568  0.70647  0.14967  1.0000
  H   H1902     1.0  0.41668  0.69679  0.98825  1.0000
  C   C1595     1.0  0.08954  0.70678  0.14076  1.0000
  H   H1903     1.0  0.34577  0.67945  0.15248  1.0000
  C   C1596     1.0  0.27635  0.64108  0.14187  1.0000
  H   H1904     1.0  0.25243  0.64294  0.14162  1.0000
  H   H1905     1.0  0.05136  0.69288  0.16256  1.0000
  H   H1906     1.0  0.11173  0.65512  0.13452  1.0000
  C   C1597     1.0  0.23334  0.70295  0.13795  1.0000
  H   H1907     1.0  0.01534  0.65848  0.10226  1.0000
  Fe  Fe207     1.0  0.36628  0.64725  0.13302  1.0000
  H   H1908     1.0  0.17532  0.63966  0.11856  1.0000
  S   S429      1.0  0.17681  0.48844  0.07165  1.0000
  H   H1909     1.0  0.08604  0.62947  0.02404  1.0000
  H   H1910     1.0  0.36341  0.69575  0.06296  1.0000
  H   H1911     1.0  0.45805  0.72988  0.13161  1.0000
  H   H1912     1.0  0.23534  0.48982  0.08933  1.0000
  H   H1913     1.0  0.30681  0.49192  0.10201  1.0000
  C   C1598     1.0  0.34355  0.70423  0.14545  1.0000
  C   C1599     1.0  0.47790  0.73082  0.02389  1.0000
  C   C1600     1.0  0.04270  0.62302  0.08045  1.0000
  H   H1914     1.0  0.15858  0.63340  0.13189  1.0000
  H   H1915     1.0  0.13750  0.64979  0.10493  1.0000
  H   H1916     1.0  0.16148  0.52432  0.01106  1.0000
  C   C1601     1.0  0.12934  0.60852  0.11720  1.0000
  H   H1917     1.0  0.06821  0.67847  0.12607  1.0000
  C   C1602     1.0  0.29221  0.52584  0.07799  1.0000
  H   H1918     1.0  0.38653  0.71554  0.13968  1.0000
  H   H1919     1.0  0.44991  0.63626  0.15158  1.0000
  C   C1603     1.0  0.33377  0.71868  0.14705  1.0000
  H   H1920     1.0  0.19083  0.54098  0.03379  1.0000
  H   H1921     1.0  0.28011  0.69323  0.14704  1.0000
  H   H1922     1.0  0.34381  0.54875  0.11274  1.0000
  H   H1923     1.0  0.25483  0.49767  0.06697  1.0000
  S   S430      1.0  0.37353  0.65748  0.14881  1.0000
  C   C1604     1.0  0.15453  0.48613  0.99744  1.0000
  H   H1924     1.0  0.34091  0.57973  0.14525  1.0000
  H   H1925     1.0  0.49145  0.71967  0.04130  1.0000
  H   H1926     1.0  0.04684  0.63715  0.04145  1.0000
  N   N108      1.0  0.16638  0.52986  0.03027  1.0000
  C   C1605     1.0  0.16172  0.54361  0.03734  1.0000
  C   C1606     1.0  0.42217  0.66955  0.14559  1.0000
  H   H1927     1.0  0.41610  0.72763  0.10413  1.0000
  C   C1607     1.0  0.33568  0.55273  0.12307  1.0000
  H   H1928     1.0  0.01047  0.61840  0.10575  1.0000
  S   S431      1.0  0.45535  0.68812  0.15055  1.0000
  C   C1608     1.0  0.44537  0.67477  0.14947  1.0000
  C   C1609     1.0  0.18991  0.51086  0.01929  1.0000
  C   C1610     1.0  0.21633  0.51339  0.01626  1.0000
  H   H1929     1.0  0.24290  0.66807  0.14967  1.0000
  H   H1930     1.0  0.18248  0.50453  0.01748  1.0000
  S   S432      1.0  0.42009  0.64041  0.14472  1.0000
  C   C1611     1.0  0.42937  0.65376  0.14706  1.0000
  C   C1612     1.0  0.20606  0.50574  0.01439  1.0000
  H   H1931     1.0  0.35475  0.70193  0.08855  1.0000
  H   H1932     1.0  0.13718  0.62039  0.16556  1.0000
  H   H1933     1.0  0.46427  0.65487  0.15301  1.0000
  H   H1934     1.0  0.00983  0.71193  0.08703  1.0000
  C   C1613     1.0  0.11743  0.62153  0.11413  1.0000
  H   H1935     1.0  0.36165  0.53194  0.13086  1.0000
  N   N109      1.0  0.16390  0.62750  0.10968  1.0000
  H   H1936     1.0  0.05759  0.61445  0.06055  1.0000
  C   C1614     1.0  0.35239  0.53647  0.14031  1.0000
  H   H1937     1.0  0.18218  0.51843  0.98731  1.0000
  C   C1615     1.0  0.16342  0.63805  0.11945  1.0000
  H   H1938     1.0  0.02348  0.57051  0.16886  1.0000
  H   H1939     1.0  0.29473  0.68583  0.13160  1.0000
  C   C1616     1.0  0.35018  0.71029  0.07909  1.0000
  H   H1940     1.0  0.47627  0.63105  0.13217  1.0000
  C   C1617     1.0  0.14444  0.61022  0.11590  1.0000
  H   H1941     1.0  0.15314  0.59960  0.11806  1.0000
  H   H1942     1.0  0.26108  0.51529  0.06403  1.0000
  N   N110      1.0  0.29252  0.66933  0.15351  1.0000
  C   C1618     1.0  0.01625  0.60924  0.16729  1.0000
  H   H1943     1.0  0.02195  0.59585  0.14989  1.0000
  H   H1944     1.0  0.36459  0.55722  0.11700  1.0000
  H   H1945     1.0  0.43671  0.71834  0.06650  1.0000
  H   H1946     1.0  0.23721  0.51600  0.11507  1.0000
  H   H1947     1.0  0.22206  0.50859  0.08739  1.0000
  H   H1948     1.0  0.32714  0.54510  0.12780  1.0000
  H   H1949     1.0  0.38366  0.72107  0.00939  1.0000
  C   C1619     1.0  0.31352  0.70591  0.16474  1.0000
  H   H1950     1.0  0.31369  0.66004  0.13812  1.0000
  C   C1620     1.0  0.09664  0.62505  0.01627  1.0000
  C   C1621     1.0  0.35016  0.72866  0.10104  1.0000
  C   C1622     1.0  0.08946  0.66429  0.00157  1.0000
  C   C1623     1.0  0.29182  0.68551  0.14424  1.0000
  C   C1624     1.0  0.26565  0.66928  0.15129  1.0000
  H   H1951     1.0  0.13919  0.66017  0.00742  1.0000
  H   H1952     1.0  0.35813  0.71700  0.10252  1.0000
  C   C1625     1.0  0.34979  0.71694  0.05180  1.0000
  H   H1953     1.0  0.46580  0.66926  0.11692  1.0000
  C   C1626     1.0  0.19350  0.49605  0.11503  1.0000
  H   H1954     1.0  0.48538  0.72395  0.01565  1.0000
  C   C1627     1.0  0.13471  0.66171  0.98519  1.0000
  C   C1628     1.0  0.29635  0.50297  0.06725  1.0000
  N   N111      1.0  0.33569  0.72870  0.09671  1.0000
  C   C1629     1.0  0.33269  0.55859  0.14790  1.0000
  C   C1630     1.0  0.32091  0.55047  0.15716  1.0000
  H   H1955     1.0  0.35801  0.53578  0.14984  1.0000
  H   H1956     1.0  0.36298  0.56239  0.13485  1.0000
  H   H1957     1.0  0.99566  0.71958  0.11194  1.0000
  H   H1958     1.0  0.43604  0.72657  0.10395  1.0000
  H   H1959     1.0  0.30012  0.69099  0.14658  1.0000
  C   C1631     1.0  0.11601  0.66311  0.15243  1.0000
  C   C1632     1.0  0.33925  0.73089  0.05372  1.0000
  C   C1633     1.0  0.13125  0.63239  0.16250  1.0000
  C   C1634     1.0  0.18676  0.51557  0.97569  1.0000
  H   H1960     1.0  0.31737  0.71602  0.10529  1.0000
  H   H1961     1.0  0.19664  0.72327  0.16410  1.0000
  H   H1962     1.0  0.18853  0.48655  0.09889  1.0000
  H   H1963     1.0  0.32365  0.72033  0.12012  1.0000
  H   H1964     1.0  0.12213  0.66838  0.17065  1.0000
  H   H1965     1.0  0.10690  0.61964  0.97932  1.0000
  C   C1635     1.0  0.13048  0.64357  0.17084  1.0000
  H   H1966     1.0  0.19992  0.50270  0.13262  1.0000
  Fe  Fe208     1.0  0.27813  0.72899  0.16806  1.0000
  H   H1967     1.0  0.26085  0.68010  0.15511  1.0000
  H   H1968     1.0  0.32159  0.58872  0.16665  1.0000
  C   C1636     1.0  0.39051  0.72625  0.13393  1.0000
  H   H1969     1.0  0.16820  0.62490  0.98338  1.0000
  C   C1637     1.0  0.40271  0.72941  0.13798  1.0000
  C   C1638     1.0  0.02071  0.58118  0.17285  1.0000
  C   C1639     1.0  0.30986  0.55594  0.16950  1.0000
  H   H1970     1.0  0.45073  0.69304  0.97609  1.0000
  C   C1640     1.0  0.42084  0.70583  0.97820  1.0000
  H   H1971     1.0  0.40827  0.72105  0.14689  1.0000
  H   H1972     1.0  0.29556  0.67461  0.17376  1.0000
  H   H1973     1.0  0.31988  0.68092  0.17028  1.0000
  H   H1974     1.0  0.08420  0.66181  0.98106  1.0000
  H   H1975     1.0  0.40084  0.69300  0.97533  1.0000
  Fe  Fe209     1.0  0.09224  0.67721  0.24542  1.0000
  S   S433      1.0  0.11828  0.67045  0.23657  1.0000
  Fe  Fe210     1.0  0.06333  0.66638  0.26589  1.0000
  S   S434      1.0  0.04758  0.68970  0.25970  1.0000
  S   S435      1.0  0.05126  0.64733  0.28074  1.0000
  Fe  Fe211     1.0  0.06130  0.68942  0.23537  1.0000
  Fe  Fe212     1.0  0.06660  0.69912  0.26263  1.0000
  S   S436      1.0  0.07585  0.66544  0.24139  1.0000
  S   S437      1.0  0.08127  0.67569  0.27081  1.0000
  H   H1976     1.0  0.99642  0.64620  0.25210  1.0000
  H   H1977     1.0  0.13340  0.68976  0.24437  1.0000
  C   C1641     1.0  0.07753  0.70425  0.36689  1.0000
  H   H1978     1.0  0.28748  0.65784  0.17761  1.0000
  H   H1979     1.0  0.03422  0.62125  0.27977  1.0000
  H   H1980     1.0  0.04092  0.67481  0.37289  1.0000
  H   H1981     1.0  0.11102  0.72968  0.35807  1.0000
  H   H1982     1.0  0.14180  0.69982  0.25294  1.0000
  C   C1642     1.0  0.02743  0.51938  0.31288  1.0000
  H   H1983     1.0  0.00099  0.62007  0.30208  1.0000
  H   H1984     1.0  0.06875  0.69721  0.37384  1.0000
  C   C1643     1.0  0.04765  0.49827  0.30385  1.0000
  C   C1644     1.0  0.45285  0.72070  0.18872  1.0000
  H   H1985     1.0  0.48598  0.69540  0.17595  1.0000
  C   C1645     1.0  0.03469  0.51322  0.36717  1.0000
  H   H1986     1.0  0.05921  0.49939  0.24311  1.0000
  H   H1987     1.0  0.01037  0.50803  0.29912  1.0000
  C   C1646     1.0  0.14425  0.68059  0.19296  1.0000
  C   C1647     1.0  0.00904  0.48484  0.24062  1.0000
  H   H1988     1.0  0.05479  0.65322  0.31163  1.0000
  H   H1989     1.0  0.12100  0.54456  0.31542  1.0000
  C   C1648     1.0  0.14410  0.62282  0.18959  1.0000
  H   H1990     1.0  0.10988  0.58755  0.35736  1.0000
  H   H1991     1.0  0.10667  0.52714  0.33403  1.0000
  C   C1649     1.0  0.03570  0.51953  0.28554  1.0000
  C   C1650     1.0  0.11254  0.54312  0.36819  1.0000
  C   C1651     1.0  0.01014  0.50985  0.22317  1.0000
  H   H1992     1.0  0.01380  0.52700  0.23264  1.0000
  H   H1993     1.0  0.02886  0.61475  0.26576  1.0000
  N   N112      1.0  0.11789  0.54174  0.34017  1.0000
  S   S438      1.0  0.07466  0.56457  0.36322  1.0000
  S   S439      1.0  0.01840  0.56269  0.20187  1.0000
  Fe  Fe213     1.0  0.03909  0.57422  0.34464  1.0000
  S   S440      1.0  0.06264  0.56140  0.33401  1.0000
  S   S441      1.0  0.01853  0.57875  0.33387  1.0000
  Fe  Fe214     1.0  0.06344  0.54814  0.35835  1.0000
  H   H1994     1.0  0.12441  0.71470  0.20783  1.0000
  Fe  Fe215     1.0  0.07147  0.57903  0.33976  1.0000
  S   S442      1.0  0.08948  0.59117  0.32241  1.0000
  H   H1995     1.0  0.00925  0.48345  0.26434  1.0000
  S   S443      1.0  0.04777  0.59297  0.34863  1.0000
  C   C1652     1.0  0.07731  0.49235  0.33119  1.0000
  C   C1653     1.0  0.02357  0.57760  0.31430  1.0000
  C   C1654     1.0  0.03854  0.57851  0.30523  1.0000
  C   C1655     1.0  0.04220  0.57778  0.28955  1.0000
  H   H1996     1.0  0.01025  0.51733  0.21173  1.0000
  C   C1656     1.0  0.02148  0.50038  0.30200  1.0000
  H   H1997     1.0  0.04718  0.58020  0.31015  1.0000
  H   H1998     1.0  0.05372  0.57877  0.28254  1.0000
  H   H1999     1.0  0.05128  0.48957  0.29648  1.0000
  C   C1657     1.0  0.07355  0.51085  0.35224  1.0000
  C   C1658     1.0  0.07417  0.51766  0.33651  1.0000
  C   C1659     1.0  0.07626  0.50840  0.32599  1.0000
  S   S444      1.0  0.99923  0.55674  0.27196  1.0000
  Fe  Fe216     1.0  0.01828  0.56803  0.25561  1.0000
  C   C1660     1.0  0.07481  0.49475  0.35741  1.0000
  H   H2000     1.0  0.07344  0.52997  0.33235  1.0000
  H   H2001     1.0  0.07718  0.51368  0.31377  1.0000
  C   C1661     1.0  0.05995  0.72158  0.35142  1.0000
  H   H2002     1.0  0.05137  0.64987  0.24010  1.0000
  C   C1662     1.0  0.00984  0.49072  0.25278  1.0000
  C   C1663     1.0  0.02213  0.67836  0.20082  1.0000
  H   H2003     1.0  0.01957  0.67834  0.19008  1.0000
  H   H2004     1.0  0.07449  0.48942  0.36953  1.0000
  C   C1664     1.0  0.04238  0.66538  0.34566  1.0000
  H   H2005     1.0  0.10793  0.56042  0.32311  1.0000
  H   H2006     1.0  0.03594  0.67593  0.34947  1.0000
  H   H2007     1.0  0.05114  0.62538  0.19967  1.0000
  C   C1665     1.0  0.11084  0.57508  0.36036  1.0000
  Fe  Fe217     1.0  0.00768  0.53934  0.25701  1.0000
  N   N113      1.0  0.07550  0.71069  0.35066  1.0000
  H   H2008     1.0  0.00067  0.57532  0.31457  1.0000
  H   H2009     1.0  0.04483  0.52608  0.28376  1.0000
  H   H2010     1.0  0.01069  0.66612  0.23973  1.0000
  S   S445      1.0  0.00586  0.48796  0.21100  1.0000
  H   H2011     1.0  0.47715  0.71285  0.20186  1.0000
  H   H2012     1.0  0.30078  0.54971  0.17619  1.0000
  N   N114      1.0  0.03285  0.50951  0.30133  1.0000
  H   H2013     1.0  0.05037  0.71517  0.35687  1.0000
  H   H2014     1.0  0.12191  0.70252  0.37015  1.0000
  H   H2015     1.0  0.01143  0.61922  0.18710  1.0000
  H   H2016     1.0  0.03212  0.63739  0.20551  1.0000
  C   C1666     1.0  0.00718  0.53124  0.33275  1.0000
  C   C1667     1.0  0.01184  0.51544  0.23512  1.0000
  C   C1668     1.0  0.08307  0.67143  0.34001  1.0000
  C   C1669     1.0  0.07505  0.72298  0.28198  1.0000
  H   H2017     1.0  0.13580  0.52335  0.33141  1.0000
  C   C1670     1.0  0.13105  0.70013  0.24937  1.0000
  C   C1671     1.0  0.03868  0.62521  0.20535  1.0000
  C   C1672     1.0  0.07321  0.70296  0.32735  1.0000
  H   H2018     1.0  0.03146  0.67888  0.23930  1.0000
  H   H2019     1.0  0.10430  0.52471  0.35432  1.0000
  H   H2020     1.0  0.06543  0.62900  0.32906  1.0000
  H   H2021     1.0  0.02484  0.52824  0.28332  1.0000
  H   H2022     1.0  0.04927  0.52713  0.30754  1.0000
  C   C1673     1.0  0.16569  0.71617  0.20996  1.0000
  H   H2023     1.0  0.02283  0.60690  0.28607  1.0000
  H   H2024     1.0  0.03368  0.62151  0.19760  1.0000
  C   C1674     1.0  0.04725  0.51093  0.20928  1.0000
  H   H2025     1.0  0.01331  0.61483  0.22254  1.0000
  H   H2026     1.0  0.15650  0.67867  0.18725  1.0000
  H   H2027     1.0  0.12881  0.55761  0.32071  1.0000
  C   C1675     1.0  0.11259  0.68585  0.20788  1.0000
  C   C1676     1.0  0.05581  0.49816  0.23326  1.0000
  H   H2028     1.0  0.02260  0.64795  0.27442  1.0000
  C   C1677     1.0  0.08176  0.68247  0.34838  1.0000
  C   C1678     1.0  0.01781  0.58064  0.18872  1.0000
  H   H2029     1.0  0.14266  0.53580  0.33880  1.0000
  H   H2030     1.0  0.99728  0.60438  0.28894  1.0000
  H   H2031     1.0  0.13488  0.72802  0.24857  1.0000
  C   C1679     1.0  0.09006  0.71346  0.28140  1.0000
  H   H2032     1.0  0.01211  0.59404  0.20608  1.0000
  H   H2033     1.0  0.09312  0.70317  0.27675  1.0000
  C   C1680     1.0  0.14753  0.71571  0.19559  1.0000
  C   C1681     1.0  0.06264  0.63148  0.29133  1.0000
  C   C1682     1.0  0.07825  0.63096  0.29080  1.0000
  C   C1683     1.0  0.08678  0.61833  0.30002  1.0000
  C   C1684     1.0  0.07969  0.60625  0.30963  1.0000
  C   C1685     1.0  0.06430  0.60662  0.30965  1.0000
  C   C1686     1.0  0.05573  0.61927  0.30073  1.0000
  H   H2034     1.0  0.08368  0.64035  0.28350  1.0000
  H   H2035     1.0  0.09871  0.61808  0.29994  1.0000
  H   H2036     1.0  0.05890  0.59717  0.31667  1.0000
  H   H2037     1.0  0.04364  0.61965  0.30139  1.0000
  C   C1687     1.0  0.13973  0.67490  0.20903  1.0000
  C   C1688     1.0  0.12388  0.67751  0.21650  1.0000
  H   H2038     1.0  0.14852  0.66853  0.21568  1.0000
  H   H2039     1.0  0.08718  0.65916  0.34473  1.0000
  H   H2040     1.0  0.04383  0.52151  0.20091  1.0000
  S   S446      1.0  0.07172  0.52209  0.36558  1.0000
  H   H2041     1.0  0.11257  0.70970  0.28678  1.0000
  C   C1689     1.0  0.07663  0.69863  0.34233  1.0000
  H   H2042     1.0  0.00701  0.57447  0.28689  1.0000
  H   H2043     1.0  0.02599  0.49289  0.29335  1.0000
  C   C1690     1.0  0.13844  0.71543  0.22346  1.0000
  C   C1691     1.0  0.47922  0.71930  0.18952  1.0000
  C   C1692     1.0  0.01120  0.50604  0.25005  1.0000
  C   C1693     1.0  0.04809  0.65156  0.35607  1.0000
  H   H2044     1.0  0.04031  0.67650  0.32206  1.0000
  H   H2045     1.0  0.30138  0.57402  0.18234  1.0000
  C   C1694     1.0  0.07643  0.48554  0.34694  1.0000
  S   S447      1.0  0.29446  0.70667  0.17608  1.0000
  S   S448      1.0  0.03518  0.57666  0.26296  1.0000
  C   C1695     1.0  0.11899  0.55154  0.32418  1.0000
  H   H2046     1.0  0.03959  0.69202  0.18966  1.0000
  C   C1696     1.0  0.03256  0.53753  0.32503  1.0000
  C   C1697     1.0  0.15386  0.71589  0.22348  1.0000
  H   H2047     1.0  0.03213  0.50516  0.34849  1.0000
  H   H2048     1.0  0.12179  0.69859  0.26017  1.0000
  S   S449      1.0  0.02799  0.54927  0.24218  1.0000
  C   C1698     1.0  0.07439  0.69181  0.31918  1.0000
  H   H2049     1.0  0.05764  0.50395  0.30110  1.0000
  C   C1699     1.0  0.15102  0.64756  0.18007  1.0000
  H   H2050     1.0  0.06883  0.63683  0.37399  1.0000
  H   H2051     1.0  0.45091  0.71526  0.20136  1.0000
  C   C1700     1.0  0.05670  0.63855  0.34953  1.0000
  C   C1701     1.0  0.11710  0.69174  0.19191  1.0000
  H   H2052     1.0  0.14517  0.71538  0.18476  1.0000
  C   C1702     1.0  0.02898  0.67867  0.22855  1.0000
  H   H2053     1.0  0.03673  0.59632  0.21111  1.0000
  C   C1703     1.0  0.03717  0.68602  0.21440  1.0000
  H   H2054     1.0  0.01135  0.63472  0.29921  1.0000
  C   C1704     1.0  0.02458  0.61774  0.27735  1.0000
  C   C1705     1.0  0.01443  0.64503  0.26924  1.0000
  H   H2055     1.0  0.13480  0.61613  0.19281  1.0000
  H   H2056     1.0  0.09359  0.54182  0.34367  1.0000
  N   N115      1.0  0.04543  0.65040  0.37296  1.0000
  N   N116      1.0  0.46945  0.71624  0.18071  1.0000
  C   C1706     1.0  0.11482  0.55070  0.35223  1.0000
  S   S450      1.0  0.05196  0.69527  0.21363  1.0000
  C   C1707     1.0  0.01230  0.57594  0.30763  1.0000
  C   C1708     1.0  0.03353  0.68606  0.20057  1.0000
  H   H2057     1.0  0.00406  0.65492  0.26928  1.0000
  H   H2058     1.0  0.06885  0.69511  0.17720  1.0000
  C   C1709     1.0  0.11409  0.56696  0.34865  1.0000
  H   H2059     1.0  0.04039  0.54402  0.32596  1.0000
  C   C1710     1.0  0.10569  0.72475  0.36977  1.0000
  H   H2060     1.0  0.03951  0.51263  0.27643  1.0000
  H   H2061     1.0  0.11114  0.70439  0.23173  1.0000
  C   C1711     1.0  0.05904  0.63919  0.33371  1.0000
  C   C1712     1.0  0.09709  0.73039  0.29337  1.0000
  C   C1713     1.0  0.07937  0.67609  0.32546  1.0000
  C   C1714     1.0  0.01597  0.57516  0.29199  1.0000
  C   C1715     1.0  0.08776  0.71959  0.34219  1.0000
  S   S451      1.0  0.01141  0.51359  0.26542  1.0000
  N   N117      1.0  0.01004  0.63008  0.27795  1.0000
  H   H2062     1.0  0.01353  0.54712  0.34196  1.0000
  C   C1716     1.0  0.01432  0.59440  0.19387  1.0000
  C   C1717     1.0  0.99320  0.63531  0.25829  1.0000
  Fe  Fe218     1.0  0.01129  0.56333  0.22708  1.0000
  H   H2063     1.0  0.05217  0.52288  0.22368  1.0000
  Fe  Fe219     1.0  0.05023  0.57722  0.37168  1.0000
  H   H2064     1.0  0.14741  0.66025  0.17556  1.0000
  H   H2065     1.0  0.08950  0.69704  0.36742  1.0000
  H   H2066     1.0  0.01890  0.49244  0.31357  1.0000
  C   C1718     1.0  0.01411  0.67078  0.21495  1.0000
  C   C1719     1.0  0.10514  0.53351  0.34319  1.0000
  C   C1720     1.0  0.03701  0.48621  0.36777  1.0000
  C   C1721     1.0  0.13289  0.68897  0.18439  1.0000
  C   C1722     1.0  0.01731  0.67132  0.22880  1.0000
  N   N118      1.0  0.03728  0.61482  0.22110  1.0000
  H   H2067     1.0  0.13116  0.64191  0.20826  1.0000
  C   C1723     1.0  0.04267  0.59853  0.21905  1.0000
  C   C1724     1.0  0.02059  0.61719  0.22913  1.0000
  C   C1725     1.0  0.04611  0.61849  0.23039  1.0000
  C   C1726     1.0  0.04489  0.63413  0.23076  1.0000
  C   C1727     1.0  0.05518  0.60678  0.24017  1.0000
  C   C1728     1.0  0.05251  0.63782  0.24002  1.0000
  C   C1729     1.0  0.06266  0.61059  0.24949  1.0000
  C   C1730     1.0  0.06138  0.62608  0.24937  1.0000
  Fe  Fe220     1.0  0.99410  0.66190  0.19318  1.0000
  N   N119      1.0  0.13781  0.63972  0.18432  1.0000
  H   H2068     1.0  0.10623  0.72543  0.22767  1.0000
  H   H2069     1.0  0.05548  0.59572  0.21412  1.0000
  C   C1731     1.0  0.12624  0.64521  0.19770  1.0000
  H   H2070     1.0  0.03995  0.58999  0.23016  1.0000
  H   H2071     1.0  0.01572  0.62936  0.23055  1.0000
  C   C1732     1.0  0.03752  0.52780  0.31453  1.0000
  H   H2072     1.0  0.01892  0.60945  0.24095  1.0000
  H   H2073     1.0  0.03786  0.64368  0.22406  1.0000
  H   H2074     1.0  0.05647  0.59454  0.24106  1.0000
  H   H2075     1.0  0.08049  0.66750  0.31897  1.0000
  H   H2076     1.0  0.06932  0.60146  0.25703  1.0000
  H   H2077     1.0  0.06713  0.62899  0.25667  1.0000
  H   H2078     1.0  0.10828  0.69824  0.18534  1.0000
  C   C1733     1.0  0.01741  0.53930  0.33407  1.0000
  H   H2079     1.0  0.00346  0.51566  0.32178  1.0000
  S   S452      1.0  0.00355  0.58339  0.23887  1.0000
  N   N120      1.0  0.12627  0.71466  0.23806  1.0000
  S   S453      1.0  0.06084  0.71872  0.27513  1.0000
  H   H2080     1.0  0.12236  0.65806  0.19543  1.0000
  H   H2081     1.0  0.08664  0.72529  0.33004  1.0000
  S   S454      1.0  0.07872  0.70135  0.23752  1.0000
  H   H2082     1.0  0.17178  0.71593  0.18564  1.0000
  H   H2083     1.0  0.47170  0.69241  0.19367  1.0000
  H   H2084     1.0  0.08507  0.67805  0.35945  1.0000
  C   C1734     1.0  0.05011  0.48308  0.21861  1.0000
  C   C1735     1.0  0.01204  0.52140  0.32234  1.0000
  C   C1736     1.0  0.99882  0.62598  0.27167  1.0000
  S   S455      1.0  0.03908  0.55963  0.36873  1.0000
  H   H2085     1.0  0.14913  0.62035  0.19998  1.0000
  C   C1737     1.0  0.03089  0.57614  0.28290  1.0000
  C   C1738     1.0  0.00871  0.49453  0.22590  1.0000
  H   H2086     1.0  0.10033  0.68767  0.21345  1.0000
  C   C1739     1.0  0.05305  0.65281  0.32389  1.0000
  C   C1740     1.0  0.12430  0.72815  0.24481  1.0000
  C   C1741     1.0  0.13285  0.53009  0.34057  1.0000
  C   C1742     1.0  0.00326  0.63129  0.29433  1.0000
  C   C1743     1.0  0.04483  0.66589  0.32982  1.0000
  C   C1744     1.0  0.05191  0.51168  0.22216  1.0000
  C   C1745     1.0  0.16254  0.71601  0.19606  1.0000
  H   H2087     1.0  0.13243  0.52147  0.35185  1.0000
  C   C1746     1.0  0.47348  0.69928  0.18149  1.0000
  H   H2088     1.0  0.04645  0.49171  0.31613  1.0000
  H   H2089     1.0  0.15693  0.71574  0.23404  1.0000
  H   H2090     1.0  0.11563  0.64035  0.20068  1.0000
  H   H2091     1.0  0.09967  0.71188  0.34152  1.0000
  C   C1747     1.0  0.01371  0.60868  0.18313  1.0000
  H   H2092     1.0  0.15627  0.64591  0.19013  1.0000
  H   H2093     1.0  0.03305  0.52531  0.36107  1.0000
  H   H2094     1.0  0.06989  0.71502  0.32165  1.0000
  S   S456      1.0  0.00074  0.65980  0.21570  1.0000
  C   C1748     1.0  0.05508  0.48340  0.23182  1.0000
  H   H2095     1.0  0.07595  0.71359  0.37306  1.0000
  H   H2096     1.0  0.04212  0.49621  0.19779  1.0000
  H   H2097     1.0  0.44484  0.71688  0.18415  1.0000
  C   C1749     1.0  0.10102  0.71715  0.28714  1.0000
  C   C1750     1.0  0.04636  0.49667  0.20751  1.0000
  H   H2098     1.0  0.11558  0.57383  0.33692  1.0000
  C   C1751     1.0  0.11071  0.71475  0.23594  1.0000
  H   H2099     1.0  0.10173  0.71434  0.24705  1.0000
  H   H2100     1.0  0.49191  0.71535  0.18467  1.0000
  C   C1752     1.0  0.13562  0.71535  0.20904  1.0000
  C   C1753     1.0  0.99359  0.61196  0.27869  1.0000
  H   H2101     1.0  0.02064  0.64449  0.25710  1.0000
  H   H2102     1.0  0.15387  0.61813  0.18053  1.0000
  H   H2103     1.0  0.06654  0.65727  0.37149  1.0000
  H   H2104     1.0  0.08724  0.72892  0.34794  1.0000
  H   H2105     1.0  0.06160  0.62766  0.35664  1.0000
  H   H2106     1.0  0.17744  0.71628  0.21029  1.0000
  H   H2107     1.0  0.99534  0.53282  0.33970  1.0000
  H   H2108     1.0  0.05849  0.73019  0.35844  1.0000
  H   H2109     1.0  0.11292  0.53080  0.37185  1.0000
  H   H2110     1.0  0.05811  0.72855  0.33982  1.0000
  H   H2111     1.0  0.11460  0.72836  0.25534  1.0000
  H   H2112     1.0  0.07163  0.69543  0.30778  1.0000
  C   C1754     1.0  0.03424  0.50186  0.36011  1.0000
  H   H2113     1.0  0.07369  0.59131  0.37437  1.0000
  H   H2114     1.0  0.15132  0.71947  0.36995  1.0000
  H   H2115     1.0  0.46639  0.69582  0.17550  1.0000
  H   H2116     1.0  0.99200  0.64007  0.29538  1.0000
  C   C1755     1.0  0.10931  0.55136  0.37980  1.0000
  H   H2117     1.0  0.02698  0.71914  0.47166  1.0000
  H   H2118     1.0  0.10820  0.72650  0.57118  1.0000
  C   C1756     1.0  0.03783  0.50899  0.38193  1.0000
  H   H2119     1.0  0.13453  0.63569  0.48767  1.0000
  C   C1757     1.0  0.07768  0.61260  0.39736  1.0000
  C   C1758     1.0  0.07090  0.59690  0.38396  1.0000
  Fe  Fe221     1.0  0.09670  0.68350  0.55464  1.0000
  H   H2120     1.0  0.12633  0.61202  0.53002  1.0000
  S   S457      1.0  0.10457  0.70289  0.55867  1.0000
  Fe  Fe222     1.0  0.08795  0.67529  0.52864  1.0000
  S   S458      1.0  0.07847  0.65507  0.54455  1.0000
  S   S459      1.0  0.08884  0.68337  0.50288  1.0000
  Fe  Fe223     1.0  0.06803  0.67053  0.56144  1.0000
  H   H2121     1.0  0.05476  0.71200  0.47210  1.0000
  Fe  Fe224     1.0  0.09970  0.64979  0.55444  1.0000
  C   C1759     1.0  0.03961  0.69170  0.53429  1.0000
  S   S460      1.0  0.07532  0.69146  0.54464  1.0000
  S   S461      1.0  0.11019  0.66893  0.53719  1.0000
  Fe  Fe225     1.0  0.05885  0.67416  0.41077  1.0000
  S   S462      1.0  0.06983  0.68089  0.42613  1.0000
  S   S463      1.0  0.03886  0.68961  0.40023  1.0000
  Fe  Fe226     1.0  0.08181  0.64294  0.41046  1.0000
  S   S464      1.0  0.09503  0.64691  0.42572  1.0000
  S   S465      1.0  0.09066  0.62335  0.39779  1.0000
  Fe  Fe227     1.0  0.07127  0.65616  0.43950  1.0000
  S   S466      1.0  0.06499  0.64949  0.46573  1.0000
  S   S467      1.0  0.05814  0.65015  0.42534  1.0000
  H   H2122     1.0  0.13751  0.61699  0.51074  1.0000
  C   C1760     1.0  0.06351  0.61230  0.40824  1.0000
  C   C1761     1.0  0.04074  0.49335  0.38966  1.0000
  H   H2123     1.0  0.06059  0.61828  0.41760  1.0000
  H   H2124     1.0  0.13450  0.63956  0.46032  1.0000
  Fe  Fe228     1.0  0.09252  0.67118  0.41118  1.0000
  H   H2125     1.0  0.02397  0.73051  0.48547  1.0000
  H   H2126     1.0  0.03863  0.51788  0.38713  1.0000
  C   C1762     1.0  0.02442  0.71863  0.48435  1.0000
  H   H2127     1.0  0.12623  0.60248  0.51544  1.0000
  H   H2128     1.0  0.05248  0.68543  0.51305  1.0000
  S   S468      1.0  0.04318  0.58722  0.39300  1.0000
  C   C1763     1.0  0.08304  0.67302  0.49279  1.0000
  C   C1764     1.0  0.08594  0.67734  0.47654  1.0000
  C   C1765     1.0  0.08065  0.67002  0.46813  1.0000
  C   C1766     1.0  0.07229  0.65844  0.47594  1.0000
  C   C1767     1.0  0.06945  0.65405  0.49220  1.0000
  C   C1768     1.0  0.07488  0.66126  0.50061  1.0000
  H   H2129     1.0  0.09225  0.68642  0.47042  1.0000
  H   H2130     1.0  0.08298  0.67341  0.45560  1.0000
  H   H2131     1.0  0.06294  0.64511  0.49828  1.0000
  H   H2132     1.0  0.07239  0.65802  0.51313  1.0000
  C   C1769     1.0  0.10839  0.56732  0.37590  1.0000
  H   H2133     1.0  0.00855  0.72195  0.53873  1.0000
  S   S469      1.0  0.11232  0.68337  0.40005  1.0000
  C   C1770     1.0  0.12864  0.71396  0.40602  1.0000
  H   H2134     1.0  0.03523  0.63623  0.39449  1.0000
  H   H2135     1.0  0.07339  0.72567  0.57388  1.0000
  H   H2136     1.0  0.10555  0.57374  0.38494  1.0000
  S   S470      1.0  0.08136  0.66652  0.39476  1.0000
  C   C1771     1.0  0.13944  0.71077  0.39263  1.0000
  H   H2137     1.0  0.03873  0.69251  0.47589  1.0000
  H   H2138     1.0  0.09183  0.62387  0.47269  1.0000
  C   C1772     1.0  0.05167  0.71095  0.48490  1.0000
  C   C1773     1.0  0.01750  0.71412  0.41065  1.0000
  C   C1774     1.0  0.03336  0.70744  0.40589  1.0000
  C   C1775     1.0  0.04474  0.71497  0.40579  1.0000
  S   S471      1.0  0.11096  0.62445  0.56047  1.0000
  C   C1776     1.0  0.09181  0.71149  0.40002  1.0000
  H   H2139     1.0  0.00868  0.70823  0.41088  1.0000
  H   H2140     1.0  0.05701  0.70985  0.40217  1.0000
  C   C1777     1.0  0.01304  0.72807  0.41574  1.0000
  H   H2141     1.0  0.04347  0.49096  0.40088  1.0000
  N   N121      1.0  0.03633  0.70667  0.49203  1.0000
  H   H2142     1.0  0.02600  0.68748  0.49452  1.0000
  H   H2143     1.0  0.05921  0.64580  0.39001  1.0000
  C   C1778     1.0  0.03769  0.63733  0.38171  1.0000
  H   H2144     1.0  0.11322  0.63377  0.45268  1.0000
  H   H2145     1.0  0.01291  0.72492  0.51097  1.0000
  H   H2146     1.0  0.08651  0.70645  0.41177  1.0000
  C   C1779     1.0  0.03542  0.66460  0.37818  1.0000
  H   H2147     1.0  0.08199  0.72791  0.54683  1.0000
  H   H2148     1.0  0.01253  0.71614  0.48929  1.0000
  C   C1780     1.0  0.03697  0.69164  0.48857  1.0000
  C   C1781     1.0  0.01800  0.71390  0.53298  1.0000
  H   H2149     1.0  0.09094  0.62007  0.49997  1.0000
  C   C1782     1.0  0.02067  0.71550  0.51693  1.0000
  C   C1783     1.0  0.06063  0.64745  0.37726  1.0000
  C   C1784     1.0  0.08139  0.60479  0.38530  1.0000
  C   C1785     1.0  0.03301  0.70520  0.50904  1.0000
  H   H2150     1.0  0.04226  0.60376  0.41560  1.0000
  C   C1786     1.0  0.05318  0.60406  0.40712  1.0000
  H   H2151     1.0  0.04687  0.68240  0.54110  1.0000
  H   H2152     1.0  0.02525  0.70059  0.55412  1.0000
  N   N122      1.0  0.11255  0.62591  0.51329  1.0000
  C   C1787     1.0  0.11343  0.64080  0.51591  1.0000
  C   C1788     1.0  0.09829  0.62136  0.52416  1.0000
  C   C1789     1.0  0.12626  0.61383  0.51751  1.0000
  C   C1790     1.0  0.11268  0.62766  0.49676  1.0000
  C   C1791     1.0  0.10083  0.62414  0.49191  1.0000
  C   C1792     1.0  0.12500  0.63299  0.48490  1.0000
  C   C1793     1.0  0.10121  0.62622  0.47617  1.0000
  C   C1794     1.0  0.12516  0.63516  0.46919  1.0000
  C   C1795     1.0  0.11324  0.63186  0.46485  1.0000
  H   H2153     1.0  0.10371  0.65038  0.51229  1.0000
  H   H2154     1.0  0.11278  0.63997  0.52835  1.0000
  H   H2155     1.0  0.12453  0.64444  0.50951  1.0000
  H   H2156     1.0  0.08752  0.63009  0.52174  1.0000
  H   H2157     1.0  0.09839  0.62050  0.53646  1.0000
  H   H2158     1.0  0.09732  0.60974  0.52361  1.0000
  C   C1796     1.0  0.05681  0.59642  0.39492  1.0000
  C   C1797     1.0  0.04256  0.69340  0.51822  1.0000
  H   H2159     1.0  0.05170  0.72219  0.48720  1.0000
  H   H2160     1.0  0.03353  0.66315  0.39098  1.0000
  H   H2161     1.0  0.10720  0.54541  0.39192  1.0000
  C   C1798     1.0  0.10481  0.70268  0.39168  1.0000
  H   H2162     1.0  0.04686  0.68235  0.49220  1.0000
  H   H2163     1.0  0.06135  0.70213  0.48955  1.0000
  C   C1799     1.0  0.14313  0.72287  0.38005  1.0000
  C   C1800     1.0  0.12162  0.72929  0.40702  1.0000
  H   H2164     1.0  0.09225  0.60518  0.37676  1.0000
  H   H2165     1.0  0.14450  0.69875  0.39184  1.0000
  H   H2166     1.0  0.05864  0.71899  0.56230  1.0000
  C   C1801     1.0  0.11183  0.70935  0.37660  1.0000
  C   C1802     1.0  0.04025  0.72918  0.41041  1.0000
  C   C1803     1.0  0.02739  0.70195  0.54166  1.0000
  H   H2167     1.0  0.04500  0.62592  0.37963  1.0000
  C   C1804     1.0  0.08589  0.72698  0.39331  1.0000
  S   S472      1.0  0.08841  0.66365  0.57269  1.0000
  H   H2168     1.0  0.02643  0.63880  0.37844  1.0000
  C   C1805     1.0  0.05118  0.72942  0.55630  1.0000
  H   H2169     1.0  0.04850  0.72566  0.54703  1.0000
  H   H2170     1.0  0.12542  0.70447  0.41547  1.0000
  H   H2171     1.0  0.02364  0.66746  0.37554  1.0000
  H   H2172     1.0  0.07560  0.69852  0.75156  1.0000
  C   C1806     1.0  0.10347  0.53062  0.63775  1.0000
  C   C1807     1.0  0.06841  0.62894  0.73304  1.0000
  Fe  Fe229     1.0  0.13121  0.66790  0.73429  1.0000
  S   S473      1.0  0.15172  0.64774  0.73605  1.0000
  S   S474      1.0  0.13419  0.69204  0.72195  1.0000
  Fe  Fe230     1.0  0.10754  0.64805  0.75139  1.0000
  S   S475      1.0  0.12586  0.62599  0.75460  1.0000
  S   S476      1.0  0.08153  0.64991  0.75826  1.0000
  Fe  Fe231     1.0  0.13863  0.64059  0.76059  1.0000
  N   N123      1.0  0.08213  0.62758  0.71984  1.0000
  Fe  Fe232     1.0  0.13729  0.63511  0.72985  1.0000
  S   S477      1.0  0.14632  0.62410  0.70911  1.0000
  S   S478      1.0  0.11924  0.66187  0.75924  1.0000
  S   S479      1.0  0.11785  0.65595  0.72621  1.0000
  H   H2173     1.0  0.04893  0.65113  0.61528  1.0000
  H   H2174     1.0  0.13859  0.65449  0.68828  1.0000
  H   H2175     1.0  0.04732  0.51687  0.68050  1.0000
  S   S480      1.0  0.00584  0.50749  0.71976  1.0000
  C   C1808     1.0  0.04868  0.56922  0.67669  1.0000
  N   N124      1.0  0.12788  0.67202  0.67065  1.0000
  H   H2176     1.0  0.07717  0.65804  0.72132  1.0000
  S   S481      1.0  0.04362  0.67222  0.57563  1.0000
  C   C1809     1.0  0.01001  0.53096  0.72987  1.0000
  C   C1810     1.0  0.08778  0.50646  0.64467  1.0000
  H   H2177     1.0  0.10198  0.67960  0.58770  1.0000
  H   H2178     1.0  0.08505  0.60254  0.72505  1.0000
  C   C1811     1.0  0.00836  0.60362  0.70308  1.0000
  C   C1812     1.0  0.10543  0.70405  0.60781  1.0000
  C   C1813     1.0  0.11764  0.63606  0.66677  1.0000
  C   C1814     1.0  0.08381  0.51683  0.65453  1.0000
  C   C1815     1.0  0.09166  0.52888  0.65119  1.0000
  H   H2179     1.0  0.08294  0.62983  0.68837  1.0000
  C   C1816     1.0  0.01304  0.51492  0.73123  1.0000
  H   H2180     1.0  0.11522  0.63106  0.64620  1.0000
  H   H2181     1.0  0.12439  0.50281  0.69769  1.0000
  H   H2182     1.0  0.05861  0.56877  0.66688  1.0000
  C   C1817     1.0  0.02346  0.57019  0.70214  1.0000
  H   H2183     1.0  0.10854  0.72743  0.59776  1.0000
  Fe  Fe233     1.0  0.01752  0.55910  0.76201  1.0000
  S   S482      1.0  0.01887  0.57706  0.73976  1.0000
  S   S483      1.0  0.02919  0.53401  0.76322  1.0000
  Fe  Fe234     1.0  0.02064  0.59253  0.75380  1.0000
  S   S484      1.0  0.03518  0.61049  0.74363  1.0000
  H   H2184     1.0  0.07001  0.72215  0.76259  1.0000
  C   C1818     1.0  0.11977  0.50216  0.67628  1.0000
  S   S485      1.0  0.11462  0.72790  0.65046  1.0000
  Fe  Fe235     1.0  0.10582  0.57808  0.68172  1.0000
  S   S486      1.0  0.09901  0.60188  0.66744  1.0000
  S   S487      1.0  0.11253  0.57468  0.70448  1.0000
  Fe  Fe236     1.0  0.09463  0.56297  0.66200  1.0000
  S   S488      1.0  0.08695  0.58599  0.64611  1.0000
  S   S489      1.0  0.08674  0.54075  0.66473  1.0000
  Fe  Fe237     1.0  0.10948  0.59076  0.64702  1.0000
  S   S490      1.0  0.12358  0.60614  0.62814  1.0000
  Fe  Fe238     1.0  0.07730  0.59520  0.66774  1.0000
  S   S491      1.0  0.05514  0.61341  0.67169  1.0000
  S   S492      1.0  0.11814  0.56701  0.66134  1.0000
  S   S493      1.0  0.08318  0.57213  0.68363  1.0000
  C   C1819     1.0  0.08119  0.64070  0.69164  1.0000
  H   H2185     1.0  0.11681  0.52142  0.61761  1.0000
  C   C1820     1.0  0.04075  0.61148  0.72363  1.0000
  C   C1821     1.0  0.04690  0.59781  0.71818  1.0000
  C   C1822     1.0  0.05117  0.59845  0.70223  1.0000
  C   C1823     1.0  0.04945  0.61275  0.69164  1.0000
  C   C1824     1.0  0.04316  0.62649  0.69705  1.0000
  C   C1825     1.0  0.03886  0.62586  0.71306  1.0000
  H   H2186     1.0  0.04854  0.58668  0.72627  1.0000
  H   H2187     1.0  0.05534  0.58778  0.69820  1.0000
  H   H2188     1.0  0.04172  0.63759  0.68889  1.0000
  H   H2189     1.0  0.03392  0.63647  0.71726  1.0000
  C   C1826     1.0  0.01509  0.53685  0.73964  1.0000
  H   H2190     1.0  0.01241  0.54919  0.73882  1.0000
  H   H2191     1.0  0.99846  0.61394  0.70372  1.0000
  H   H2192     1.0  0.00138  0.61950  0.67618  1.0000
  Fe  Fe239     1.0  0.00269  0.48362  0.73268  1.0000
  H   H2193     1.0  0.05728  0.64520  0.65312  1.0000
  Fe  Fe240     1.0  0.99306  0.58455  0.74819  1.0000
  C   C1827     1.0  0.02377  0.69645  0.58754  1.0000
  C   C1828     1.0  0.09975  0.50797  0.63138  1.0000
  H   H2194     1.0  0.07468  0.68126  0.70033  1.0000
  C   C1829     1.0  0.11315  0.60165  0.60473  1.0000
  H   H2195     1.0  0.10672  0.62660  0.71540  1.0000
  H   H2196     1.0  0.17453  0.67661  0.76799  1.0000
  H   H2197     1.0  0.11979  0.65639  0.62955  1.0000
  C   C1830     1.0  0.11909  0.70238  0.71228  1.0000
  C   C1831     1.0  0.99530  0.59190  0.69148  1.0000
  N   N125      1.0  0.00995  0.59685  0.68973  1.0000
  H   H2198     1.0  0.02212  0.61407  0.67390  1.0000
  C   C1832     1.0  0.09284  0.70627  0.70865  1.0000
  C   C1833     1.0  0.10489  0.69771  0.71632  1.0000
  H   H2199     1.0  0.03711  0.62693  0.76625  1.0000
  C   C1834     1.0  0.07031  0.67223  0.62140  1.0000
  H   H2200     1.0  0.08178  0.70278  0.71190  1.0000
  H   H2201     1.0  0.10309  0.68765  0.72547  1.0000
  C   C1835     1.0  0.13763  0.60970  0.70808  1.0000
  C   C1836     1.0  0.13043  0.60038  0.72148  1.0000
  C   C1837     1.0  0.12312  0.58935  0.72023  1.0000
  C   C1838     1.0  0.12272  0.58781  0.70563  1.0000
  C   C1839     1.0  0.13005  0.59703  0.69224  1.0000
  C   C1840     1.0  0.13769  0.60778  0.69348  1.0000
  H   H2202     1.0  0.13060  0.60159  0.73278  1.0000
  H   H2203     1.0  0.11769  0.58201  0.73057  1.0000
  H   H2204     1.0  0.13003  0.59571  0.68094  1.0000
  H   H2205     1.0  0.14353  0.61474  0.68308  1.0000
  H   H2206     1.0  0.07348  0.61290  0.71110  1.0000
  H   H2207     1.0  0.99615  0.58633  0.68191  1.0000
  C   C1841     1.0  0.07712  0.58576  0.76172  1.0000
  C   C1842     1.0  0.07033  0.49327  0.69356  1.0000
  H   H2208     1.0  0.07466  0.51547  0.66486  1.0000
  H   H2209     1.0  0.07529  0.62567  0.64133  1.0000
  N   N126      1.0  0.04562  0.49283  0.68606  1.0000
  H   H2210     1.0  0.16008  0.66007  0.76280  1.0000
  C   C1843     1.0  0.02049  0.71019  0.59274  1.0000
  H   H2211     1.0  0.11081  0.66771  0.69213  1.0000
  C   C1844     1.0  0.08013  0.65409  0.67975  1.0000
  H   H2212     1.0  0.05840  0.54686  0.68962  1.0000
  H   H2213     1.0  0.06857  0.61795  0.74207  1.0000
  C   C1845     1.0  0.13207  0.68601  0.65909  1.0000
  N   N127      1.0  0.08309  0.69933  0.77156  1.0000
  H   H2214     1.0  0.03332  0.50290  0.75999  1.0000
  C   C1846     1.0  0.08983  0.59160  0.76116  1.0000
  H   H2215     1.0  0.09112  0.63229  0.60739  1.0000
  C   C1847     1.0  0.08558  0.69340  0.75746  1.0000
  S   S494      1.0  0.99482  0.60155  0.76047  1.0000
  H   H2216     1.0  0.07884  0.57644  0.75592  1.0000
  C   C1848     1.0  0.06216  0.59184  0.76973  1.0000
  H   H2217     1.0  0.23758  0.64603  0.77130  1.0000
  C   C1849     1.0  0.04772  0.70595  0.59338  1.0000
  H   H2218     1.0  0.07695  0.67898  0.67357  1.0000
  C   C1850     1.0  0.06013  0.65594  0.64581  1.0000
  C   C1851     1.0  0.12399  0.66116  0.66380  1.0000
  C   C1852     1.0  0.09518  0.71921  0.69658  1.0000
  H   H2219     1.0  0.05703  0.70970  0.59544  1.0000
  H   H2220     1.0  0.09894  0.61550  0.73406  1.0000
  C   C1853     1.0  0.08384  0.61284  0.71522  1.0000
  C   C1854     1.0  0.16247  0.65790  0.77418  1.0000
  C   C1855     1.0  0.11427  0.67746  0.68259  1.0000
  H   H2221     1.0  0.02201  0.48925  0.69453  1.0000
  H   H2222     1.0  0.11676  0.49871  0.65558  1.0000
  C   C1856     1.0  0.02145  0.50482  0.74209  1.0000
  C   C1857     1.0  0.08021  0.64153  0.70710  1.0000
  H   H2223     1.0  0.02385  0.49243  0.74322  1.0000
  C   C1858     1.0  0.02331  0.58323  0.68940  1.0000
  H   H2224     1.0  0.05064  0.66718  0.66513  1.0000
  H   H2225     1.0  0.01918  0.60722  0.70246  1.0000
  H   H2226     1.0  0.11333  0.70304  0.75883  1.0000
  H   H2227     1.0  0.08697  0.68055  0.76036  1.0000
  C   C1859     1.0  0.11999  0.65373  0.64176  1.0000
  H   H2228     1.0  0.11554  0.62499  0.67400  1.0000
  H   H2229     1.0  0.09568  0.63816  0.62234  1.0000
  H   H2230     1.0  0.10535  0.59852  0.58596  1.0000
  H   H2231     1.0  0.11329  0.51418  0.67429  1.0000
  H   H2232     1.0  0.14518  0.67206  0.68260  1.0000
  H   H2233     1.0  0.10143  0.58672  0.75512  1.0000
  C   C1860     1.0  0.07651  0.66989  0.69793  1.0000
  H   H2234     1.0  0.06627  0.50526  0.69451  1.0000
  H   H2235     1.0  0.12985  0.63118  0.60243  1.0000
  H   H2236     1.0  0.08171  0.49719  0.64744  1.0000
  H   H2237     1.0  0.09743  0.60856  0.76760  1.0000
  S   S495      1.0  0.10595  0.49420  0.61959  1.0000
  H   H2238     1.0  0.03755  0.59170  0.66649  1.0000
  H   H2239     1.0  0.11684  0.68557  0.68807  1.0000
  C   C1861     1.0  0.11734  0.63951  0.65112  1.0000
  H   H2240     1.0  0.05281  0.58690  0.76953  1.0000
  H   H2241     1.0  0.06783  0.63809  0.73903  1.0000
  C   C1862     1.0  0.02684  0.51074  0.75158  1.0000
  H   H2242     1.0  0.07188  0.62002  0.62577  1.0000
  H   H2243     1.0  0.09139  0.65200  0.60514  1.0000
  H   H2244     1.0  0.09518  0.63608  0.73075  1.0000
  H   H2245     1.0  0.11001  0.59128  0.61270  1.0000
  H   H2246     1.0  0.04989  0.65908  0.77458  1.0000
  H   H2247     1.0  0.09625  0.69609  0.74880  1.0000
  C   C1863     1.0  0.12085  0.64670  0.67309  1.0000
  H   H2248     1.0  0.06923  0.69578  0.62204  1.0000
  C   C1864     1.0  0.10365  0.69054  0.60489  1.0000
  C   C1865     1.0  0.03252  0.71507  0.59538  1.0000
  H   H2249     1.0  0.05453  0.50028  0.66156  1.0000
  S   S496      1.0  0.10583  0.70429  0.62675  1.0000
  H   H2250     1.0  0.05675  0.69251  0.64994  1.0000
  C   C1866     1.0  0.10701  0.71702  0.59564  1.0000
  H   H2251     1.0  0.10398  0.68383  0.67740  1.0000
  C   C1867     1.0  0.06166  0.64874  0.60989  1.0000
  H   H2252     1.0  0.09057  0.72035  0.75761  1.0000
  C   C1868     1.0  0.12188  0.49321  0.66555  1.0000
  H   H2253     1.0  0.09182  0.49214  0.69961  1.0000
  H   H2254     1.0  0.07542  0.67440  0.60910  1.0000
  C   C1869     1.0  0.11054  0.60574  0.58961  1.0000
  H   H2255     1.0  0.13182  0.48789  0.63608  1.0000
  H   H2256     1.0  0.05578  0.63031  0.63785  1.0000
  H   H2257     1.0  0.15505  0.71901  0.67166  1.0000
  H   H2258     1.0  0.03608  0.54765  0.71224  1.0000
  H   H2259     1.0  0.15155  0.65875  0.66979  1.0000
  Fe  Fe241     1.0  0.10275  0.72754  0.63230  1.0000
  H   H2260     1.0  0.02777  0.51405  0.68634  1.0000
  S   S497      1.0  0.08031  0.72956  0.68673  1.0000
  H   H2261     1.0  0.06387  0.65933  0.60098  1.0000
  C   C1870     1.0  0.08759  0.60381  0.76826  1.0000
  C   C1871     1.0  0.12128  0.71546  0.70038  1.0000
  H   H2262     1.0  0.08141  0.65309  0.66797  1.0000
  C   C1872     1.0  0.07786  0.65655  0.70987  1.0000
  C   C1873     1.0  0.12122  0.62852  0.58402  1.0000
  C   C1874     1.0  0.03600  0.55728  0.70221  1.0000
  H   H2263     1.0  0.01239  0.60535  0.66500  1.0000
  C   C1875     1.0  0.08087  0.71651  0.76707  1.0000
  C   C1876     1.0  0.10322  0.69007  0.58988  1.0000
  H   H2264     1.0  0.10964  0.53985  0.63508  1.0000
  H   H2265     1.0  0.00341  0.53881  0.72157  1.0000
  H   H2266     1.0  0.06305  0.68623  0.58499  1.0000
  C   C1877     1.0  0.07773  0.66865  0.68287  1.0000
  H   H2267     1.0  0.00595  0.59532  0.71432  1.0000
  C   C1878     1.0  0.09634  0.62640  0.72524  1.0000
  H   H2268     1.0  0.06414  0.63936  0.60351  1.0000
  C   C1879     1.0  0.05964  0.68280  0.64440  1.0000
  C   C1880     1.0  0.08803  0.64171  0.61383  1.0000
  C   C1881     1.0  0.01157  0.60945  0.67553  1.0000
  C   C1882     1.0  0.03408  0.48367  0.69630  1.0000
  C   C1883     1.0  0.12598  0.49576  0.68946  1.0000
  H   H2269     1.0  0.13641  0.69116  0.76984  1.0000
  C   C1884     1.0  0.12020  0.61077  0.60934  1.0000
  C   C1885     1.0  0.03637  0.58234  0.67661  1.0000
  C   C1886     1.0  0.15971  0.72765  0.67379  1.0000
  H   H2270     1.0  0.00868  0.71712  0.59452  1.0000
  H   H2271     1.0  0.99249  0.58344  0.70262  1.0000
  C   C1887     1.0  0.05626  0.66853  0.65291  1.0000
  H   H2272     1.0  0.09450  0.61055  0.70596  1.0000
  H   H2273     1.0  0.13504  0.69389  0.66453  1.0000
  C   C1888     1.0  0.10486  0.70304  0.57768  1.0000
  H   H2274     1.0  0.03896  0.50932  0.70070  1.0000
  C   C1889     1.0  0.06837  0.62955  0.63217  1.0000
  C   C1890     1.0  0.12323  0.66446  0.64793  1.0000
  C   C1891     1.0  0.04858  0.55679  0.68950  1.0000
  C   C1892     1.0  0.11178  0.69566  0.77036  1.0000
  H   H2275     1.0  0.12523  0.67519  0.63991  1.0000
  H   H2276     1.0  0.10260  0.68042  0.61425  1.0000
  C   C1893     1.0  0.02351  0.52676  0.75048  1.0000
  H   H2277     1.0  0.12214  0.69308  0.65358  1.0000
  C   C1894     1.0  0.12437  0.62411  0.59891  1.0000
  C   C1895     1.0  0.10752  0.52016  0.62789  1.0000
  H   H2278     1.0  0.05731  0.63176  0.72909  1.0000
  H   H2279     1.0  0.14237  0.68281  0.64978  1.0000
  H   H2280     1.0  0.01392  0.56997  0.71223  1.0000
  C   C1896     1.0  0.05112  0.69262  0.58749  1.0000
  N   N128      1.0  0.07124  0.64453  0.62169  1.0000
  C   C1897     1.0  0.14136  0.66400  0.67810  1.0000
  H   H2281     1.0  0.99601  0.50917  0.76926  1.0000
  H   H2282     1.0  0.12109  0.64338  0.68529  1.0000
  C   C1898     1.0  0.06735  0.65742  0.62977  1.0000
  C   C1899     1.0  0.06665  0.68464  0.62868  1.0000
  H   H2283     1.0  0.01450  0.69282  0.58527  1.0000
  H   H2284     1.0  0.20146  0.60235  0.76946  1.0000
  C   C1900     1.0  0.16216  0.72622  0.68844  1.0000
  H   H2285     1.0  0.03444  0.49870  0.66673  1.0000
  C   C1901     1.0  0.03917  0.68794  0.58445  1.0000
  C   C1902     1.0  0.11448  0.61923  0.57928  1.0000
  H   H2286     1.0  0.15941  0.71639  0.69771  1.0000
  C   C1903     1.0  0.03978  0.50897  0.68849  1.0000
  H   H2287     1.0  0.13213  0.71921  0.69734  1.0000
  C   C1904     1.0  0.04609  0.49339  0.66968  1.0000
  C   C1905     1.0  0.10945  0.72373  0.69236  1.0000
  H   H2288     1.0  0.12435  0.63890  0.57608  1.0000
  C   C1906     1.0  0.10684  0.71647  0.58059  1.0000
  C   C1907     1.0  0.06131  0.48534  0.68943  1.0000
  H   H2289     1.0  0.03384  0.48258  0.70870  1.0000
  C   C1908     1.0  0.08516  0.48582  0.69653  1.0000
  H   H2290     1.0  0.18894  0.62942  0.77168  1.0000
  H   H2291     1.0  0.04966  0.48164  0.66709  1.0000
  C   C1909     1.0  0.20687  0.60852  0.77420  1.0000
  H   H2292     1.0  0.43047  0.67314  0.92828  1.0000
  Fe  Fe242     1.0  0.03022  0.64883  0.83783  1.0000
  S   S498      1.0  0.03152  0.62772  0.85729  1.0000
  S   S499      1.0  0.05266  0.65725  0.82745  1.0000
  Fe  Fe243     1.0  0.01798  0.61968  0.84540  1.0000
  S   S500      1.0  0.02553  0.59565  0.84101  1.0000
  Fe  Fe244     1.0  0.00814  0.64005  0.86878  1.0000
  H   H2293     1.0  0.39214  0.69462  0.83861  1.0000
  S   S501      1.0  0.01842  0.63984  0.82498  1.0000
  H   H2294     1.0  0.17204  0.54222  0.96158  1.0000
  Fe  Fe245     1.0  0.07396  0.63793  0.94347  1.0000
  S   S502      1.0  0.08645  0.61317  0.94339  1.0000
  Fe  Fe246     1.0  0.05124  0.66759  0.93223  1.0000
  S   S503      1.0  0.03649  0.67944  0.91443  1.0000
  S   S504      1.0  0.07522  0.65606  0.92140  1.0000
  S   S505      1.0  0.04896  0.64811  0.95345  1.0000
  Fe  Fe247     1.0  0.17202  0.66618  0.85327  1.0000
  S   S506      1.0  0.15408  0.65286  0.86867  1.0000
  Fe  Fe248     1.0  0.20693  0.66317  0.84289  1.0000
  S   S507      1.0  0.23048  0.65035  0.84786  1.0000
  S   S508      1.0  0.18883  0.67461  0.86079  1.0000
  S   S509      1.0  0.19041  0.65288  0.83706  1.0000
  C   C1910     1.0  0.46408  0.72514  0.89366  1.0000
  H   H2295     1.0  0.06569  0.69976  0.79299  1.0000
  S   S510      1.0  0.28803  0.55164  0.89327  1.0000
  H   H2296     1.0  0.46777  0.65464  0.85739  1.0000
  C   C1911     1.0  0.18793  0.68546  0.89940  1.0000
  S   S511      1.0  0.00772  0.66194  0.85024  1.0000
  S   S512      1.0  0.45585  0.68297  0.86893  1.0000
  S   S513      1.0  0.47606  0.68335  0.92934  1.0000
  S   S514      1.0  0.18554  0.67549  0.79464  1.0000
  Fe  Fe249     1.0  0.39540  0.64033  0.86436  1.0000
  S   S515      1.0  0.38578  0.62442  0.88630  1.0000
  S   S516      1.0  0.42175  0.63749  0.85674  1.0000
  Fe  Fe250     1.0  0.36281  0.65708  0.85866  1.0000
  S   S517      1.0  0.35085  0.64255  0.88013  1.0000
  S   S518      1.0  0.34911  0.67693  0.84347  1.0000
  Fe  Fe251     1.0  0.36814  0.64587  0.89131  1.0000
  S   S519      1.0  0.36020  0.65281  0.91430  1.0000
  Fe  Fe252     1.0  0.36945  0.62250  0.87293  1.0000
  S   S520      1.0  0.36198  0.60001  0.87661  1.0000
  S   S521      1.0  0.37878  0.66198  0.87032  1.0000
  S   S522      1.0  0.38040  0.63674  0.85043  1.0000
  Fe  Fe253     1.0  0.18573  0.69506  0.84089  1.0000
  Fe  Fe254     1.0  0.17238  0.59814  0.93646  1.0000
  S   S523      1.0  0.19163  0.59354  0.94867  1.0000
  S   S524      1.0  0.15480  0.62058  0.93584  1.0000
  Fe  Fe255     1.0  0.18593  0.56934  0.92306  1.0000
  S   S525      1.0  0.20668  0.56225  0.93396  1.0000
  S   S526      1.0  0.18477  0.55559  0.90692  1.0000
  Fe  Fe256     1.0  0.18899  0.56888  0.95478  1.0000
  H   H2297     1.0  0.47424  0.62711  0.86835  1.0000
  Fe  Fe257     1.0  0.20723  0.58757  0.92674  1.0000
  S   S527      1.0  0.22680  0.59956  0.91415  1.0000
  S   S528      1.0  0.16811  0.57403  0.94451  1.0000
  S   S529      1.0  0.18810  0.59404  0.91390  1.0000
  C   C1912     1.0  0.21370  0.48842  0.88803  1.0000
  H   H2298     1.0  0.15415  0.63556  0.96235  1.0000
  H   H2299     1.0  0.20505  0.64480  0.80558  1.0000
  H   H2300     1.0  0.22103  0.52590  0.84705  1.0000
  C   C1913     1.0  0.30002  0.71444  0.91594  1.0000
  C   C1914     1.0  0.23526  0.54080  0.84740  1.0000
  Fe  Fe258     1.0  0.99585  0.65078  0.83922  1.0000
  S   S530      1.0  0.13444  0.51443  0.93404  1.0000
  S   S531      1.0  0.16696  0.68766  0.83489  1.0000
  C   C1915     1.0  0.21717  0.50018  0.91144  1.0000
  C   C1916     1.0  0.16996  0.54508  0.91363  1.0000
  C   C1917     1.0  0.15692  0.54903  0.92524  1.0000
  C   C1918     1.0  0.14569  0.53990  0.93104  1.0000
  C   C1919     1.0  0.14766  0.52663  0.92546  1.0000
  C   C1920     1.0  0.16048  0.52293  0.91356  1.0000
  C   C1921     1.0  0.17148  0.53232  0.90747  1.0000
  H   H2301     1.0  0.15535  0.55917  0.92966  1.0000
  H   H2302     1.0  0.13562  0.54290  0.94009  1.0000
  H   H2303     1.0  0.16182  0.51291  0.90897  1.0000
  H   H2304     1.0  0.18134  0.52950  0.89819  1.0000
  H   H2305     1.0  0.08300  0.68626  0.90498  1.0000
  N   N129      1.0  0.13042  0.66169  0.95899  1.0000
  H   H2306     1.0  0.32863  0.68615  0.93053  1.0000
  H   H2307     1.0  0.38706  0.53534  0.83437  1.0000
  S   S532      1.0  0.36252  0.71984  0.94382  1.0000
  H   H2308     1.0  0.41505  0.72597  0.88819  1.0000
  C   C1922     1.0  0.14333  0.67259  0.88900  1.0000
  H   H2309     1.0  0.03584  0.61930  0.90439  1.0000
  C   C1923     1.0  0.30158  0.72749  0.92027  1.0000
  C   C1924     1.0  0.32121  0.69760  0.92767  1.0000
  H   H2310     1.0  0.22727  0.72357  0.86006  1.0000
  S   S533      1.0  0.32956  0.59069  0.82845  1.0000
  C   C1925     1.0  0.20106  0.69006  0.88907  1.0000
  H   H2311     1.0  0.33505  0.51070  0.88153  1.0000
  C   C1926     1.0  0.04493  0.61080  0.80208  1.0000
  H   H2312     1.0  0.33201  0.67172  0.87543  1.0000
  C   C1927     1.0  0.44652  0.66993  0.86606  1.0000
  C   C1928     1.0  0.43018  0.67318  0.86897  1.0000
  C   C1929     1.0  0.42239  0.66330  0.86631  1.0000
  C   C1930     1.0  0.43098  0.65028  0.86028  1.0000
  C   C1931     1.0  0.44739  0.64722  0.85707  1.0000
  C   C1932     1.0  0.45515  0.65690  0.86013  1.0000
  H   H2313     1.0  0.42357  0.68336  0.87337  1.0000
  H   H2314     1.0  0.40978  0.66585  0.86879  1.0000
  C   C1933     1.0  0.30479  0.70528  0.86906  1.0000
  H   H2315     1.0  0.22546  0.56867  0.90017  1.0000
  C   C1934     1.0  0.38801  0.68701  0.91369  1.0000
  C   C1935     1.0  0.37407  0.68584  0.92473  1.0000
  C   C1936     1.0  0.36595  0.67468  0.92552  1.0000
  C   C1937     1.0  0.37170  0.66478  0.91514  1.0000
  C   C1938     1.0  0.38596  0.66551  0.90456  1.0000
  C   C1939     1.0  0.39411  0.67658  0.90388  1.0000
  H   H2316     1.0  0.36951  0.69349  0.93266  1.0000
  H   H2317     1.0  0.35508  0.67391  0.93394  1.0000
  H   H2318     1.0  0.39071  0.65760  0.89684  1.0000
  H   H2319     1.0  0.35012  0.51088  0.83309  1.0000
  C   C1940     1.0  0.05956  0.60396  0.77754  1.0000
  C   C1941     1.0  0.34196  0.51489  0.87019  1.0000
  C   C1942     1.0  0.23040  0.49402  0.90113  1.0000
  H   H2320     1.0  0.06843  0.71013  0.86274  1.0000
  C   C1943     1.0  0.43143  0.68482  0.94518  1.0000
  H   H2321     1.0  0.32865  0.71942  0.87630  1.0000
  H   H2322     1.0  0.35160  0.55592  0.86883  1.0000
  C   C1944     1.0  0.06830  0.69568  0.78205  1.0000
  H   H2323     1.0  0.34950  0.53016  0.87843  1.0000
  H   H2324     1.0  0.24821  0.55501  0.85054  1.0000
  H   H2325     1.0  0.15074  0.51267  0.95723  1.0000
  H   H2326     1.0  0.24137  0.61374  0.80681  1.0000
  C   C1945     1.0  0.23315  0.60817  0.84044  1.0000
  C   C1946     1.0  0.27245  0.56557  0.90083  1.0000
  C   C1947     1.0  0.27004  0.58106  0.89270  1.0000
  C   C1948     1.0  0.25625  0.59165  0.89731  1.0000
  C   C1949     1.0  0.24477  0.58670  0.90999  1.0000
  C   C1950     1.0  0.24748  0.57143  0.91869  1.0000
  C   C1951     1.0  0.26150  0.56093  0.91429  1.0000
  H   H2327     1.0  0.27885  0.58491  0.88292  1.0000
  H   H2328     1.0  0.25428  0.60355  0.89078  1.0000
  H   H2329     1.0  0.23881  0.56770  0.92877  1.0000
  H   H2330     1.0  0.26348  0.54902  0.92079  1.0000
  C   C1952     1.0  0.33802  0.59373  0.84201  1.0000
  C   C1953     1.0  0.33446  0.58639  0.85768  1.0000
  C   C1954     1.0  0.34198  0.58833  0.86817  1.0000
  C   C1955     1.0  0.35273  0.59797  0.86315  1.0000
  C   C1956     1.0  0.35601  0.60562  0.84754  1.0000
  C   C1957     1.0  0.34883  0.60332  0.83697  1.0000
  C   C1958     1.0  0.20057  0.49464  0.89837  1.0000
  H   H2331     1.0  0.33932  0.58249  0.88027  1.0000
  H   H2332     1.0  0.36435  0.61301  0.84357  1.0000
  H   H2333     1.0  0.35166  0.60899  0.82483  1.0000
  C   C1959     1.0  0.25364  0.62622  0.83929  1.0000
  H   H2334     1.0  0.26161  0.63330  0.83848  1.0000
  C   C1960     1.0  0.10604  0.61401  0.94040  1.0000
  C   C1961     1.0  0.11654  0.60205  0.94792  1.0000
  C   C1962     1.0  0.13167  0.60390  0.94660  1.0000
  C   C1963     1.0  0.13618  0.61770  0.93778  1.0000
  C   C1964     1.0  0.12574  0.62949  0.93022  1.0000
  C   C1965     1.0  0.11082  0.62756  0.93140  1.0000
  H   H2335     1.0  0.11282  0.59165  0.95517  1.0000
  H   H2336     1.0  0.13954  0.59494  0.95289  1.0000
  H   H2337     1.0  0.12920  0.64016  0.92345  1.0000
  H   H2338     1.0  0.10291  0.63672  0.92548  1.0000
  C   C1966     1.0  0.12620  0.65681  0.88896  1.0000
  H   H2339     1.0  0.12382  0.64855  0.88411  1.0000
  H   H2340     1.0  0.10424  0.65911  0.90523  1.0000
  H   H2341     1.0  0.13448  0.68703  0.90583  1.0000
  H   H2342     1.0  0.99580  0.61377  0.83431  1.0000
  H   H2343     1.0  0.36598  0.56872  0.83667  1.0000
  C   C1967     1.0  0.07436  0.69564  0.89936  1.0000
  H   H2344     1.0  0.41513  0.72695  0.90689  1.0000
  C   C1968     1.0  0.01136  0.65096  0.90003  1.0000
  C   C1969     1.0  0.01202  0.64828  0.91563  1.0000
  C   C1970     1.0  0.01978  0.65689  0.92019  1.0000
  C   C1971     1.0  0.02670  0.66839  0.90918  1.0000
  C   C1972     1.0  0.02582  0.67123  0.89364  1.0000
  C   C1973     1.0  0.01833  0.66242  0.88903  1.0000
  H   H2345     1.0  0.00592  0.50822  0.78978  1.0000
  H   H2346     1.0  0.02025  0.65478  0.93225  1.0000
  H   H2347     1.0  0.03104  0.68019  0.88509  1.0000
  H   H2348     1.0  0.01792  0.66456  0.87698  1.0000
  C   C1974     1.0  0.01307  0.59276  0.83119  1.0000
  C   C1975     1.0  0.01733  0.57971  0.82469  1.0000
  C   C1976     1.0  0.00775  0.57763  0.81625  1.0000
  S   S534      1.0  0.10461  0.68015  0.92319  1.0000
  C   C1977     1.0  0.12131  0.65071  0.95893  1.0000
  H   H2349     1.0  0.13461  0.49367  0.96912  1.0000
  H   H2350     1.0  0.02812  0.57129  0.82607  1.0000
  H   H2351     1.0  0.21140  0.48385  0.87949  1.0000
  H   H2352     1.0  0.17854  0.69406  0.90441  1.0000
  H   H2353     1.0  0.32608  0.57904  0.86169  1.0000
  C   C1978     1.0  0.47878  0.61872  0.87823  1.0000
  C   C1979     1.0  0.21321  0.67909  0.88261  1.0000
  C   C1980     1.0  0.99666  0.51835  0.79300  1.0000
  H   H2354     1.0  0.22336  0.68275  0.87449  1.0000
  H   H2355     1.0  0.47120  0.70293  0.95032  1.0000
  C   C1981     1.0  0.35895  0.52622  0.84077  1.0000
  C   C1982     1.0  0.33175  0.68755  0.85324  1.0000
  C   C1983     1.0  0.06636  0.70931  0.87542  1.0000
  H   H2356     1.0  0.35058  0.68645  0.87695  1.0000
  Fe  Fe259     1.0  0.47733  0.67262  0.87899  1.0000
  C   C1984     1.0  0.46379  0.60106  0.87838  1.0000
  C   C1985     1.0  0.09694  0.69240  0.77858  1.0000
  H   H2357     1.0  0.11216  0.64912  0.96980  1.0000
  H   H2358     1.0  0.23379  0.48483  0.85891  1.0000
  C   C1986     1.0  0.22772  0.60914  0.78537  1.0000
  C   C1987     1.0  0.43860  0.70418  0.90060  1.0000
  Fe  Fe260     1.0  0.38503  0.71932  0.92588  1.0000
  C   C1988     1.0  0.48136  0.70489  0.94129  1.0000
  H   H2359     1.0  0.01109  0.56755  0.81122  1.0000
  H   H2360     1.0  0.25361  0.56720  0.86488  1.0000
  N   N130      1.0  0.43827  0.72065  0.89265  1.0000
  S   S535      1.0  0.18146  0.71990  0.84306  1.0000
  C   C1989     1.0  0.22240  0.56147  0.89400  1.0000
  C   C1990     1.0  0.34193  0.50941  0.85757  1.0000
  C   C1991     1.0  0.35880  0.53249  0.85327  1.0000
  C   C1992     1.0  0.36150  0.55822  0.83803  1.0000
  H   H2361     1.0  0.44341  0.68553  0.93976  1.0000
  C   C1993     1.0  0.22083  0.62476  0.78678  1.0000
  C   C1994     1.0  0.25373  0.49140  0.87121  1.0000
  C   C1995     1.0  0.35052  0.51495  0.84292  1.0000
  C   C1996     1.0  0.22384  0.53209  0.85398  1.0000
  C   C1997     1.0  0.35031  0.52621  0.86819  1.0000
  N   N131      1.0  0.31285  0.64012  0.85669  1.0000
  C   C1998     1.0  0.32037  0.63672  0.84113  1.0000
  C   C1999     1.0  0.31535  0.65549  0.85641  1.0000
  C   C2000     1.0  0.32095  0.62842  0.86834  1.0000
  C   C2001     1.0  0.29618  0.63934  0.86056  1.0000
  C   C2002     1.0  0.28370  0.65228  0.86338  1.0000
  C   C2003     1.0  0.29200  0.62528  0.86147  1.0000
  C   C2004     1.0  0.26808  0.65108  0.86690  1.0000
  C   C2005     1.0  0.27637  0.62421  0.86509  1.0000
  C   C2006     1.0  0.26444  0.63708  0.86781  1.0000
  H   H2362     1.0  0.31449  0.64518  0.83208  1.0000
  H   H2363     1.0  0.33296  0.63723  0.83777  1.0000
  H   H2364     1.0  0.31994  0.62494  0.84056  1.0000
  H   H2365     1.0  0.31025  0.66488  0.84739  1.0000
  H   H2366     1.0  0.32805  0.65551  0.85360  1.0000
  H   H2367     1.0  0.31037  0.65868  0.86789  1.0000
  H   H2368     1.0  0.33356  0.62864  0.86584  1.0000
  H   H2369     1.0  0.31559  0.63049  0.88024  1.0000
  H   H2370     1.0  0.32060  0.61639  0.86864  1.0000
  H   H2371     1.0  0.28567  0.66347  0.86285  1.0000
  H   H2372     1.0  0.30082  0.61498  0.85928  1.0000
  H   H2373     1.0  0.25871  0.66111  0.86881  1.0000
  H   H2374     1.0  0.27349  0.61340  0.86555  1.0000
  H   H2375     1.0  0.25233  0.63625  0.87034  1.0000
  N   N132      1.0  0.05921  0.62074  0.90418  1.0000
  C   C2007     1.0  0.05300  0.62894  0.91715  1.0000
  C   C2008     1.0  0.04630  0.62321  0.89626  1.0000
  C   C2009     1.0  0.06379  0.60383  0.91072  1.0000
  C   C2010     1.0  0.07302  0.62644  0.89379  1.0000
  C   C2011     1.0  0.07387  0.63344  0.87775  1.0000
  C   C2012     1.0  0.08615  0.62525  0.89974  1.0000
  C   C2013     1.0  0.08704  0.63897  0.86844  1.0000
  C   C2014     1.0  0.09919  0.63087  0.89039  1.0000
  C   C2015     1.0  0.09967  0.63773  0.87475  1.0000
  H   H2376     1.0  0.06110  0.62583  0.92513  1.0000
  H   H2377     1.0  0.05091  0.64175  0.91269  1.0000
  H   H2378     1.0  0.04175  0.62611  0.92448  1.0000
  H   H2379     1.0  0.04674  0.63408  0.77632  1.0000
  C   C2016     1.0  0.15787  0.64546  0.78579  1.0000
  H   H2380     1.0  0.04986  0.61669  0.88686  1.0000
  H   H2381     1.0  0.07231  0.60113  0.91821  1.0000
  H   H2382     1.0  0.05350  0.59909  0.91816  1.0000
  H   H2383     1.0  0.06914  0.59729  0.90133  1.0000
  H   H2384     1.0  0.06453  0.63482  0.87207  1.0000
  H   H2385     1.0  0.08639  0.61999  0.91176  1.0000
  H   H2386     1.0  0.08741  0.64421  0.85623  1.0000
  H   H2387     1.0  0.10896  0.62973  0.89543  1.0000
  H   H2388     1.0  0.10984  0.64202  0.86747  1.0000
  N   N133      1.0  0.15029  0.60498  0.88794  1.0000
  C   C2017     1.0  0.16436  0.59215  0.88848  1.0000
  C   C2018     1.0  0.15125  0.61372  0.87156  1.0000
  C   C2019     1.0  0.15060  0.61582  0.89709  1.0000
  C   C2020     1.0  0.13620  0.59834  0.89466  1.0000
  C   C2021     1.0  0.12609  0.59797  0.88555  1.0000
  C   C2022     1.0  0.13265  0.59128  0.91071  1.0000
  C   C2023     1.0  0.11316  0.59114  0.89224  1.0000
  C   C2024     1.0  0.11966  0.58457  0.91727  1.0000
  C   C2025     1.0  0.10994  0.58448  0.90806  1.0000
  H   H2389     1.0  0.17535  0.59647  0.88343  1.0000
  H   H2390     1.0  0.16485  0.58565  0.90057  1.0000
  H   H2391     1.0  0.16447  0.58351  0.88203  1.0000
  H   H2392     1.0  0.15250  0.60606  0.86364  1.0000
  H   H2393     1.0  0.16164  0.61910  0.86706  1.0000
  H   H2394     1.0  0.14085  0.62347  0.87038  1.0000
  H   H2395     1.0  0.15282  0.60978  0.90879  1.0000
  H   H2396     1.0  0.16000  0.62240  0.89137  1.0000
  H   H2397     1.0  0.13936  0.62453  0.89865  1.0000
  H   H2398     1.0  0.12794  0.60279  0.87322  1.0000
  H   H2399     1.0  0.14000  0.59071  0.91832  1.0000
  H   H2400     1.0  0.10564  0.59092  0.88507  1.0000
  H   H2401     1.0  0.11716  0.57929  0.92957  1.0000
  H   H2402     1.0  0.10001  0.57908  0.91321  1.0000
  H   H2403     1.0  0.33494  0.50111  0.85900  1.0000
  Fe  Fe261     1.0  0.18662  0.67494  0.81906  1.0000
  H   H2404     1.0  0.10148  0.67719  0.86442  1.0000
  H   H2405     1.0  0.10922  0.66680  0.81035  1.0000
  C   C2026     1.0  0.31262  0.69122  0.87698  1.0000
  S   S536      1.0  0.28958  0.58232  0.85282  1.0000
  C   C2027     1.0  0.99911  0.60363  0.82939  1.0000
  Fe  Fe262     1.0  0.29400  0.55806  0.86719  1.0000
  H   H2406     1.0  0.27205  0.60719  0.83258  1.0000
  N   N134      1.0  0.04396  0.61058  0.78631  1.0000
  C   C2028     1.0  0.34870  0.69264  0.88629  1.0000
  S   S537      1.0  0.39762  0.72469  0.94058  1.0000
  H   H2407     1.0  0.03562  0.58936  0.79406  1.0000
  C   C2029     1.0  0.15077  0.64149  0.97179  1.0000
  C   C2030     1.0  0.03193  0.60176  0.78828  1.0000
  Fe  Fe263     1.0  0.48608  0.67335  0.90812  1.0000
  H   H2408     1.0  0.05398  0.70833  0.88071  1.0000
  H   H2409     1.0  0.21903  0.65643  0.78046  1.0000
  C   C2031     1.0  0.11980  0.68888  0.85926  1.0000
  N   N135      1.0  0.17401  0.51750  0.96774  1.0000
  H   H2410     1.0  0.41220  0.70009  0.84836  1.0000
  H   H2411     1.0  0.12880  0.63905  0.95786  1.0000
  H   H2412     1.0  0.21319  0.70995  0.85001  1.0000
  H   H2413     1.0  0.38855  0.52933  0.85430  1.0000
  H   H2414     1.0  0.26245  0.51815  0.82979  1.0000
  C   C2032     1.0  0.20230  0.50033  0.91016  1.0000
  H   H2415     1.0  0.24137  0.54134  0.83537  1.0000
  H   H2416     1.0  0.42742  0.72038  0.94810  1.0000
  C   C2033     1.0  0.30969  0.69976  0.91959  1.0000
  H   H2417     1.0  0.36922  0.54274  0.87384  1.0000
  N   N136      1.0  0.35200  0.70835  0.88001  1.0000
  H   H2418     1.0  0.02054  0.60652  0.79558  1.0000
  H   H2419     1.0  0.18898  0.49470  0.89738  1.0000
  C   C2034     1.0  0.38404  0.53934  0.84539  1.0000
  S   S538      1.0  0.39788  0.70154  0.91166  1.0000
  C   C2035     1.0  0.07365  0.65186  0.77752  1.0000
  H   H2420     1.0  0.21870  0.55165  0.90326  1.0000
  H   H2421     1.0  0.19207  0.50470  0.91841  1.0000
  H   H2422     1.0  0.34380  0.72926  0.86401  1.0000
  H   H2423     1.0  0.11541  0.65494  0.94897  1.0000
  H   H2424     1.0  0.19050  0.48617  0.83099  1.0000
  S   S539      1.0  0.48776  0.68921  0.88464  1.0000
  H   H2425     1.0  0.38865  0.68073  0.96335  1.0000
  C   C2036     1.0  0.07687  0.65056  0.80318  1.0000
  C   C2037     1.0  0.21616  0.53126  0.86948  1.0000
  H   H2426     1.0  0.39059  0.54855  0.84337  1.0000
  S   S540      1.0  0.26361  0.48658  0.83023  1.0000
  H   H2427     1.0  0.04221  0.63574  0.89121  1.0000
  C   C2038     1.0  0.24263  0.62470  0.79800  1.0000
  H   H2428     1.0  0.48436  0.58924  0.89565  1.0000
  C   C2039     1.0  0.20671  0.63183  0.78156  1.0000
  C   C2040     1.0  0.38029  0.70976  0.87649  1.0000
  H   H2429     1.0  0.10955  0.67598  0.97031  1.0000
  H   H2430     1.0  0.33208  0.70842  0.93844  1.0000
  H   H2431     1.0  0.24171  0.49376  0.90284  1.0000
  H   H2432     1.0  0.09592  0.64543  0.78399  1.0000
  H   H2433     1.0  0.25176  0.62182  0.78769  1.0000
  H   H2434     1.0  0.19023  0.52290  0.94580  1.0000
  C   C2041     1.0  0.40067  0.68177  0.95834  1.0000
  H   H2435     1.0  0.03317  0.61439  0.80941  1.0000
  H   H2436     1.0  0.14981  0.67115  0.94388  1.0000
  S   S541      1.0  0.28865  0.71628  0.87974  1.0000
  H   H2437     1.0  0.48987  0.61110  0.87337  1.0000
  H   H2438     1.0  0.34148  0.71188  0.86053  1.0000
  H   H2439     1.0  0.43204  0.69885  0.89569  1.0000
  C   C2042     1.0  0.17394  0.66449  0.79182  1.0000
  H   H2440     1.0  0.35662  0.68529  0.89405  1.0000
  H   H2441     1.0  0.44269  0.71830  0.95766  1.0000
  H   H2442     1.0  0.03837  0.66126  0.80189  1.0000
  H   H2443     1.0  0.18759  0.50318  0.95160  1.0000
  N   N137      1.0  0.46711  0.60960  0.88818  1.0000
  H   H2444     1.0  0.07155  0.61960  0.78137  1.0000
  H   H2445     1.0  0.14905  0.65278  0.94100  1.0000
  C   C2043     1.0  0.47424  0.59788  0.90052  1.0000
  C   C2044     1.0  0.45304  0.62013  0.89526  1.0000
  C   C2045     1.0  0.45414  0.62846  0.90562  1.0000
  C   C2046     1.0  0.43804  0.62254  0.89211  1.0000
  C   C2047     1.0  0.44110  0.63861  0.91232  1.0000
  C   C2048     1.0  0.42509  0.63271  0.89889  1.0000
  C   C2049     1.0  0.42660  0.64075  0.90894  1.0000
  C   C2050     1.0  0.12416  0.67856  0.79092  1.0000
  H   H2446     1.0  0.07492  0.70667  0.90164  1.0000
  H   H2447     1.0  0.45521  0.59378  0.88522  1.0000
  C   C2051     1.0  0.23898  0.54881  0.85624  1.0000
  H   H2448     1.0  0.24726  0.63147  0.80333  1.0000
  H   H2449     1.0  0.48192  0.62554  0.88466  1.0000
  H   H2450     1.0  0.46554  0.59147  0.90893  1.0000
  H   H2451     1.0  0.31587  0.48786  0.83410  1.0000
  H   H2452     1.0  0.47899  0.60319  0.90717  1.0000
  H   H2453     1.0  0.46517  0.62729  0.90849  1.0000
  H   H2454     1.0  0.43597  0.61705  0.88416  1.0000
  H   H2455     1.0  0.41653  0.64871  0.91403  1.0000
  H   H2456     1.0  0.41385  0.63459  0.89602  1.0000
  C   C2052     1.0  0.42339  0.69105  0.95847  1.0000
  H   H2457     1.0  0.45368  0.68297  0.96115  1.0000
  H   H2458     1.0  0.40313  0.67070  0.93984  1.0000
  H   H2459     1.0  0.45583  0.71299  0.87328  1.0000
  C   C2053     1.0  0.48925  0.71590  0.94134  1.0000
  C   C2054     1.0  0.40006  0.70223  0.85452  1.0000
  H   H2460     1.0  0.33646  0.69297  0.89301  1.0000
  C   C2055     1.0  0.42170  0.72941  0.89465  1.0000
  C   C2056     1.0  0.29298  0.48700  0.83259  1.0000
  H   H2461     1.0  0.43321  0.70300  0.91319  1.0000
  C   C2057     1.0  0.40784  0.68898  0.96507  1.0000
  H   H2462     1.0  0.48493  0.72248  0.95027  1.0000
  H   H2463     1.0  0.06740  0.72052  0.87697  1.0000
  S   S542      1.0  0.14870  0.63276  0.78210  1.0000
  C   C2058     1.0  0.99369  0.58838  0.81467  1.0000
  H   H2464     1.0  0.22103  0.64347  0.81379  1.0000
  H   H2465     1.0  0.13585  0.66985  0.93408  1.0000
  C   C2059     1.0  0.30417  0.49447  0.83333  1.0000
  H   H2466     1.0  0.29118  0.71547  0.90977  1.0000
  N   N138      1.0  0.19693  0.64225  0.89994  1.0000
  C   C2060     1.0  0.19812  0.63500  0.91625  1.0000
  C   C2061     1.0  0.18144  0.64174  0.89808  1.0000
  C   C2062     1.0  0.20904  0.63259  0.88984  1.0000
  C   C2063     1.0  0.19868  0.65853  0.89629  1.0000
  C   C2064     1.0  0.18677  0.66992  0.90311  1.0000
  C   C2065     1.0  0.21218  0.66352  0.88621  1.0000
  H   H2467     1.0  0.18895  0.64123  0.92458  1.0000
  H   H2468     1.0  0.19682  0.62273  0.91954  1.0000
  H   H2469     1.0  0.20973  0.63479  0.91810  1.0000
  H   H2470     1.0  0.17953  0.64814  0.88631  1.0000
  H   H2471     1.0  0.17152  0.64671  0.90674  1.0000
  H   H2472     1.0  0.18033  0.62961  0.89975  1.0000
  H   H2473     1.0  0.22096  0.63095  0.89177  1.0000
  H   H2474     1.0  0.20711  0.62062  0.89230  1.0000
  H   H2475     1.0  0.20914  0.63779  0.87732  1.0000
  H   H2476     1.0  0.17642  0.66693  0.91127  1.0000
  H   H2477     1.0  0.22194  0.65575  0.88057  1.0000
  C   C2066     1.0  0.11941  0.67694  0.95999  1.0000
  C   C2067     1.0  0.39583  0.70749  0.86823  1.0000
  H   H2478     1.0  0.11379  0.68178  0.94984  1.0000
  C   C2068     1.0  0.12513  0.68884  0.77650  1.0000
  N   N139      1.0  0.07746  0.69589  0.88259  1.0000
  H   H2479     1.0  0.32807  0.70553  0.83290  1.0000
  S   S543      1.0  0.00245  0.63935  0.89443  1.0000
  H   H2480     1.0  0.09169  0.71853  0.88276  1.0000
  C   C2069     1.0  0.09373  0.69750  0.87504  1.0000
  C   C2070     1.0  0.10449  0.68704  0.86611  1.0000
  C   C2071     1.0  0.09920  0.70999  0.87634  1.0000
  H   H2481     1.0  0.26436  0.48611  0.86331  1.0000
  C   C2072     1.0  0.11456  0.71165  0.86953  1.0000
  C   C2073     1.0  0.21634  0.63718  0.80800  1.0000
  H   H2482     1.0  0.35152  0.72753  0.88941  1.0000
  C   C2074     1.0  0.07403  0.68148  0.88131  1.0000
  H   H2483     1.0  0.47455  0.59318  0.87332  1.0000
  H   H2484     1.0  0.21365  0.62645  0.81648  1.0000
  C   C2075     1.0  0.31347  0.72488  0.92851  1.0000
  H   H2485     1.0  0.44610  0.70766  0.94314  1.0000
  H   H2486     1.0  0.15547  0.53627  0.96022  1.0000
  C   C2076     1.0  0.42419  0.67753  0.93860  1.0000
  H   H2487     1.0  0.12549  0.68572  0.96033  1.0000
  C   C2077     1.0  0.44768  0.72670  0.89941  1.0000
  H   H2488     1.0  0.12798  0.68060  0.85279  1.0000
  C   C2078     1.0  0.23111  0.54857  0.87197  1.0000
  H   H2489     1.0  0.02690  0.63229  0.78443  1.0000
  H   H2490     1.0  0.36501  0.69827  0.85270  1.0000
  C   C2079     1.0  0.31027  0.71041  0.85312  1.0000
  C   C2080     1.0  0.32373  0.70149  0.84520  1.0000
  H   H2491     1.0  0.08570  0.67858  0.80041  1.0000
  C   C2081     1.0  0.10983  0.67509  0.79929  1.0000
  C   C2082     1.0  0.38876  0.69919  0.84902  1.0000
  C   C2083     1.0  0.05090  0.65763  0.79806  1.0000
  H   H2492     1.0  0.34851  0.56169  0.84063  1.0000
  H   H2493     1.0  0.08198  0.67092  0.88655  1.0000
  H   H2494     1.0  0.15422  0.67644  0.88435  1.0000
  C   C2084     1.0  0.14036  0.66152  0.88309  1.0000
  H   H2495     1.0  0.33595  0.71764  0.89910  1.0000
  C   C2085     1.0  0.23749  0.63197  0.84333  1.0000
  C   C2086     1.0  0.32602  0.68239  0.86910  1.0000
  H   H2496     1.0  0.30836  0.68715  0.88928  1.0000
  C   C2087     1.0  0.11506  0.66285  0.90090  1.0000
  S   S544      1.0  0.08419  0.64971  0.95517  1.0000
  H   H2497     1.0  0.45409  0.63737  0.85209  1.0000
  H   H2498     1.0  0.20732  0.52441  0.87462  1.0000
  H   H2499     1.0  0.11858  0.72111  0.87092  1.0000
  H   H2500     1.0  0.17152  0.65000  0.81487  1.0000
  H   H2501     1.0  0.21846  0.50458  0.92067  1.0000
  C   C2088     1.0  0.48659  0.69652  0.92957  1.0000
  Fe  Fe264     1.0  0.08391  0.66867  0.93370  1.0000
  Fe  Fe265     1.0  0.05949  0.66150  0.96354  1.0000
  C   C2089     1.0  0.11809  0.67348  0.90730  1.0000
  C   C2090     1.0  0.13217  0.67856  0.90116  1.0000
  C   C2091     1.0  0.37317  0.70145  0.85717  1.0000
  H   H2502     1.0  0.20180  0.70217  0.88600  1.0000
  H   H2503     1.0  0.40473  0.70935  0.87278  1.0000
  S   S545      1.0  0.20500  0.68421  0.82336  1.0000
  Fe  Fe266     1.0  0.31283  0.57449  0.83772  1.0000
  H   H2504     1.0  0.15760  0.63309  0.80948  1.0000
  C   C2092     1.0  0.25956  0.61142  0.83598  1.0000
  S   S546      1.0  0.31807  0.55083  0.85319  1.0000
  S   S547      1.0  0.05991  0.68179  0.94301  1.0000
  H   H2505     1.0  0.37799  0.71338  0.88725  1.0000
  C   C2093     1.0  0.22723  0.62294  0.84391  1.0000
  H   H2506     1.0  0.08443  0.64832  0.81111  1.0000
  H   H2507     1.0  0.21215  0.56859  0.88906  1.0000
  N   N140      1.0  0.22751  0.63344  0.79371  1.0000
  C   C2094     1.0  0.44452  0.72143  0.87575  1.0000
  C   C2095     1.0  0.13866  0.65515  0.97195  1.0000
  Fe  Fe267     1.0  0.14423  0.49020  0.93000  1.0000
  H   H2508     1.0  0.17303  0.51890  0.94406  1.0000
  C   C2096     1.0  0.06061  0.65479  0.80836  1.0000
  C   C2097     1.0  0.14184  0.66395  0.94389  1.0000
  H   H2509     1.0  0.45078  0.69705  0.89946  1.0000
  H   H2510     1.0  0.21476  0.62720  0.84727  1.0000
  H   H2511     1.0  0.36520  0.53031  0.82912  1.0000
  C   C2098     1.0  0.36431  0.55155  0.86435  1.0000
  H   H2512     1.0  0.40504  0.67720  0.89558  1.0000
  S   S548      1.0  0.47408  0.65782  0.90306  1.0000
  S   S549      1.0  0.28247  0.54876  0.85440  1.0000
  C   C2099     1.0  0.20752  0.72115  0.85282  1.0000
  Fe  Fe268     1.0  0.28001  0.57249  0.83872  1.0000
  H   H2513     1.0  0.24383  0.57683  0.87994  1.0000
  H   H2514     1.0  0.36992  0.56160  0.86174  1.0000
  C   C2100     1.0  0.24195  0.57017  0.87247  1.0000
  C   C2101     1.0  0.18153  0.51551  0.95164  1.0000
  Fe  Fe269     1.0  0.30607  0.54339  0.83911  1.0000
  C   C2102     1.0  0.24934  0.60234  0.83664  1.0000
  H   H2515     1.0  0.05023  0.59905  0.80830  1.0000
  H   H2516     1.0  0.13461  0.67305  0.79548  1.0000
  H   H2517     1.0  0.28212  0.53128  0.83133  1.0000
  H   H2518     1.0  0.36519  0.55531  0.82644  1.0000
  C   C2103     1.0  0.16457  0.53357  0.96705  1.0000
  H   H2519     1.0  0.23393  0.57821  0.86508  1.0000
  H   H2520     1.0  0.30816  0.68998  0.91622  1.0000
  C   C2104     1.0  0.16896  0.65231  0.80356  1.0000
  C   C2105     1.0  0.16110  0.64273  0.80049  1.0000
  S   S550      1.0  0.25662  0.58386  0.83240  1.0000
  S   S551      1.0  0.30294  0.56651  0.82217  1.0000
  C   C2106     1.0  0.28515  0.51892  0.83187  1.0000
  C   C2107     1.0  0.27403  0.51149  0.83094  1.0000
  C   C2108     1.0  0.34107  0.71766  0.86977  1.0000
  H   H2521     1.0  0.06249  0.69367  0.90560  1.0000
  C   C2109     1.0  0.40881  0.67610  0.94512  1.0000
  H   H2522     1.0  0.22521  0.60119  0.84088  1.0000
  C   C2110     1.0  0.30030  0.51045  0.83297  1.0000
  C   C2111     1.0  0.27793  0.49554  0.83123  1.0000
  S   S552      1.0  0.31467  0.51955  0.83366  1.0000
  H   H2523     1.0  0.47022  0.72019  0.88375  1.0000
  H   H2524     1.0  0.20076  0.64362  0.78232  1.0000
  N   N141      1.0  0.36698  0.54517  0.85045  1.0000
  H   H2525     1.0  0.24358  0.53452  0.89688  1.0000
  N   N142      1.0  0.43124  0.69897  0.96505  1.0000
  H   H2526     1.0  0.25234  0.54996  0.89607  1.0000
  C   C2112     1.0  0.24797  0.54478  0.88909  1.0000
  H   H2527     1.0  0.25824  0.54043  0.88033  1.0000
  H   H2528     1.0  0.21369  0.53784  0.89043  1.0000
  C   C2113     1.0  0.32311  0.71013  0.93211  1.0000
  N   N143      1.0  0.23572  0.55621  0.88166  1.0000
  C   C2114     1.0  0.21981  0.53922  0.87842  1.0000
  C   C2115     1.0  0.23015  0.64821  0.78267  1.0000
  C   C2116     1.0  0.08338  0.64899  0.78781  1.0000
  C   C2117     1.0  0.17062  0.66727  0.77715  1.0000
  H   H2529     1.0  0.08009  0.72133  0.77715  1.0000
  H   H2530     1.0  0.19478  0.52355  0.96917  1.0000
  H   H2531     1.0  0.06188  0.68037  0.88754  1.0000
  C   C2118     1.0  0.22909  0.48780  0.88919  1.0000
  H   H2532     1.0  0.24769  0.50201  0.86393  1.0000
  C   C2119     1.0  0.36842  0.70688  0.87114  1.0000
  H   H2533     1.0  0.44229  0.64496  0.92006  1.0000
  Fe  Fe270     1.0  0.37458  0.72756  0.95754  1.0000
  H   H2534     1.0  0.07493  0.68134  0.86904  1.0000
  C   C2120     1.0  0.09636  0.68193  0.79334  1.0000
  H   H2535     1.0  0.00154  0.52886  0.78697  1.0000
  H   H2536     1.0  0.13680  0.70232  0.85595  1.0000
  C   C2121     1.0  0.12484  0.70109  0.86105  1.0000
  C   C2122     1.0  0.43711  0.71183  0.95294  1.0000
  H   H2537     1.0  0.30423  0.72128  0.84693  1.0000
  H   H2538     1.0  0.45909  0.60919  0.86837  1.0000
  H   H2539     1.0  0.05176  0.61912  0.80198  1.0000
  H   H2540     1.0  0.00662  0.63944  0.92419  1.0000
  H   H2541     1.0  0.25808  0.49510  0.87939  1.0000
  C   C2123     1.0  0.47317  0.72958  0.90089  1.0000
  Fe  Fe271     1.0  0.99583  0.58154  0.78098  1.0000
  C   C2124     1.0  0.21552  0.72890  0.85840  1.0000
  H   H2542     1.0  0.43670  0.71805  0.87050  1.0000
  C   C2125     1.0  0.15232  0.50532  0.96834  1.0000
  H   H2543     1.0  0.23598  0.65460  0.78720  1.0000
  C   C2126     1.0  0.44470  0.68766  0.97070  1.0000
  H   H2544     1.0  0.06874  0.68299  0.78506  1.0000
  C   C2127     1.0  0.19222  0.72811  0.85070  1.0000
  S   S553      1.0  0.99450  0.62982  0.85881  1.0000
  C   C2128     1.0  0.34855  0.71590  0.89327  1.0000
  H   H2545     1.0  0.23841  0.60271  0.78907  1.0000
  H   H2546     1.0  0.35505  0.70862  0.90238  1.0000
  H   H2547     1.0  0.48574  0.72777  0.89653  1.0000
  C   C2129     1.0  0.07270  0.60999  0.77625  1.0000
  H   H2548     1.0  0.22620  0.58932  0.77816  1.0000
  C   C2130     1.0  0.22079  0.60122  0.77912  1.0000
  C   C2131     1.0  0.05743  0.65636  0.78262  1.0000
  H   H2549     1.0  0.02935  0.60239  0.77700  1.0000
  C   C2132     1.0  0.03843  0.62669  0.77799  1.0000
  H   H2550     1.0  0.99502  0.51681  0.80573  1.0000
  H   H2551     1.0  0.05808  0.70124  0.77654  1.0000
  C   C2133     1.0  0.19985  0.62379  0.77542  1.0000
  S   S554      1.0  0.02194  0.57376  0.77544  1.0000
  H   H2552     1.0  0.41042  0.71445  0.97465  1.0000
  C   C2134     1.0  0.14285  0.49454  0.97518  1.0000
  S   S555      1.0  0.14009  0.48165  0.91124  1.0000
  C   C2135     1.0  0.27684  0.88466  0.12617  1.0000
  C   C2136     1.0  0.32039  0.84506  0.15007  1.0000
  C   C2137     1.0  0.28843  0.89896  0.13635  1.0000
  H   H2553     1.0  0.27904  0.90949  0.13385  1.0000
  S   S556      1.0  0.28904  0.95444  0.13121  1.0000
  N   N144      1.0  0.28284  0.88445  0.13966  1.0000
  H   H2554     1.0  0.46348  0.74396  0.00821  1.0000
  H   H2555     1.0  0.42002  0.81932  0.03434  1.0000
  H   H2556     1.0  0.26280  0.90872  0.05717  1.0000
  S   S557      1.0  0.26196  0.83649  0.99789  1.0000
  H   H2557     1.0  0.28601  0.88557  0.11527  1.0000
  C   C2138     1.0  0.42293  0.81313  0.99342  1.0000
  C   C2139     1.0  0.34117  0.88637  0.13994  1.0000
  H   H2558     1.0  0.49076  0.73543  0.16364  1.0000
  N   N145      1.0  0.44228  0.76472  0.02561  1.0000
  H   H2559     1.0  0.31127  0.94361  0.05431  1.0000
  Fe  Fe272     1.0  0.47283  0.79872  0.08464  1.0000
  H   H2560     1.0  0.25918  0.89400  0.15073  1.0000
  H   H2561     1.0  0.45210  0.78236  0.02810  1.0000
  Fe  Fe273     1.0  0.43894  0.80522  0.08266  1.0000
  S   S558      1.0  0.44443  0.79006  0.06573  1.0000
  S   S559      1.0  0.41324  0.81526  0.08947  1.0000
  C   C2140     1.0  0.34888  0.90429  0.11581  1.0000
  H   H2562     1.0  0.26649  0.93931  0.02077  1.0000
  H   H2563     1.0  0.29842  0.89953  0.12612  1.0000
  S   S560      1.0  0.45281  0.78770  0.09908  1.0000
  S   S561      1.0  0.45821  0.81781  0.06989  1.0000
  Fe  Fe274     1.0  0.36622  0.76689  0.06992  1.0000
  C   C2141     1.0  0.27966  0.93147  0.05347  1.0000
  S   S562      1.0  0.35475  0.76711  0.09489  1.0000
  S   S563      1.0  0.24934  0.76491  0.15086  1.0000
  H   H2564     1.0  0.26566  0.87329  0.15702  1.0000
  S   S564      1.0  0.28390  0.75255  0.15949  1.0000
  Fe  Fe275     1.0  0.36375  0.76700  0.03799  1.0000
  S   S565      1.0  0.34723  0.76788  0.02367  1.0000
  H   H2565     1.0  0.33701  0.90711  0.11343  1.0000
  S   S566      1.0  0.35994  0.78625  0.05002  1.0000
  H   H2566     1.0  0.42599  0.75536  0.04556  1.0000
  Fe  Fe276     1.0  0.29450  0.86266  0.05059  1.0000
  S   S567      1.0  0.30541  0.87178  0.06437  1.0000
  S   S568      1.0  0.30120  0.86597  0.02449  1.0000
  Fe  Fe277     1.0  0.27400  0.84709  0.07914  1.0000
  S   S569      1.0  0.28229  0.85531  0.09539  1.0000
  S   S570      1.0  0.25657  0.83187  0.08857  1.0000
  Fe  Fe278     1.0  0.28091  0.87799  0.07810  1.0000
  S   S571      1.0  0.27050  0.89999  0.08704  1.0000
  Fe  Fe279     1.0  0.30608  0.84849  0.08079  1.0000
  S   S572      1.0  0.32360  0.83738  0.09587  1.0000
  S   S573      1.0  0.26983  0.87060  0.06320  1.0000
  S   S574      1.0  0.29792  0.83865  0.06547  1.0000
  H   H2567     1.0  0.21358  0.76909  0.16886  1.0000
  H   H2568     1.0  0.45532  0.82969  0.00235  1.0000
  H   H2569     1.0  0.41409  0.78210  0.08875  1.0000
  H   H2570     1.0  0.32042  0.97908  0.15572  1.0000
  Fe  Fe280     1.0  0.29365  0.93555  0.15206  1.0000
  Fe  Fe281     1.0  0.31157  0.94184  0.11837  1.0000
  C   C2142     1.0  0.38818  0.75084  0.11525  1.0000
  S   S575      1.0  0.31757  0.93404  0.09597  1.0000
  C   C2143     1.0  0.26238  0.78669  0.11103  1.0000
  H   H2571     1.0  0.27782  0.89549  0.02949  1.0000
  Fe  Fe282     1.0  0.24607  0.74046  0.16057  1.0000
  H   H2572     1.0  0.32629  0.74584  0.06886  1.0000
  H   H2573     1.0  0.25452  0.90976  0.04140  1.0000
  S   S576      1.0  0.32676  0.95457  0.12320  1.0000
  C   C2144     1.0  0.35548  0.74413  0.99031  1.0000
  C   C2145     1.0  0.28376  0.90904  0.08990  1.0000
  C   C2146     1.0  0.29977  0.90497  0.08360  1.0000
  C   C2147     1.0  0.31009  0.91262  0.08564  1.0000
  C   C2148     1.0  0.30451  0.92410  0.09432  1.0000
  C   C2149     1.0  0.28858  0.92783  0.10111  1.0000
  C   C2150     1.0  0.27818  0.92045  0.09872  1.0000
  H   H2574     1.0  0.30421  0.89631  0.07674  1.0000
  H   H2575     1.0  0.32241  0.90974  0.08032  1.0000
  H   H2576     1.0  0.28419  0.93677  0.10776  1.0000
  H   H2577     1.0  0.26580  0.92365  0.10365  1.0000
  C   C2151     1.0  0.29010  0.85833  0.01675  1.0000
  C   C2152     1.0  0.29570  0.85535  0.00179  1.0000
  C   C2153     1.0  0.28705  0.84894  0.99569  1.0000
  C   C2154     1.0  0.27267  0.84565  0.00448  1.0000
  C   C2155     1.0  0.26690  0.84909  0.01922  1.0000
  C   C2156     1.0  0.27563  0.85525  0.02540  1.0000
  H   H2578     1.0  0.30683  0.85783  0.99499  1.0000
  H   H2579     1.0  0.42870  0.76324  0.11452  1.0000
  H   H2580     1.0  0.25560  0.84701  0.02592  1.0000
  H   H2581     1.0  0.27109  0.85767  0.03684  1.0000
  C   C2157     1.0  0.27866  0.78161  0.10823  1.0000
  C   C2158     1.0  0.25560  0.80219  0.10508  1.0000
  C   C2159     1.0  0.26509  0.81269  0.09660  1.0000
  C   C2160     1.0  0.28135  0.80757  0.09409  1.0000
  C   C2161     1.0  0.28813  0.79201  0.09957  1.0000
  H   H2582     1.0  0.24300  0.80605  0.10704  1.0000
  H   H2583     1.0  0.28879  0.81553  0.08799  1.0000
  H   H2584     1.0  0.30075  0.78815  0.09746  1.0000
  C   C2162     1.0  0.34483  0.78618  0.09605  1.0000
  C   C2163     1.0  0.34608  0.79259  0.10763  1.0000
  C   C2164     1.0  0.33956  0.80837  0.10751  1.0000
  C   C2165     1.0  0.33148  0.81763  0.09603  1.0000
  C   C2166     1.0  0.32968  0.81101  0.08490  1.0000
  C   C2167     1.0  0.33634  0.79531  0.08491  1.0000
  H   H2585     1.0  0.35249  0.78549  0.11637  1.0000
  H   H2586     1.0  0.34090  0.81344  0.11620  1.0000
  H   H2587     1.0  0.32361  0.81806  0.07595  1.0000
  H   H2588     1.0  0.33494  0.79029  0.07623  1.0000
  C   C2168     1.0  0.40642  0.81582  0.07326  1.0000
  C   C2169     1.0  0.39321  0.81005  0.07512  1.0000
  C   C2170     1.0  0.39012  0.80690  0.06235  1.0000
  C   C2171     1.0  0.39994  0.81004  0.04766  1.0000
  C   C2172     1.0  0.41243  0.81689  0.04564  1.0000
  C   C2173     1.0  0.41573  0.81966  0.05844  1.0000
  H   H2589     1.0  0.38578  0.80730  0.08647  1.0000
  H   H2590     1.0  0.38025  0.80187  0.06391  1.0000
  C   C2174     1.0  0.35038  0.95085  0.15559  1.0000
  H   H2591     1.0  0.42593  0.82418  0.05693  1.0000
  C   C2175     1.0  0.28759  0.81971  0.15776  1.0000
  C   C2176     1.0  0.36785  0.74177  0.01569  1.0000
  H   H2592     1.0  0.27221  0.88666  0.16342  1.0000
  C   C2177     1.0  0.35530  0.75399  0.01223  1.0000
  C   C2178     1.0  0.48161  0.79389  0.01950  1.0000
  C   C2179     1.0  0.30116  0.92569  0.03202  1.0000
  H   H2593     1.0  0.37788  0.86399  0.11580  1.0000
  H   H2594     1.0  0.32968  0.83512  0.15288  1.0000
  S   S577      1.0  0.34941  0.92208  0.15354  1.0000
  H   H2595     1.0  0.26887  0.80879  0.14563  1.0000
  H   H2596     1.0  0.27606  0.78892  0.15418  1.0000
  C   C2180     1.0  0.27292  0.92731  0.01961  1.0000
  C   C2181     1.0  0.48116  0.83160  0.09210  1.0000
  H   H2597     1.0  0.27235  0.87409  0.12792  1.0000
  H   H2598     1.0  0.43821  0.78928  0.01590  1.0000
  H   H2599     1.0  0.45767  0.77851  0.00904  1.0000
  N   N146      1.0  0.29407  0.80103  0.14028  1.0000
  C   C2182     1.0  0.26103  0.91581  0.04554  1.0000
  H   H2600     1.0  0.40068  0.77116  0.08924  1.0000
  C   C2183     1.0  0.35579  0.93479  0.16018  1.0000
  H   H2601     1.0  0.42042  0.78361  0.11148  1.0000
  S   S578      1.0  0.30729  0.94770  0.15971  1.0000
  C   C2184     1.0  0.36819  0.88675  0.12918  1.0000
  C   C2185     1.0  0.38330  0.73691  0.12254  1.0000
  H   H2602     1.0  0.46982  0.82940  0.09323  1.0000
  H   H2603     1.0  0.48097  0.77661  0.04089  1.0000
  H   H2604     1.0  0.37268  0.74080  0.02547  1.0000
  S   S579      1.0  0.36791  0.74768  0.05858  1.0000
  S   S580      1.0  0.45570  0.74912  0.08868  1.0000
  S   S581      1.0  0.22246  0.73537  0.16376  1.0000
  C   C2186     1.0  0.27811  0.79827  0.14357  1.0000
  S   S582      1.0  0.28739  0.76255  0.11601  1.0000
  H   H2605     1.0  0.47832  0.74536  0.12004  1.0000
  H   H2606     1.0  0.41842  0.77470  0.03571  1.0000
  S   S583      1.0  0.48079  0.78282  0.06815  1.0000
  N   N147      1.0  0.35307  0.88829  0.12517  1.0000
  C   C2187     1.0  0.29609  0.81385  0.12631  1.0000
  H   H2607     1.0  0.28620  0.82414  0.12676  1.0000
  S   S584      1.0  0.38909  0.76678  0.02761  1.0000
  C   C2188     1.0  0.40042  0.75457  0.11920  1.0000
  H   H2608     1.0  0.38211  0.75880  0.10660  1.0000
  H   H2609     1.0  0.31175  0.81213  0.00026  1.0000
  H   H2610     1.0  0.29707  0.87588  0.16432  1.0000
  H   H2611     1.0  0.35722  0.90599  0.10436  1.0000
  C   C2189     1.0  0.30171  0.86814  0.15640  1.0000
  Fe  Fe283     1.0  0.27354  0.75395  0.13968  1.0000
  H   H2612     1.0  0.27611  0.79473  0.13380  1.0000
  C   C2190     1.0  0.48478  0.77882  0.02847  1.0000
  C   C2191     1.0  0.44815  0.82243  0.00083  1.0000
  H   H2613     1.0  0.44132  0.85132  0.98334  1.0000
  C   C2192     1.0  0.36582  0.92894  0.17053  1.0000
  H   H2614     1.0  0.33020  0.81356  0.00187  1.0000
  H   H2615     1.0  0.32340  0.78549  0.98238  1.0000
  H   H2616     1.0  0.31784  0.85337  0.17048  1.0000
  C   C2193     1.0  0.45973  0.74969  0.04436  1.0000
  H   H2617     1.0  0.35096  0.97345  0.15761  1.0000
  H   H2618     1.0  0.46694  0.83492  0.97589  1.0000
  C   C2194     1.0  0.47309  0.73568  0.09153  1.0000
  H   H2619     1.0  0.33069  0.75370  0.08880  1.0000
  H   H2620     1.0  0.42016  0.76134  0.09184  1.0000
  S   S585      1.0  0.39764  0.80415  0.03208  1.0000
  H   H2621     1.0  0.29951  0.86145  0.12235  1.0000
  C   C2195     1.0  0.48763  0.73893  0.08330  1.0000
  H   H2622     1.0  0.37765  0.88849  0.11858  1.0000
  Fe  Fe284     1.0  0.46487  0.80106  0.05431  1.0000
  H   H2623     1.0  0.41722  0.74501  0.13442  1.0000
  C   C2196     1.0  0.37267  0.78528  0.98591  1.0000
  C   C2197     1.0  0.35348  0.87683  0.11644  1.0000
  H   H2624     1.0  0.34372  0.87436  0.14710  1.0000
  C   C2198     1.0  0.35345  0.85512  0.09977  1.0000
  H   H2625     1.0  0.35269  0.79558  0.00075  1.0000
  C   C2199     1.0  0.43720  0.81574  0.98301  1.0000
  N   N148      1.0  0.26929  0.80563  0.05066  1.0000
  C   C2200     1.0  0.27584  0.81826  0.05170  1.0000
  C   C2201     1.0  0.25629  0.81290  0.04239  1.0000
  C   C2202     1.0  0.26247  0.79775  0.06657  1.0000
  C   C2203     1.0  0.28191  0.79434  0.04294  1.0000
  C   C2204     1.0  0.29521  0.78653  0.04939  1.0000
  C   C2205     1.0  0.28160  0.79092  0.02889  1.0000
  C   C2206     1.0  0.30735  0.77591  0.04230  1.0000
  C   C2207     1.0  0.29379  0.78019  0.02195  1.0000
  C   C2208     1.0  0.30660  0.77267  0.02866  1.0000
  H   H2626     1.0  0.28236  0.82352  0.04013  1.0000
  H   H2627     1.0  0.26654  0.82773  0.05622  1.0000
  H   H2628     1.0  0.28400  0.81412  0.05970  1.0000
  H   H2629     1.0  0.26052  0.81923  0.03037  1.0000
  H   H2630     1.0  0.24715  0.82158  0.04829  1.0000
  H   H2631     1.0  0.25034  0.80412  0.04180  1.0000
  H   H2632     1.0  0.27117  0.79290  0.07401  1.0000
  H   H2633     1.0  0.25283  0.80595  0.07265  1.0000
  H   H2634     1.0  0.25767  0.78796  0.06635  1.0000
  H   H2635     1.0  0.29635  0.78867  0.05995  1.0000
  H   H2636     1.0  0.27210  0.79639  0.02296  1.0000
  H   H2637     1.0  0.31752  0.77026  0.04729  1.0000
  H   H2638     1.0  0.29328  0.77768  0.01130  1.0000
  H   H2639     1.0  0.31607  0.76440  0.02323  1.0000
  H   H2640     1.0  0.32926  0.88570  0.11388  1.0000
  H   H2641     1.0  0.43719  0.82391  0.00984  1.0000
  H   H2642     1.0  0.22278  0.78164  0.17297  1.0000
  C   C2209     1.0  0.31510  0.84759  0.13658  1.0000
  C   C2210     1.0  0.46522  0.74246  0.01972  1.0000
  H   H2643     1.0  0.32246  0.74704  0.10875  1.0000
  C   C2211     1.0  0.30295  0.86027  0.13301  1.0000
  C   C2212     1.0  0.33996  0.87712  0.11150  1.0000
  C   C2213     1.0  0.41015  0.77105  0.09467  1.0000
  H   H2644     1.0  0.32961  0.86688  0.09952  1.0000
  H   H2645     1.0  0.38593  0.78121  0.12743  1.0000
  H   H2646     1.0  0.29684  0.81030  0.11549  1.0000
  Fe  Fe285     1.0  0.30448  0.96573  0.13783  1.0000
  H   H2647     1.0  0.34080  0.89453  0.14707  1.0000
  H   H2648     1.0  0.29554  0.90197  0.02273  1.0000
  C   C2214     1.0  0.29574  0.87088  0.14297  1.0000
  H   H2649     1.0  0.26571  0.92236  0.01509  1.0000
  C   C2215     1.0  0.41765  0.77199  0.11724  1.0000
  C   C2216     1.0  0.44779  0.77939  0.01935  1.0000
  Fe  Fe286     1.0  0.45949  0.77344  0.08120  1.0000
  H   H2650     1.0  0.39418  0.79408  0.11038  1.0000
  H   H2651     1.0  0.47212  0.85575  0.09302  1.0000
  C   C2217     1.0  0.34002  0.86642  0.10328  1.0000
  H   H2652     1.0  0.30642  0.92112  0.02169  1.0000
  C   C2218     1.0  0.30542  0.78676  0.13642  1.0000
  H   H2653     1.0  0.32918  0.88864  0.13802  1.0000
  S   S586      1.0  0.31463  0.92201  0.13854  1.0000
  Fe  Fe287     1.0  0.32801  0.93550  0.14454  1.0000
  H   H2654     1.0  0.25501  0.77860  0.11752  1.0000
  H   H2655     1.0  0.34898  0.91326  0.12178  1.0000
  H   H2656     1.0  0.38169  0.78302  0.10899  1.0000
  H   H2657     1.0  0.28382  0.92827  0.01054  1.0000
  C   C2219     1.0  0.28563  0.92478  0.04022  1.0000
  H   H2658     1.0  0.42503  0.77057  0.01158  1.0000
  H   H2659     1.0  0.34269  0.95544  0.14755  1.0000
  C   C2220     1.0  0.42909  0.76668  0.03921  1.0000
  C   C2221     1.0  0.30413  0.93867  0.05020  1.0000
  H   H2660     1.0  0.43158  0.77201  0.04744  1.0000
  H   H2661     1.0  0.30704  0.81772  0.12475  1.0000
  H   H2662     1.0  0.33933  0.76448  0.99697  1.0000
  H   H2663     1.0  0.49099  0.82718  0.05828  1.0000
  N   N149      1.0  0.44535  0.82672  0.98489  1.0000
  C   C2222     1.0  0.48540  0.74132  0.14153  1.0000
  H   H2664     1.0  0.32586  0.79466  0.00562  1.0000
  S   S587      1.0  0.39184  0.76641  0.06261  1.0000
  C   C2223     1.0  0.35505  0.96104  0.16128  1.0000
  H   H2665     1.0  0.28897  0.89464  0.04304  1.0000
  H   H2666     1.0  0.26704  0.89487  0.12398  1.0000
  H   H2667     1.0  0.31770  0.78799  0.13410  1.0000
  H   H2668     1.0  0.37740  0.84571  0.10149  1.0000
  C   C2224     1.0  0.29605  0.80528  0.15388  1.0000
  Fe  Fe288     1.0  0.38573  0.78418  0.04168  1.0000
  H   H2669     1.0  0.28414  0.94313  0.06857  1.0000
  H   H2670     1.0  0.30398  0.78413  0.12585  1.0000
  C   C2225     1.0  0.47236  0.73793  0.04845  1.0000
  C   C2226     1.0  0.31374  0.85535  0.15994  1.0000
  H   H2671     1.0  0.48407  0.80816  0.99630  1.0000
  Fe  Fe289     1.0  0.25936  0.76136  0.17153  1.0000
  C   C2227     1.0  0.34905  0.75509  0.99962  1.0000
  N   N150      1.0  0.40485  0.76970  0.11168  1.0000
  C   C2228     1.0  0.39106  0.78250  0.11477  1.0000
  N   N151      1.0  0.27623  0.91757  0.03465  1.0000
  C   C2229     1.0  0.28501  0.90184  0.03238  1.0000
  H   H2672     1.0  0.25317  0.92724  0.04696  1.0000
  H   H2673     1.0  0.26809  0.93120  0.06064  1.0000
  H   H2674     1.0  0.31217  0.78371  0.16238  1.0000
  C   C2230     1.0  0.32122  0.79813  0.97698  1.0000
  H   H2675     1.0  0.41436  0.77157  0.12991  1.0000
  H   H2676     1.0  0.30372  0.77628  0.14578  1.0000
  C   C2231     1.0  0.28880  0.93838  0.05824  1.0000
  C   C2232     1.0  0.30573  0.79514  0.16399  1.0000
  H   H2677     1.0  0.29225  0.90008  0.14637  1.0000
  H   H2678     1.0  0.37182  0.87524  0.13682  1.0000
  C   C2233     1.0  0.31028  0.93239  0.03707  1.0000
  H   H2679     1.0  0.37011  0.91653  0.17399  1.0000
  H   H2680     1.0  0.32223  0.93264  0.03084  1.0000
  H   H2681     1.0  0.36740  0.89567  0.13565  1.0000
  H   H2682     1.0  0.30851  0.80309  0.98063  1.0000
  H   H2683     1.0  0.30873  0.91014  0.16978  1.0000
  S   S588      1.0  0.47127  0.80940  0.02841  1.0000
  H   H2684     1.0  0.37945  0.78142  0.99480  1.0000
  H   H2685     1.0  0.32046  0.83969  0.12878  1.0000
  H   H2686     1.0  0.47544  0.73648  0.05939  1.0000
  H   H2687     1.0  0.45364  0.75710  0.05243  1.0000
  H   H2688     1.0  0.48829  0.74974  0.07489  1.0000
  H   H2689     1.0  0.44415  0.76298  0.00207  1.0000
  C   C2234     1.0  0.36692  0.85448  0.10441  1.0000
  H   H2690     1.0  0.48923  0.83187  0.12794  1.0000
  S   S589      1.0  0.27622  0.92235  0.16894  1.0000
  C   C2235     1.0  0.36702  0.86514  0.11264  1.0000
  C   C2236     1.0  0.43596  0.76192  0.01363  1.0000
  C   C2237     1.0  0.34763  0.79783  0.97813  1.0000
  H   H2691     1.0  0.27955  0.82773  0.15099  1.0000
  Fe  Fe290     1.0  0.39302  0.74905  0.04931  1.0000
  C   C2238     1.0  0.40770  0.74332  0.13073  1.0000
  H   H2692     1.0  0.41761  0.81919  0.00277  1.0000
  H   H2693     1.0  0.35342  0.84686  0.09335  1.0000
  H   H2694     1.0  0.29152  0.84645  0.98426  1.0000
  C   C2239     1.0  0.45548  0.75204  0.03001  1.0000
  S   S590      1.0  0.44199  0.75163  0.97574  1.0000
  H   H2695     1.0  0.33526  0.73895  0.04375  1.0000
  H   H2696     1.0  0.45451  0.81013  0.00364  1.0000
  C   C2240     1.0  0.48620  0.79648  0.00330  1.0000
  C   C2241     1.0  0.32447  0.80656  0.99801  1.0000
  H   H2697     1.0  0.31372  0.74505  0.09460  1.0000
  H   H2698     1.0  0.35055  0.74498  0.98063  1.0000
  C   C2242     1.0  0.26945  0.88453  0.15328  1.0000
  H   H2699     1.0  0.48256  0.83642  0.04157  1.0000
  N   N152      1.0  0.33096  0.80598  0.98139  1.0000
  C   C2243     1.0  0.35710  0.79334  0.98924  1.0000
  C   C2244     1.0  0.48318  0.73395  0.15728  1.0000
  H   H2700     1.0  0.42408  0.84361  0.99093  1.0000
  C   C2245     1.0  0.43545  0.84265  0.98233  1.0000
  C   C2246     1.0  0.41521  0.80259  0.99205  1.0000
  H   H2701     1.0  0.40438  0.80073  0.00023  1.0000
  C   C2247     1.0  0.32519  0.74429  0.09710  1.0000
  C   C2248     1.0  0.48247  0.84646  0.09205  1.0000
  H   H2702     1.0  0.43314  0.75020  0.01714  1.0000
  H   H2703     1.0  0.20289  0.78840  0.17068  1.0000
  C   C2249     1.0  0.49190  0.82690  0.04606  1.0000
  C   C2250     1.0  0.28900  0.82386  0.17073  1.0000
  C   C2251     1.0  0.36459  0.95519  0.17206  1.0000
  C   C2252     1.0  0.42137  0.79441  0.98026  1.0000
  H   H2704     1.0  0.35684  0.73671  0.09204  1.0000
  H   H2705     1.0  0.28228  0.83481  0.17364  1.0000
  H   H2706     1.0  0.41552  0.78606  0.97932  1.0000
  H   H2707     1.0  0.48918  0.81568  0.04663  1.0000
  C   C2253     1.0  0.47633  0.73991  0.13232  1.0000
  H   H2708     1.0  0.37370  0.73447  0.11952  1.0000
  C   C2254     1.0  0.33422  0.73473  0.06828  1.0000
  C   C2255     1.0  0.36797  0.73184  0.99382  1.0000
  H   H2709     1.0  0.34758  0.73235  0.11219  1.0000
  H   H2710     1.0  0.33616  0.82864  0.97534  1.0000
  C   C2256     1.0  0.29342  0.84055  0.34242  1.0000
  H   H2711     1.0  0.18384  0.90237  0.35474  1.0000
  H   H2712     1.0  0.12151  0.73930  0.23632  1.0000
  Fe  Fe291     1.0  0.35107  0.87660  0.32132  1.0000
  S   S591      1.0  0.37133  0.86874  0.30311  1.0000
  S   S592      1.0  0.34206  0.90228  0.31864  1.0000
  Fe  Fe292     1.0  0.35780  0.85209  0.30266  1.0000
  S   S593      1.0  0.35693  0.85035  0.27892  1.0000
  Fe  Fe293     1.0  0.38027  0.85067  0.32256  1.0000
  S   S594      1.0  0.40639  0.84610  0.32022  1.0000
  S   S595      1.0  0.33671  0.86136  0.31957  1.0000
  H   H2713     1.0  0.40894  0.95193  0.27562  1.0000
  C   C2257     1.0  0.07107  0.73609  0.28841  1.0000
  H   H2714     1.0  0.35050  0.84172  0.25414  1.0000
  C   C2258     1.0  0.32690  0.83523  0.37454  1.0000
  C   C2259     1.0  0.41059  0.94113  0.25704  1.0000
  H   H2715     1.0  0.31351  0.85645  0.24867  1.0000
  H   H2716     1.0  0.23987  0.85777  0.32895  1.0000
  H   H2717     1.0  0.35056  0.91320  0.22032  1.0000
  H   H2718     1.0  0.00944  0.86595  0.37421  1.0000
  H   H2719     1.0  0.15229  0.77790  0.21674  1.0000
  H   H2720     1.0  0.99423  0.86642  0.29506  1.0000
  H   H2721     1.0  0.30411  0.91177  0.36498  1.0000
  H   H2722     1.0  0.39397  0.97723  0.23707  1.0000
  H   H2723     1.0  0.47313  0.78692  0.32912  1.0000
  C   C2260     1.0  0.29116  0.78019  0.28714  1.0000
  H   H2724     1.0  0.12612  0.85923  0.36821  1.0000
  H   H2725     1.0  0.48300  0.81030  0.35031  1.0000
  H   H2726     1.0  0.39899  0.94705  0.25541  1.0000
  C   C2261     1.0  0.23561  0.84386  0.35839  1.0000
  H   H2727     1.0  0.33309  0.87259  0.25682  1.0000
  Fe  Fe294     1.0  0.08545  0.78626  0.31713  1.0000
  S   S596      1.0  0.06696  0.80718  0.31061  1.0000
  C   C2262     1.0  0.33430  0.89828  0.23183  1.0000
  S   S597      1.0  0.10850  0.77921  0.30117  1.0000
  H   H2728     1.0  0.42488  0.92081  0.33326  1.0000
  C   C2263     1.0  0.03469  0.88708  0.37443  1.0000
  H   H2729     1.0  0.31867  0.93826  0.22082  1.0000
  H   H2730     1.0  0.44216  0.81002  0.36737  1.0000
  C   C2264     1.0  0.28595  0.90495  0.17934  1.0000
  Fe  Fe295     1.0  0.06620  0.94101  0.36932  1.0000
  S   S598      1.0  0.48094  0.95179  0.27884  1.0000
  H   H2731     1.0  0.44875  0.84708  0.34225  1.0000
  H   H2732     1.0  0.12127  0.96067  0.36182  1.0000
  H   H2733     1.0  0.21256  0.75297  0.21043  1.0000
  S   S599      1.0  0.02280  0.86479  0.34192  1.0000
  H   H2734     1.0  0.29009  0.82979  0.32605  1.0000
  Fe  Fe296     1.0  0.37106  0.95880  0.20466  1.0000
  S   S600      1.0  0.34983  0.96667  0.22219  1.0000
  Fe  Fe297     1.0  0.18494  0.85568  0.36514  1.0000
  Fe  Fe298     1.0  0.39019  0.94191  0.22917  1.0000
  S   S601      1.0  0.37056  0.94840  0.24876  1.0000
  S   S602      1.0  0.41359  0.92725  0.23305  1.0000
  Fe  Fe299     1.0  0.35575  0.94259  0.23644  1.0000
  S   S603      1.0  0.33848  0.92748  0.24817  1.0000
  Fe  Fe300     1.0  0.36675  0.97172  0.23255  1.0000
  S   S604      1.0  0.48223  0.92081  0.26635  1.0000
  S   S605      1.0  0.37569  0.93411  0.21799  1.0000
  S   S606      1.0  0.38764  0.96577  0.21384  1.0000
  C   C2265     1.0  0.16216  0.77261  0.20871  1.0000
  H   H2735     1.0  0.23904  0.83710  0.36949  1.0000
  C   C2266     1.0  0.08205  0.73982  0.29406  1.0000
  Fe  Fe301     1.0  0.29092  0.81141  0.22974  1.0000
  S   S607      1.0  0.27851  0.83482  0.21837  1.0000
  S   S608      1.0  0.29538  0.78906  0.22191  1.0000
  Fe  Fe302     1.0  0.29759  0.82421  0.25422  1.0000
  S   S609      1.0  0.28588  0.84864  0.24467  1.0000
  S   S610      1.0  0.30499  0.81788  0.27706  1.0000
  Fe  Fe303     1.0  0.26747  0.83793  0.24281  1.0000
  S   S611      1.0  0.24193  0.84640  0.25249  1.0000
  Fe  Fe304     1.0  0.29813  0.84313  0.22139  1.0000
  S   S612      1.0  0.31242  0.85827  0.20257  1.0000
  S   S613      1.0  0.27833  0.81389  0.25381  1.0000
  S   S614      1.0  0.31145  0.81947  0.23112  1.0000
  H   H2736     1.0  0.29193  0.87834  0.25692  1.0000
  C   C2267     1.0  0.27220  0.79945  0.29943  1.0000
  S   S615      1.0  0.17923  0.84434  0.32947  1.0000
  Fe  Fe305     1.0  0.09388  0.76115  0.34446  1.0000
  Fe  Fe306     1.0  0.20129  0.84050  0.33771  1.0000
  S   S616      1.0  0.22623  0.83141  0.32603  1.0000
  S   S617      1.0  0.25125  0.78156  0.18337  1.0000
  H   H2737     1.0  0.04259  0.86007  0.30853  1.0000
  C   C2268     1.0  0.26733  0.89821  0.35376  1.0000
  S   S618      1.0  0.05653  0.93007  0.35599  1.0000
  C   C2269     1.0  0.17682  0.77603  0.20606  1.0000
  H   H2738     1.0  0.27649  0.77046  0.31629  1.0000
  H   H2739     1.0  0.26195  0.90455  0.33120  1.0000
  Fe  Fe307     1.0  0.08172  0.91910  0.34737  1.0000
  S   S619      1.0  0.09349  0.91640  0.32312  1.0000
  H   H2740     1.0  0.20308  0.78052  0.21318  1.0000
  C   C2270     1.0  0.21141  0.77816  0.17554  1.0000
  H   H2741     1.0  0.44591  0.94500  0.22630  1.0000
  H   H2742     1.0  0.11965  0.91903  0.29739  1.0000
  H   H2743     1.0  0.29275  0.88679  0.23692  1.0000
  C   C2271     1.0  0.12403  0.91208  0.30755  1.0000
  C   C2272     1.0  0.11362  0.90924  0.32187  1.0000
  C   C2273     1.0  0.11936  0.90037  0.33501  1.0000
  C   C2274     1.0  0.13541  0.89394  0.33373  1.0000
  H   H2744     1.0  0.39593  0.87929  0.32737  1.0000
  H   H2745     1.0  0.11143  0.89829  0.34611  1.0000
  H   H2746     1.0  0.13971  0.88687  0.34383  1.0000
  C   C2275     1.0  0.23756  0.84303  0.27289  1.0000
  C   C2276     1.0  0.22196  0.84482  0.28112  1.0000
  C   C2277     1.0  0.21835  0.84159  0.29743  1.0000
  C   C2278     1.0  0.23034  0.83656  0.30559  1.0000
  C   C2279     1.0  0.24592  0.83517  0.29735  1.0000
  C   C2280     1.0  0.24954  0.83833  0.28105  1.0000
  H   H2747     1.0  0.21265  0.84856  0.27487  1.0000
  H   H2748     1.0  0.20630  0.84278  0.30364  1.0000
  H   H2749     1.0  0.25522  0.83166  0.30357  1.0000
  H   H2750     1.0  0.26160  0.83717  0.27480  1.0000
  H   H2751     1.0  0.28193  0.92944  0.20059  1.0000
  S   S620      1.0  0.47502  0.89909  0.35030  1.0000
  C   C2281     1.0  0.28555  0.87972  0.19705  1.0000
  C   C2282     1.0  0.30190  0.87619  0.19406  1.0000
  C   C2283     1.0  0.45554  0.94423  0.19698  1.0000
  H   H2752     1.0  0.27255  0.97739  0.17744  1.0000
  H   H2753     1.0  0.42595  0.95199  0.20996  1.0000
  H   H2754     1.0  0.27908  0.87132  0.20492  1.0000
  H   H2755     1.0  0.26698  0.95116  0.18415  1.0000
  H   H2756     1.0  0.14875  0.75993  0.20303  1.0000
  H   H2757     1.0  0.34350  0.91918  0.19491  1.0000
  C   C2284     1.0  0.44269  0.80498  0.33171  1.0000
  S   S621      1.0  0.11755  0.75197  0.33083  1.0000
  H   H2758     1.0  0.27105  0.76180  0.30385  1.0000
  C   C2285     1.0  0.47500  0.79030  0.33903  1.0000
  C   C2286     1.0  0.13967  0.93994  0.36213  1.0000
  H   H2759     1.0  0.32735  0.88053  0.34494  1.0000
  C   C2287     1.0  0.48706  0.91921  0.32477  1.0000
  C   C2288     1.0  0.31327  0.95048  0.22179  1.0000
  C   C2289     1.0  0.44097  0.92665  0.26090  1.0000
  C   C2290     1.0  0.43506  0.92320  0.25007  1.0000
  C   C2291     1.0  0.42002  0.93075  0.24779  1.0000
  H   H2760     1.0  0.26516  0.86175  0.36544  1.0000
  C   C2292     1.0  0.02693  0.87364  0.35447  1.0000
  H   H2761     1.0  0.44240  0.91507  0.24305  1.0000
  C   C2293     1.0  0.01877  0.87219  0.36993  1.0000
  H   H2762     1.0  0.47247  0.96082  0.17588  1.0000
  C   C2294     1.0  0.28401  0.94102  0.19830  1.0000
  S   S622      1.0  0.47152  0.85974  0.34654  1.0000
  H   H2763     1.0  0.30196  0.93347  0.21087  1.0000
  H   H2764     1.0  0.14898  0.91691  0.33607  1.0000
  H   H2765     1.0  0.45397  0.94568  0.18506  1.0000
  H   H2766     1.0  0.44537  0.89192  0.35026  1.0000
  S   S623      1.0  0.08213  0.89770  0.36640  1.0000
  C   C2295     1.0  0.43855  0.80848  0.35779  1.0000
  C   C2296     1.0  0.41670  0.80777  0.34819  1.0000
  C   C2297     1.0  0.32102  0.87615  0.35688  1.0000
  H   H2767     1.0  0.33168  0.86050  0.23625  1.0000
  H   H2768     1.0  0.04469  0.78748  0.35580  1.0000
  C   C2298     1.0  0.15364  0.90003  0.36785  1.0000
  H   H2769     1.0  0.32285  0.88447  0.18183  1.0000
  H   H2770     1.0  0.04192  0.83539  0.36403  1.0000
  H   H2771     1.0  0.31687  0.86588  0.35683  1.0000
  H   H2772     1.0  0.30194  0.95079  0.23042  1.0000
  C   C2299     1.0  0.18995  0.76933  0.19552  1.0000
  H   H2773     1.0  0.33008  0.87198  0.36395  1.0000
  C   C2300     1.0  0.40426  0.88659  0.32130  1.0000
  C   C2301     1.0  0.14256  0.79595  0.33148  1.0000
  C   C2302     1.0  0.15679  0.80027  0.32896  1.0000
  C   C2303     1.0  0.15882  0.80880  0.33849  1.0000
  C   C2304     1.0  0.14669  0.81286  0.35080  1.0000
  C   C2305     1.0  0.13247  0.80844  0.35343  1.0000
  C   C2306     1.0  0.13031  0.80025  0.34365  1.0000
  H   H2774     1.0  0.16632  0.79704  0.31955  1.0000
  H   H2775     1.0  0.16983  0.81210  0.33637  1.0000
  C   C2307     1.0  0.04273  0.88867  0.35891  1.0000
  H   H2776     1.0  0.11918  0.79730  0.34556  1.0000
  C   C2308     1.0  0.04881  0.80475  0.32264  1.0000
  C   C2309     1.0  0.04050  0.81559  0.33163  1.0000
  C   C2310     1.0  0.02566  0.81440  0.34080  1.0000
  C   C2311     1.0  0.01892  0.80245  0.34094  1.0000
  C   C2312     1.0  0.02746  0.79120  0.33236  1.0000
  C   C2313     1.0  0.04246  0.79234  0.32320  1.0000
  H   H2777     1.0  0.04562  0.82484  0.33170  1.0000
  H   H2778     1.0  0.01954  0.82273  0.34788  1.0000
  H   H2779     1.0  0.02235  0.78186  0.33249  1.0000
  H   H2780     1.0  0.04893  0.78388  0.31627  1.0000
  C   C2314     1.0  0.26365  0.78359  0.19396  1.0000
  C   C2315     1.0  0.25975  0.79669  0.20040  1.0000
  C   C2316     1.0  0.26936  0.79848  0.20905  1.0000
  C   C2317     1.0  0.28290  0.78714  0.21134  1.0000
  C   C2318     1.0  0.28675  0.77403  0.20493  1.0000
  C   C2319     1.0  0.27721  0.77228  0.19620  1.0000
  H   H2781     1.0  0.24927  0.80547  0.19872  1.0000
  H   H2782     1.0  0.26626  0.80859  0.21399  1.0000
  C   C2320     1.0  0.00007  0.85434  0.29583  1.0000
  C   C2321     1.0  0.33764  0.91169  0.20479  1.0000
  H   H2783     1.0  0.33794  0.89615  0.24255  1.0000
  C   C2322     1.0  0.41496  0.90371  0.29806  1.0000
  H   H2784     1.0  0.33590  0.96046  0.19821  1.0000
  H   H2785     1.0  0.28098  0.79831  0.30621  1.0000
  C   C2323     1.0  0.09364  0.84122  0.36120  1.0000
  H   H2786     1.0  0.30602  0.83625  0.34010  1.0000
  C   C2324     1.0  0.29859  0.95855  0.20104  1.0000
  S   S624      1.0  0.99593  0.83615  0.37111  1.0000
  C   C2325     1.0  0.17277  0.75568  0.19071  1.0000
  H   H2787     1.0  0.44903  0.73353  0.18742  1.0000
  H   H2788     1.0  0.42195  0.80505  0.32478  1.0000
  H   H2789     1.0  0.12800  0.93667  0.32595  1.0000
  C   C2326     1.0  0.34292  0.84063  0.27872  1.0000
  C   C2327     1.0  0.34214  0.83816  0.26463  1.0000
  C   C2328     1.0  0.33064  0.83103  0.26405  1.0000
  C   C2329     1.0  0.31984  0.82637  0.27757  1.0000
  C   C2330     1.0  0.32083  0.82852  0.29172  1.0000
  C   C2331     1.0  0.33230  0.83571  0.29230  1.0000
  H   H2790     1.0  0.33018  0.82903  0.25317  1.0000
  H   H2791     1.0  0.31265  0.82473  0.30225  1.0000
  H   H2792     1.0  0.33291  0.83742  0.30324  1.0000
  C   C2332     1.0  0.34016  0.90979  0.29932  1.0000
  C   C2333     1.0  0.34078  0.92526  0.29211  1.0000
  C   C2334     1.0  0.34009  0.93088  0.27639  1.0000
  C   C2335     1.0  0.33836  0.92112  0.26803  1.0000
  C   C2336     1.0  0.33736  0.90580  0.27536  1.0000
  C   C2337     1.0  0.33848  0.90010  0.29088  1.0000
  H   H2793     1.0  0.34212  0.93281  0.29857  1.0000
  H   H2794     1.0  0.34071  0.94280  0.27083  1.0000
  H   H2795     1.0  0.33620  0.89814  0.26897  1.0000
  H   H2796     1.0  0.33803  0.88816  0.29626  1.0000
  C   C2338     1.0  0.42982  0.84729  0.33253  1.0000
  H   H2797     1.0  0.43698  0.84732  0.32096  1.0000
  C   C2339     1.0  0.43165  0.93720  0.26998  1.0000
  C   C2340     1.0  0.32265  0.89150  0.23052  1.0000
  C   C2341     1.0  0.41628  0.94405  0.26837  1.0000
  C   C2342     1.0  0.29788  0.88617  0.24676  1.0000
  H   H2798     1.0  0.16193  0.89020  0.37357  1.0000
  H   H2799     1.0  0.21810  0.78675  0.19750  1.0000
  H   H2800     1.0  0.25516  0.89984  0.35982  1.0000
  C   C2343     1.0  0.32028  0.87756  0.25820  1.0000
  C   C2344     1.0  0.31883  0.86521  0.23914  1.0000
  C   C2345     1.0  0.31866  0.89556  0.21583  1.0000
  C   C2346     1.0  0.16013  0.76248  0.20103  1.0000
  H   H2801     1.0  0.04401  0.86988  0.27900  1.0000
  S   S625      1.0  0.36836  0.83312  0.32066  1.0000
  H   H2802     1.0  0.43961  0.92218  0.31560  1.0000
  C   C2347     1.0  0.41396  0.84709  0.33543  1.0000
  C   C2348     1.0  0.34168  0.90817  0.21908  1.0000
  Fe  Fe308     1.0  0.10491  0.75488  0.31211  1.0000
  N   N153      1.0  0.38665  0.89042  0.25493  1.0000
  C   C2349     1.0  0.37998  0.90551  0.25973  1.0000
  C   C2350     1.0  0.39392  0.89339  0.23814  1.0000
  C   C2351     1.0  0.37335  0.88306  0.25735  1.0000
  C   C2352     1.0  0.39872  0.88080  0.26367  1.0000
  C   C2353     1.0  0.41123  0.88694  0.26402  1.0000
  C   C2354     1.0  0.39874  0.86511  0.27166  1.0000
  C   C2355     1.0  0.42243  0.87830  0.27267  1.0000
  C   C2356     1.0  0.40997  0.85660  0.28032  1.0000
  C   C2357     1.0  0.42163  0.86324  0.28101  1.0000
  H   H2803     1.0  0.38871  0.91276  0.25686  1.0000
  H   H2804     1.0  0.37048  0.91275  0.25375  1.0000
  H   H2805     1.0  0.37495  0.90371  0.27246  1.0000
  H   H2806     1.0  0.40320  0.90004  0.23525  1.0000
  H   H2807     1.0  0.38519  0.90025  0.23105  1.0000
  H   H2808     1.0  0.39944  0.88229  0.23424  1.0000
  H   H2809     1.0  0.36754  0.88027  0.26986  1.0000
  H   H2810     1.0  0.36418  0.89087  0.25117  1.0000
  H   H2811     1.0  0.37709  0.87218  0.25295  1.0000
  H   H2812     1.0  0.41245  0.89851  0.25761  1.0000
  H   H2813     1.0  0.38993  0.85926  0.27186  1.0000
  H   H2814     1.0  0.43165  0.88337  0.27303  1.0000
  H   H2815     1.0  0.40933  0.84489  0.28694  1.0000
  H   H2816     1.0  0.42997  0.85668  0.28816  1.0000
  H   H2817     1.0  0.04494  0.88337  0.33693  1.0000
  H   H2818     1.0  0.29480  0.78832  0.27595  1.0000
  C   C2358     1.0  0.29869  0.81372  0.18030  1.0000
  H   H2819     1.0  0.26494  0.89672  0.19161  1.0000
  H   H2820     1.0  0.46999  0.81425  0.31543  1.0000
  C   C2359     1.0  0.20614  0.78442  0.20033  1.0000
  Fe  Fe309     1.0  0.17376  0.86791  0.33469  1.0000
  S   S626      1.0  0.25441  0.73758  0.18213  1.0000
  C   C2360     1.0  0.14013  0.90617  0.30638  1.0000
  H   H2821     1.0  0.22854  0.76009  0.19643  1.0000
  H   H2822     1.0  0.07006  0.84386  0.35915  1.0000
  Fe  Fe310     1.0  0.16839  0.83682  0.35470  1.0000
  H   H2823     1.0  0.41460  0.88118  0.34056  1.0000
  H   H2824     1.0  0.23994  0.79711  0.25092  1.0000
  N   N154      1.0  0.43812  0.89867  0.32839  1.0000
  C   C2361     1.0  0.28442  0.83690  0.33454  1.0000
  S   S627      1.0  0.08102  0.76223  0.32662  1.0000
  H   H2825     1.0  0.28027  0.76210  0.19137  1.0000
  H   H2826     1.0  0.29720  0.76521  0.20669  1.0000
  H   H2827     1.0  0.31838  0.90708  0.34809  1.0000
  S   S628      1.0  0.99589  0.84510  0.33386  1.0000
  C   C2362     1.0  0.44907  0.80669  0.34338  1.0000
  H   H2828     1.0  0.17122  0.74785  0.18466  1.0000
  C   C2363     1.0  0.30223  0.90157  0.17695  1.0000
  H   H2829     1.0  0.43419  0.91205  0.29865  1.0000
  N   N155      1.0  0.31119  0.96111  0.20662  1.0000
  H   H2830     1.0  0.43812  0.87766  0.34641  1.0000
  Fe  Fe311     1.0  0.11871  0.77707  0.32150  1.0000
  C   C2364     1.0  0.41146  0.84690  0.36245  1.0000
  N   N156      1.0  0.12582  0.85579  0.31305  1.0000
  C   C2365     1.0  0.13389  0.84167  0.32270  1.0000
  C   C2366     1.0  0.13144  0.85476  0.29653  1.0000
  C   C2367     1.0  0.13060  0.86925  0.31476  1.0000
  C   C2368     1.0  0.10869  0.85694  0.31776  1.0000
  C   C2369     1.0  0.09793  0.86993  0.32306  1.0000
  C   C2370     1.0  0.10228  0.84484  0.31698  1.0000
  C   C2371     1.0  0.08183  0.87069  0.32719  1.0000
  C   C2372     1.0  0.08613  0.84575  0.32111  1.0000
  C   C2373     1.0  0.07592  0.85868  0.32615  1.0000
  H   H2831     1.0  0.13230  0.83079  0.32097  1.0000
  H   H2832     1.0  0.14677  0.84076  0.31996  1.0000
  H   H2833     1.0  0.12954  0.84175  0.33526  1.0000
  H   H2834     1.0  0.12969  0.84408  0.29448  1.0000
  S   S629      1.0  0.14076  0.78501  0.31929  1.0000
  H   H2835     1.0  0.12521  0.86496  0.28896  1.0000
  H   H2836     1.0  0.12708  0.87042  0.32704  1.0000
  H   H2837     1.0  0.14354  0.86810  0.31127  1.0000
  H   H2838     1.0  0.12544  0.88032  0.30737  1.0000
  H   H2839     1.0  0.10156  0.87979  0.32404  1.0000
  H   H2840     1.0  0.10972  0.83460  0.31309  1.0000
  H   H2841     1.0  0.07391  0.88076  0.33118  1.0000
  H   H2842     1.0  0.08151  0.83639  0.32031  1.0000
  H   H2843     1.0  0.06340  0.85938  0.32935  1.0000
  N   N157      1.0  0.24322  0.85728  0.35155  1.0000
  H   H2844     1.0  0.11181  0.87683  0.37066  1.0000
  C   C2374     1.0  0.17440  0.91136  0.34975  1.0000
  C   C2375     1.0  0.06624  0.97998  0.36775  1.0000
  C   C2376     1.0  0.26043  0.85161  0.34868  1.0000
  C   C2377     1.0  0.29008  0.97066  0.19106  1.0000
  Fe  Fe312     1.0  0.00066  0.85571  0.35063  1.0000
  H   H2845     1.0  0.29330  0.85211  0.35967  1.0000
  C   C2378     1.0  0.29515  0.89213  0.35447  1.0000
  C   C2379     1.0  0.27757  0.89409  0.18957  1.0000
  H   H2846     1.0  0.29616  0.98062  0.21593  1.0000
  S   S630      1.0  0.19102  0.83087  0.36281  1.0000
  H   H2847     1.0  0.17755  0.78396  0.21240  1.0000
  H   H2848     1.0  0.12574  0.76966  0.35200  1.0000
  C   C2380     1.0  0.18745  0.75896  0.18805  1.0000
  C   C2381     1.0  0.45044  0.95532  0.21892  1.0000
  H   H2849     1.0  0.48781  0.78934  0.33713  1.0000
  C   C2382     1.0  0.42671  0.80571  0.33406  1.0000
  H   H2850     1.0  0.22593  0.87174  0.33854  1.0000
  C   C2383     1.0  0.14791  0.92710  0.35516  1.0000
  H   H2851     1.0  0.41475  0.81090  0.37095  1.0000
  H   H2852     1.0  0.32301  0.90836  0.19200  1.0000
  H   H2853     1.0  0.44527  0.91672  0.33371  1.0000
  N   N158      1.0  0.44820  0.95867  0.20289  1.0000
  N   N159      1.0  0.27418  0.78514  0.29390  1.0000
  C   C2384     1.0  0.26948  0.77286  0.30740  1.0000
  H   H2854     1.0  0.11697  0.75347  0.36217  1.0000
  C   C2385     1.0  0.26437  0.78776  0.28261  1.0000
  C   C2386     1.0  0.24963  0.79845  0.28354  1.0000
  C   C2387     1.0  0.26906  0.77947  0.27053  1.0000
  C   C2388     1.0  0.24098  0.80177  0.27219  1.0000
  C   C2389     1.0  0.26030  0.78286  0.25925  1.0000
  C   C2390     1.0  0.24641  0.79415  0.25996  1.0000
  C   C2391     1.0  0.42264  0.80897  0.36007  1.0000
  H   H2855     1.0  0.17891  0.92214  0.34424  1.0000
  H   H2856     1.0  0.29439  0.76821  0.28516  1.0000
  H   H2857     1.0  0.24476  0.80479  0.29267  1.0000
  H   H2858     1.0  0.27978  0.77076  0.26916  1.0000
  C   C2392     1.0  0.04236  0.81079  0.37110  1.0000
  H   H2859     1.0  0.26460  0.77708  0.24960  1.0000
  C   C2393     1.0  0.03886  0.88192  0.34897  1.0000
  Fe  Fe313     1.0  0.46054  0.84826  0.37034  1.0000
  C   C2394     1.0  0.43688  0.91530  0.32770  1.0000
  S   S631      1.0  0.14867  0.82387  0.36278  1.0000
  H   H2860     1.0  0.23928  0.86214  0.37414  1.0000
  H   H2861     1.0  0.14817  0.90859  0.29531  1.0000
  C   C2395     1.0  0.42594  0.90494  0.30536  1.0000
  H   H2862     1.0  0.02895  0.86765  0.27118  1.0000
  C   C2396     1.0  0.12768  0.95122  0.35610  1.0000
  H   H2863     1.0  0.40436  0.84650  0.37409  1.0000
  H   H2864     1.0  0.05300  0.76800  0.36413  1.0000
  S   S632      1.0  0.48189  0.82928  0.37354  1.0000
  H   H2865     1.0  0.39572  0.89342  0.30034  1.0000
  H   H2866     1.0  0.45274  0.92108  0.26222  1.0000
  H   H2867     1.0  0.07891  0.75010  0.29875  1.0000
  H   H2868     1.0  0.45528  0.87991  0.31974  1.0000
  C   C2397     1.0  0.23848  0.86570  0.33667  1.0000
  H   H2869     1.0  0.44434  0.96506  0.22484  1.0000
  C   C2398     1.0  0.40416  0.89451  0.30601  1.0000
  C   C2399     1.0  0.28672  0.89959  0.32976  1.0000
  H   H2870     1.0  0.17271  0.90689  0.34043  1.0000
  C   C2400     1.0  0.13144  0.93772  0.33593  1.0000
  H   H2871     1.0  0.01909  0.78538  0.37393  1.0000
  H   H2872     1.0  0.44994  0.80323  0.32059  1.0000
  H   H2873     1.0  0.15135  0.89618  0.35847  1.0000
  C   C2401     1.0  0.32599  0.95824  0.19498  1.0000
  C   C2402     1.0  0.32607  0.90553  0.20319  1.0000
  H   H2874     1.0  0.42481  0.89483  0.35205  1.0000
  H   H2875     1.0  0.05948  0.74349  0.28889  1.0000
  H   H2876     1.0  0.31459  0.86892  0.26764  1.0000
  S   S633      1.0  0.36101  0.86011  0.34110  1.0000
  H   H2877     1.0  0.27366  0.80954  0.28946  1.0000
  S   S634      1.0  0.19661  0.86478  0.34071  1.0000
  H   H2878     1.0  0.32925  0.94610  0.19343  1.0000
  H   H2879     1.0  0.24543  0.87463  0.33019  1.0000
  C   C2403     1.0  0.27555  0.95327  0.18899  1.0000
  H   H2880     1.0  0.31427  0.86599  0.22892  1.0000
  H   H2881     1.0  0.04378  0.85110  0.27693  1.0000
  C   C2404     1.0  0.29855  0.89541  0.33799  1.0000
  H   H2882     1.0  0.14421  0.85449  0.29244  1.0000
  S   S635      1.0  0.43946  0.94236  0.28274  1.0000
  H   H2883     1.0  0.30998  0.89079  0.21393  1.0000
  H   H2884     1.0  0.26064  0.80246  0.30731  1.0000
  H   H2885     1.0  0.24226  0.87846  0.35792  1.0000
  H   H2886     1.0  0.47899  0.92834  0.33011  1.0000
  H   H2887     1.0  0.29459  0.89797  0.24926  1.0000
  Fe  Fe314     1.0  0.48682  0.96349  0.25372  1.0000
  C   C2405     1.0  0.40469  0.84722  0.35035  1.0000
  S   S636      1.0  0.16141  0.86089  0.35933  1.0000
  H   H2888     1.0  0.09883  0.83443  0.35241  1.0000
  N   N160      1.0  0.20569  0.77253  0.19246  1.0000
  C   C2406     1.0  0.14582  0.89693  0.31941  1.0000
  H   H2889     1.0  0.41483  0.90995  0.28616  1.0000
  C   C2407     1.0  0.27867  0.96802  0.18527  1.0000
  S   S637      1.0  0.09130  0.93190  0.35865  1.0000
  H   H2890     1.0  0.25692  0.77629  0.31308  1.0000
  H   H2891     1.0  0.08651  0.96713  0.35455  1.0000
  C   C2408     1.0  0.12357  0.95011  0.34304  1.0000
  H   H2892     1.0  0.47150  0.78153  0.34972  1.0000
  H   H2893     1.0  0.11409  0.95871  0.33857  1.0000
  C   C2409     1.0  0.31021  0.88711  0.18399  1.0000
  H   H2894     1.0  0.27527  0.89220  0.37460  1.0000
  S   S638      1.0  0.09588  0.78599  0.33652  1.0000
  C   C2410     1.0  0.99708  0.82831  0.29847  1.0000
  S   S639      1.0  0.46868  0.95608  0.24723  1.0000
  C   C2411     1.0  0.42630  0.89715  0.32099  1.0000
  C   C2412     1.0  0.23707  0.86803  0.36235  1.0000
  S   S640      1.0  0.33177  0.83085  0.35619  1.0000
  C   C2413     1.0  0.42743  0.84666  0.35963  1.0000
  C   C2414     1.0  0.14344  0.92641  0.34184  1.0000
  H   H2895     1.0  0.23875  0.83571  0.35052  1.0000
  C   C2415     1.0  0.26995  0.85501  0.35662  1.0000
  H   H2896     1.0  0.23024  0.81068  0.27263  1.0000
  C   C2416     1.0  0.43646  0.89040  0.34497  1.0000
  S   S641      1.0  0.11129  0.73484  0.30008  1.0000
  C   C2417     1.0  0.27113  0.90097  0.33763  1.0000
  C   C2418     1.0  0.30700  0.79941  0.17695  1.0000
  C   C2419     1.0  0.07747  0.84650  0.36497  1.0000
  H   H2897     1.0  0.32137  0.95359  0.22689  1.0000
  N   N161      1.0  0.46599  0.80616  0.34050  1.0000
  H   H2898     1.0  0.05190  0.89511  0.35458  1.0000
  H   H2899     1.0  0.39532  0.97754  0.26643  1.0000
  H   H2900     1.0  0.46321  0.89272  0.32550  1.0000
  H   H2901     1.0  0.48341  0.81783  0.32396  1.0000
  Fe  Fe315     1.0  0.47892  0.87333  0.35878  1.0000
  H   H2902     1.0  0.21828  0.74894  0.19140  1.0000
  S   S642      1.0  0.08436  0.75270  0.36981  1.0000
  H   H2903     1.0  0.44017  0.97425  0.28053  1.0000
  H   H2904     1.0  0.46308  0.95279  0.21893  1.0000
  H   H2905     1.0  0.26165  0.83893  0.33139  1.0000
  H   H2906     1.0  0.40425  0.80877  0.34981  1.0000
  H   H2907     1.0  0.45674  0.89887  0.30776  1.0000
  H   H2908     1.0  0.46365  0.82180  0.35500  1.0000
  C   C2420     1.0  0.46703  0.97144  0.17990  1.0000
  C   C2421     1.0  0.41514  0.88781  0.32876  1.0000
  C   C2422     1.0  0.29546  0.94352  0.20417  1.0000
  Fe  Fe316     1.0  0.46464  0.94225  0.27160  1.0000
  H   H2909     1.0  0.31039  0.89514  0.33127  1.0000
  H   H2910     1.0  0.31732  0.88840  0.26252  1.0000
  N   N162      1.0  0.02623  0.85916  0.29582  1.0000
  C   C2423     1.0  0.03649  0.85181  0.30712  1.0000
  C   C2424     1.0  0.03620  0.86210  0.28003  1.0000
  C   C2425     1.0  0.01714  0.87436  0.29952  1.0000
  C   C2426     1.0  0.01616  0.84877  0.29641  1.0000
  C   C2427     1.0  0.02241  0.83263  0.29717  1.0000
  H   H2911     1.0  0.31403  0.79135  0.18483  1.0000
  C   C2428     1.0  0.01292  0.82257  0.29842  1.0000
  C   C2429     1.0  0.08124  0.97795  0.35824  1.0000
  C   C2430     1.0  0.03818  0.82600  0.37332  1.0000
  H   H2912     1.0  0.04589  0.84190  0.30372  1.0000
  C   C2431     1.0  0.26817  0.84225  0.33765  1.0000
  H   H2913     1.0  0.02947  0.84752  0.31879  1.0000
  H   H2914     1.0  0.04965  0.80906  0.36000  1.0000
  C   C2432     1.0  0.05052  0.78024  0.36532  1.0000
  C   C2433     1.0  0.36995  0.93914  0.17674  1.0000
  H   H2915     1.0  0.00875  0.87268  0.31098  1.0000
  H   H2916     1.0  0.02482  0.88149  0.30033  1.0000
  H   H2917     1.0  0.01061  0.88163  0.29048  1.0000
  H   H2918     1.0  0.03464  0.82753  0.29704  1.0000
  H   H2919     1.0  0.22261  0.84766  0.36087  1.0000
  H   H2920     1.0  0.01788  0.81021  0.29957  1.0000
  H   H2921     1.0  0.19821  0.79574  0.19661  1.0000
  H   H2922     1.0  0.29864  0.78008  0.29487  1.0000
  N   N163      1.0  0.31511  0.88037  0.24351  1.0000
  Fe  Fe317     1.0  0.34830  0.84396  0.33778  1.0000
  S   S643      1.0  0.16597  0.88948  0.31746  1.0000
  S   S644      1.0  0.99977  0.80204  0.35167  1.0000
  C   C2434     1.0  0.45400  0.89226  0.31996  1.0000
  H   H2923     1.0  0.39245  0.84704  0.35269  1.0000
  C   C2435     1.0  0.43650  0.84720  0.34456  1.0000
  H   H2924     1.0  0.46382  0.82928  0.32615  1.0000
  C   C2436     1.0  0.45482  0.97222  0.19341  1.0000
  C   C2437     1.0  0.43121  0.96216  0.20337  1.0000
  C   C2438     1.0  0.47035  0.81008  0.35309  1.0000
  N   N164      1.0  0.15988  0.91433  0.36181  1.0000
  H   H2925     1.0  0.28969  0.90207  0.31718  1.0000
  C   C2439     1.0  0.27909  0.89383  0.36214  1.0000
  C   C2440     1.0  0.14934  0.74682  0.35309  1.0000
  C   C2441     1.0  0.14646  0.76192  0.37153  1.0000
  H   H2926     1.0  0.12301  0.81156  0.36292  1.0000
  C   C2442     1.0  0.21671  0.75800  0.19792  1.0000
  N   N165      1.0  0.30786  0.88822  0.36292  1.0000
  H   H2927     1.0  0.06208  0.78310  0.36334  1.0000
  C   C2443     1.0  0.28620  0.84954  0.35344  1.0000
  C   C2444     1.0  0.12394  0.76110  0.36323  1.0000
  H   H2928     1.0  0.22414  0.87234  0.36401  1.0000
  C   C2445     1.0  0.47094  0.81733  0.32589  1.0000
  H   H2929     1.0  0.29942  0.81670  0.19063  1.0000
  H   H2930     1.0  0.45027  0.93429  0.20443  1.0000
  H   H2931     1.0  0.15112  0.75696  0.34320  1.0000
  H   H2932     1.0  0.46828  0.94054  0.19699  1.0000
  H   H2933     1.0  0.42216  0.97630  0.26731  1.0000
  H   H2934     1.0  0.42897  0.96534  0.19147  1.0000
  H   H2935     1.0  0.14910  0.77181  0.36166  1.0000
  H   H2936     1.0  0.46831  0.80144  0.36425  1.0000
  S   S645      1.0  0.36930  0.96815  0.17984  1.0000
  H   H2937     1.0  0.32495  0.96580  0.18338  1.0000
  H   H2938     1.0  0.37756  0.93460  0.18484  1.0000
  H   H2939     1.0  0.34846  0.84177  0.37211  1.0000
  H   H2940     1.0  0.42452  0.97185  0.20919  1.0000
  Fe  Fe318     1.0  0.48759  0.93537  0.24241  1.0000
  N   N166      1.0  0.13898  0.75179  0.36728  1.0000
  H   H2941     1.0  0.48860  0.95932  0.21845  1.0000
  C   C2446     1.0  0.31366  0.90239  0.36060  1.0000
  C   C2447     1.0  0.16433  0.91749  0.37476  1.0000
  H   H2942     1.0  0.14202  0.94141  0.37242  1.0000
  H   H2943     1.0  0.32329  0.90005  0.36671  1.0000
  C   C2448     1.0  0.30806  0.97727  0.20872  1.0000
  C   C2449     1.0  0.48774  0.90367  0.33243  1.0000
  H   H2944     1.0  0.14423  0.73937  0.34910  1.0000
  H   H2945     1.0  0.16882  0.92835  0.37103  1.0000
  H   H2946     1.0  0.31664  0.97879  0.21440  1.0000
  H   H2947     1.0  0.11565  0.84043  0.36539  1.0000
  C   C2450     1.0  0.10317  0.84471  0.36871  1.0000
  H   H2948     1.0  0.11652  0.76780  0.37203  1.0000
  H   H2949     1.0  0.16120  0.74045  0.35499  1.0000
  S   S646      1.0  0.05576  0.96502  0.37447  1.0000
  S   S647      1.0  0.43591  0.84484  0.37525  1.0000
  H   H2950     1.0  0.19689  0.75328  0.18005  1.0000
  H   H2951     1.0  0.15766  0.75527  0.37496  1.0000
  H   H2952     1.0  0.47677  0.73187  0.18950  1.0000
  Fe  Fe319     1.0  0.25839  0.87010  0.45114  1.0000
  S   S648      1.0  0.27765  0.88046  0.43424  1.0000
  C   C2451     1.0  0.30950  0.84509  0.46065  1.0000
  Fe  Fe320     1.0  0.25340  0.85570  0.42709  1.0000
  S   S649      1.0  0.27229  0.86507  0.40834  1.0000
  S   S650      1.0  0.24099  0.84025  0.42179  1.0000
  Fe  Fe321     1.0  0.28595  0.85779  0.42689  1.0000
  S   S651      1.0  0.31200  0.84933  0.42112  1.0000
  Fe  Fe322     1.0  0.26253  0.88681  0.41724  1.0000
  S   S652      1.0  0.26084  0.91044  0.40175  1.0000
  S   S653      1.0  0.24227  0.87834  0.43443  1.0000
  H   H2953     1.0  0.16703  0.87500  0.46284  1.0000
  Fe  Fe323     1.0  0.28793  0.86560  0.54493  1.0000
  H   H2954     1.0  0.18053  0.85538  0.44525  1.0000
  H   H2955     1.0  0.22675  0.93628  0.55740  1.0000
  H   H2956     1.0  0.20928  0.84948  0.44404  1.0000
  H   H2957     1.0  0.15597  0.93346  0.50235  1.0000
  C   C2452     1.0  0.13597  0.73866  0.38059  1.0000
  C   C2453     1.0  0.32803  0.86069  0.44505  1.0000
  H   H2958     1.0  0.12982  0.97494  0.48296  1.0000
  C   C2454     1.0  0.29341  0.88911  0.47409  1.0000
  C   C2455     1.0  0.22773  0.90386  0.38469  1.0000
  S   S654      1.0  0.06530  0.92113  0.39021  1.0000
  S   S655      1.0  0.15501  0.96577  0.49984  1.0000
  S   S656      1.0  0.01244  0.77578  0.53050  1.0000
  H   H2959     1.0  0.10305  0.98078  0.39343  1.0000
  H   H2960     1.0  0.04000  0.73238  0.56475  1.0000
  H   H2961     1.0  0.31266  0.87607  0.50346  1.0000
  H   H2962     1.0  0.07511  0.92584  0.42854  1.0000
  Fe  Fe324     1.0  0.17712  0.96771  0.40189  1.0000
  S   S657      1.0  0.15810  0.96125  0.42216  1.0000
  C   C2456     1.0  0.33709  0.84074  0.37943  1.0000
  Fe  Fe325     1.0  0.18503  0.93721  0.39250  1.0000
  S   S658      1.0  0.16672  0.92773  0.41185  1.0000
  H   H2963     1.0  0.05482  0.76488  0.53371  1.0000
  Fe  Fe326     1.0  0.15150  0.95134  0.40600  1.0000
  S   S659      1.0  0.12619  0.95626  0.40562  1.0000
  Fe  Fe327     1.0  0.17479  0.93829  0.42646  1.0000
  S   S660      1.0  0.17704  0.92426  0.45019  1.0000
  H   H2964     1.0  0.30455  0.82900  0.38063  1.0000
  S   S661      1.0  0.19465  0.94564  0.40776  1.0000
  S   S662      1.0  0.01896  0.75322  0.42169  1.0000
  H   H2965     1.0  0.31417  0.93177  0.57374  1.0000
  H   H2966     1.0  0.06018  0.77495  0.39179  1.0000
  H   H2967     1.0  0.09176  0.87724  0.39560  1.0000
  H   H2968     1.0  0.99733  0.76075  0.39892  1.0000
  C   C2457     1.0  0.99350  0.75803  0.52977  1.0000
  S   S663      1.0  0.10873  0.90067  0.39184  1.0000
  S   S664      1.0  0.16219  0.92563  0.53098  1.0000
  H   H2969     1.0  0.31278  0.87844  0.38584  1.0000
  H   H2970     1.0  0.12571  0.86889  0.38271  1.0000
  C   C2458     1.0  0.12083  0.94053  0.40291  1.0000
  H   H2971     1.0  0.29410  0.89109  0.38574  1.0000
  C   C2459     1.0  0.08000  0.96899  0.41633  1.0000
  C   C2460     1.0  0.11290  0.91584  0.39686  1.0000
  C   C2461     1.0  0.12466  0.91285  0.40498  1.0000
  C   C2462     1.0  0.12851  0.92522  0.40814  1.0000
  C   C2463     1.0  0.21194  0.85457  0.55930  1.0000
  H   H2972     1.0  0.22387  0.89420  0.38372  1.0000
  H   H2973     1.0  0.13081  0.90103  0.40874  1.0000
  H   H2974     1.0  0.13733  0.92286  0.41467  1.0000
  H   H2975     1.0  0.10274  0.95515  0.39115  1.0000
  Fe  Fe328     1.0  0.27326  0.89342  0.55913  1.0000
  C   C2464     1.0  0.31340  0.86536  0.47032  1.0000
  H   H2976     1.0  0.12535  0.95003  0.48383  1.0000
  H   H2977     1.0  0.27831  0.93919  0.53937  1.0000
  H   H2978     1.0  0.27518  0.97769  0.55233  1.0000
  C   C2465     1.0  0.21938  0.91390  0.53769  1.0000
  C   C2466     1.0  0.30284  0.88215  0.37988  1.0000
  C   C2467     1.0  0.21354  0.96836  0.52333  1.0000
  C   C2468     1.0  0.12262  0.95585  0.46028  1.0000
  C   C2469     1.0  0.17073  0.93595  0.46380  1.0000
  C   C2470     1.0  0.16571  0.92930  0.47945  1.0000
  C   C2471     1.0  0.16058  0.93851  0.49047  1.0000
  C   C2472     1.0  0.16100  0.95425  0.48600  1.0000
  C   C2473     1.0  0.16614  0.96087  0.47032  1.0000
  C   C2474     1.0  0.17078  0.95179  0.45919  1.0000
  H   H2979     1.0  0.16549  0.91709  0.48305  1.0000
  Fe  Fe329     1.0  0.99628  0.75400  0.43925  1.0000
  H   H2980     1.0  0.17476  0.95695  0.44713  1.0000
  H   H2981     1.0  0.29723  0.87847  0.45528  1.0000
  C   C2475     1.0  0.02442  0.73567  0.41552  1.0000
  S   S665      1.0  0.46635  0.86326  0.38250  1.0000
  C   C2476     1.0  0.00428  0.76699  0.52098  1.0000
  H   H2982     1.0  0.17424  0.87039  0.42944  1.0000
  C   C2477     1.0  0.22118  0.85965  0.47051  1.0000
  H   H2983     1.0  0.49101  0.83382  0.44934  1.0000
  C   C2478     1.0  0.28099  0.94673  0.55894  1.0000
  H   H2984     1.0  0.27567  0.85086  0.47945  1.0000
  H   H2985     1.0  0.34330  0.84667  0.46791  1.0000
  H   H2986     1.0  0.29144  0.84176  0.49973  1.0000
  C   C2479     1.0  0.22750  0.84785  0.40959  1.0000
  C   C2480     1.0  0.22220  0.83765  0.40444  1.0000
  C   C2481     1.0  0.21058  0.84332  0.39566  1.0000
  C   C2482     1.0  0.20385  0.85921  0.39238  1.0000
  C   C2483     1.0  0.20921  0.86940  0.39745  1.0000
  C   C2484     1.0  0.22130  0.86380  0.40566  1.0000
  H   H2987     1.0  0.22695  0.82527  0.40746  1.0000
  H   H2988     1.0  0.25333  0.94973  0.54937  1.0000
  C   C2485     1.0  0.02274  0.87880  0.37993  1.0000
  H   H2989     1.0  0.22546  0.87172  0.40944  1.0000
  C   C2486     1.0  0.24561  0.91375  0.39246  1.0000
  C   C2487     1.0  0.09845  0.86560  0.40057  1.0000
  H   H2990     1.0  0.13889  0.76710  0.38139  1.0000
  C   C2488     1.0  0.22452  0.93157  0.38118  1.0000
  C   C2489     1.0  0.10473  0.93108  0.39236  1.0000
  C   C2490     1.0  0.24068  0.90119  0.39113  1.0000
  H   H2991     1.0  0.15514  0.86631  0.56592  1.0000
  C   C2491     1.0  0.21925  0.91900  0.38037  1.0000
  S   S666      1.0  0.16903  0.95994  0.38508  1.0000
  H   H2992     1.0  0.24672  0.88941  0.39519  1.0000
  C   C2492     1.0  0.31793  0.84337  0.40347  1.0000
  C   C2493     1.0  0.33265  0.84472  0.39395  1.0000
  S   S667      1.0  0.30117  0.85322  0.56392  1.0000
  H   H2993     1.0  0.00532  0.76233  0.48515  1.0000
  H   H2994     1.0  0.23012  0.85539  0.47729  1.0000
  C   C2494     1.0  0.00188  0.76127  0.49758  1.0000
  S   S668      1.0  0.16872  0.92927  0.56317  1.0000
  C   C2495     1.0  0.19264  0.96549  0.56570  1.0000
  C   C2496     1.0  0.26124  0.87055  0.48855  1.0000
  C   C2497     1.0  0.28216  0.85209  0.49989  1.0000
  C   C2498     1.0  0.27910  0.86021  0.51164  1.0000
  C   C2499     1.0  0.26692  0.87344  0.51192  1.0000
  C   C2500     1.0  0.25797  0.87853  0.50047  1.0000
  H   H2995     1.0  0.26445  0.87975  0.52092  1.0000
  H   H2996     1.0  0.24856  0.88875  0.50078  1.0000
  C   C2501     1.0  0.22031  0.85108  0.46062  1.0000
  H   H2997     1.0  0.31491  0.83591  0.45381  1.0000
  H   H2998     1.0  0.32174  0.91753  0.55273  1.0000
  C   C2502     1.0  0.12510  0.95897  0.47324  1.0000
  H   H2999     1.0  0.34055  0.84898  0.39771  1.0000
  Fe  Fe330     1.0  0.18219  0.92741  0.53916  1.0000
  H   H3000     1.0  0.07355  0.73364  0.53028  1.0000
  Fe  Fe331     1.0  0.15841  0.95158  0.52341  1.0000
  H   H3001     1.0  0.01680  0.77571  0.49793  1.0000
  C   C2503     1.0  0.07043  0.96386  0.40988  1.0000
  H   H3002     1.0  0.17379  0.90795  0.37911  1.0000
  C   C2504     1.0  0.12528  0.74150  0.39456  1.0000
  H   H3003     1.0  0.30360  0.92146  0.53578  1.0000
  H   H3004     1.0  0.14237  0.90196  0.37649  1.0000
  C   C2505     1.0  0.15420  0.87678  0.57021  1.0000
  C   C2506     1.0  0.30625  0.93377  0.56617  1.0000
  H   H3005     1.0  0.18291  0.88659  0.55432  1.0000
  H   H3006     1.0  0.23630  0.89539  0.52828  1.0000
  S   S669      1.0  0.29526  0.88804  0.54127  1.0000
  C   C2507     1.0  0.10882  0.94340  0.39518  1.0000
  C   C2508     1.0  0.12778  0.97343  0.47254  1.0000
  C   C2509     1.0  0.02887  0.82929  0.38734  1.0000
  H   H3007     1.0  0.19422  0.86128  0.42761  1.0000
  H   H3008     1.0  0.06458  0.97154  0.40096  1.0000
  C   C2510     1.0  0.19120  0.89001  0.43004  1.0000
  H   H3009     1.0  0.16681  0.97294  0.46682  1.0000
  H   H3010     1.0  0.47782  0.85366  0.43003  1.0000
  H   H3011     1.0  0.20929  0.88920  0.56926  1.0000
  H   H3012     1.0  0.00079  0.73293  0.41984  1.0000
  C   C2511     1.0  0.08761  0.95776  0.42761  1.0000
  H   H3013     1.0  0.20643  0.83533  0.39194  1.0000
  H   H3014     1.0  0.09522  0.93349  0.38667  1.0000
  H   H3015     1.0  0.31897  0.86851  0.43875  1.0000
  H   H3016     1.0  0.19329  0.95542  0.48510  1.0000
  H   H3017     1.0  0.18947  0.97218  0.42469  1.0000
  C   C2512     1.0  0.33390  0.84136  0.46753  1.0000
  H   H3018     1.0  0.47928  0.88109  0.42505  1.0000
  H   H3019     1.0  0.33952  0.83254  0.46028  1.0000
  H   H3020     1.0  0.32939  0.83484  0.47941  1.0000
  H   H3021     1.0  0.20381  0.88167  0.39514  1.0000
  H   H3022     1.0  0.21808  0.94332  0.37766  1.0000
  H   H3023     1.0  0.33449  0.85190  0.43794  1.0000
  C   C2513     1.0  0.30782  0.83771  0.39863  1.0000
  H   H3024     1.0  0.04983  0.77300  0.55598  1.0000
  H   H3025     1.0  0.02818  0.76542  0.38093  1.0000
  H   H3026     1.0  0.05821  0.85971  0.37888  1.0000
  C   C2514     1.0  0.17061  0.88376  0.45219  1.0000
  C   C2515     1.0  0.24359  0.91760  0.54820  1.0000
  C   C2516     1.0  0.04910  0.77163  0.39264  1.0000
  C   C2517     1.0  0.18368  0.86555  0.43609  1.0000
  C   C2518     1.0  0.48384  0.85709  0.43672  1.0000
  H   H3027     1.0  0.21189  0.88072  0.47879  1.0000
  H   H3028     1.0  0.11940  0.75318  0.39583  1.0000
  C   C2519     1.0  0.20390  0.86913  0.55270  1.0000
  S   S670      1.0  0.26502  0.87181  0.56160  1.0000
  C   C2520     1.0  0.25647  0.96042  0.54980  1.0000
  C   C2521     1.0  0.31236  0.83351  0.38425  1.0000
  C   C2522     1.0  0.20618  0.96859  0.56753  1.0000
  C   C2523     1.0  0.04922  0.75488  0.53990  1.0000
  H   H3029     1.0  0.49128  0.87076  0.48193  1.0000
  N   N167      1.0  0.32114  0.85329  0.46115  1.0000
  C   C2524     1.0  0.23785  0.92895  0.38705  1.0000
  H   H3030     1.0  0.29998  0.85302  0.45504  1.0000
  C   C2525     1.0  0.29771  0.88862  0.48761  1.0000
  Fe  Fe332     1.0  0.14823  0.92979  0.55410  1.0000
  Fe  Fe333     1.0  0.05777  0.90943  0.37607  1.0000
  H   H3031     1.0  0.29661  0.83626  0.40610  1.0000
  S   S671      1.0  0.16099  0.97250  0.56692  1.0000
  H   H3032     1.0  0.12431  0.83505  0.38753  1.0000
  H   H3033     1.0  0.21787  0.96886  0.48538  1.0000
  N   N168      1.0  0.22481  0.92621  0.44849  1.0000
  C   C2526     1.0  0.24206  0.92410  0.44349  1.0000
  C   C2527     1.0  0.22057  0.91167  0.44887  1.0000
  C   C2528     1.0  0.21785  0.93866  0.43646  1.0000
  C   C2529     1.0  0.21936  0.92957  0.46420  1.0000
  C   C2530     1.0  0.22519  0.91891  0.47687  1.0000
  C   C2531     1.0  0.20780  0.94295  0.46757  1.0000
  C   C2532     1.0  0.21974  0.92141  0.49194  1.0000
  C   C2533     1.0  0.20238  0.94532  0.48271  1.0000
  C   C2534     1.0  0.20832  0.93456  0.49486  1.0000
  H   H3034     1.0  0.24583  0.93451  0.44375  1.0000
  H   H3035     1.0  0.24831  0.91383  0.45094  1.0000
  H   H3036     1.0  0.24641  0.92212  0.43145  1.0000
  H   H3037     1.0  0.22703  0.90132  0.45605  1.0000
  H   H3038     1.0  0.22317  0.90941  0.43704  1.0000
  H   H3039     1.0  0.20790  0.91228  0.45387  1.0000
  H   H3040     1.0  0.22060  0.94999  0.43549  1.0000
  H   H3041     1.0  0.22241  0.93591  0.42473  1.0000
  H   H3042     1.0  0.20491  0.94012  0.43897  1.0000
  H   H3043     1.0  0.23380  0.90837  0.47529  1.0000
  H   H3044     1.0  0.20249  0.95163  0.45880  1.0000
  H   H3045     1.0  0.22413  0.91294  0.50149  1.0000
  C   C2535     1.0  0.17811  0.97552  0.56939  1.0000
  H   H3046     1.0  0.15437  0.91844  0.38490  1.0000
  H   H3047     1.0  0.12094  0.94450  0.46076  1.0000
  N   N169      1.0  0.04063  0.78230  0.38075  1.0000
  C   C2536     1.0  0.23430  0.90454  0.53433  1.0000
  Fe  Fe334     1.0  0.00308  0.76892  0.55630  1.0000
  C   C2537     1.0  0.11621  0.84182  0.39601  1.0000
  C   C2538     1.0  0.11815  0.86574  0.37697  1.0000
  N   N170      1.0  0.10708  0.85670  0.38839  1.0000
  H   H3048     1.0  0.20391  0.93629  0.50660  1.0000
  C   C2539     1.0  0.30116  0.87773  0.46552  1.0000
  H   H3049     1.0  0.20517  0.93304  0.54800  1.0000
  C   C2540     1.0  0.24646  0.90647  0.53952  1.0000
  H   H3050     1.0  0.06142  0.94498  0.40900  1.0000
  H   H3051     1.0  0.17049  0.89433  0.45582  1.0000
  H   H3052     1.0  0.09019  0.85928  0.40981  1.0000
  C   C2541     1.0  0.05573  0.76408  0.56419  1.0000
  C   C2542     1.0  0.03695  0.79844  0.38284  1.0000
  S   S672      1.0  0.17966  0.95307  0.53001  1.0000
  C   C2543     1.0  0.09268  0.73357  0.37813  1.0000
  Fe  Fe335     1.0  0.30613  0.87636  0.56193  1.0000
  H   H3053     1.0  0.21746  0.96105  0.56446  1.0000
  H   H3054     1.0  0.21829  0.96163  0.53335  1.0000
  Fe  Fe336     1.0  0.16386  0.95488  0.55324  1.0000
  C   C2544     1.0  0.30033  0.92801  0.54477  1.0000
  C   C2545     1.0  0.12259  0.96724  0.44661  1.0000
  S   S673      1.0  0.29110  0.85366  0.52540  1.0000
  C   C2546     1.0  0.30977  0.87675  0.49259  1.0000
  S   S674      1.0  0.20082  0.92208  0.37650  1.0000
  H   H3055     1.0  0.15704  0.88621  0.55994  1.0000
  C   C2547     1.0  0.31751  0.86521  0.48418  1.0000
  H   H3056     1.0  0.19215  0.89102  0.46309  1.0000
  C   C2548     1.0  0.07445  0.73774  0.54021  1.0000
  S   S675      1.0  0.20384  0.90960  0.53361  1.0000
  H   H3057     1.0  0.09199  0.93391  0.44026  1.0000
  H   H3058     1.0  0.30398  0.83943  0.47251  1.0000
  C   C2549     1.0  0.02355  0.81744  0.39915  1.0000
  H   H3059     1.0  0.01648  0.87760  0.39193  1.0000
  C   C2550     1.0  0.21946  0.96382  0.50922  1.0000
  Fe  Fe337     1.0  0.48895  0.84553  0.38325  1.0000
  C   C2551     1.0  0.00843  0.76874  0.50480  1.0000
  H   H3060     1.0  0.10650  0.86792  0.40636  1.0000
  H   H3061     1.0  0.26315  0.96526  0.53815  1.0000
  H   H3062     1.0  0.04203  0.77142  0.40464  1.0000
  H   H3063     1.0  0.05225  0.75941  0.39122  1.0000
  H   H3064     1.0  0.11262  0.94438  0.55762  1.0000
  S   S676      1.0  0.25742  0.91702  0.55814  1.0000
  C   C2552     1.0  0.06869  0.73775  0.57435  1.0000
  C   C2553     1.0  0.26717  0.97263  0.56293  1.0000
  H   H3065     1.0  0.12101  0.96465  0.43643  1.0000
  C   C2554     1.0  0.06089  0.74828  0.56289  1.0000
  H   H3066     1.0  0.24515  0.96895  0.55209  1.0000
  C   C2555     1.0  0.18857  0.87518  0.55991  1.0000
  S   S677      1.0  0.14221  0.95569  0.54591  1.0000
  C   C2556     1.0  0.48470  0.87254  0.43393  1.0000
  C   C2557     1.0  0.08018  0.85890  0.38375  1.0000
  H   H3067     1.0  0.20306  0.88593  0.42319  1.0000
  C   C2558     1.0  0.10880  0.94155  0.57012  1.0000
  H   H3068     1.0  0.07411  0.86604  0.39210  1.0000
  S   S678      1.0  0.26797  0.84653  0.44534  1.0000
  S   S679      1.0  0.24987  0.87736  0.47425  1.0000
  H   H3069     1.0  0.02561  0.84110  0.38899  1.0000
  N   N171      1.0  0.18608  0.87735  0.44289  1.0000
  C   C2559     1.0  0.29164  0.94398  0.56860  1.0000
  H   H3070     1.0  0.28371  0.89808  0.47049  1.0000
  C   C2560     1.0  0.19951  0.87965  0.46239  1.0000
  H   H3071     1.0  0.01821  0.77760  0.39423  1.0000
  H   H3072     1.0  0.16129  0.88751  0.44545  1.0000
  N   N172      1.0  0.05889  0.74281  0.55002  1.0000
  C   C2561     1.0  0.22895  0.92772  0.55061  1.0000
  H   H3073     1.0  0.12371  0.84379  0.40265  1.0000
  H   H3074     1.0  0.25791  0.89893  0.53730  1.0000
  C   C2562     1.0  0.27332  0.85726  0.48835  1.0000
  C   C2563     1.0  0.21675  0.92582  0.54539  1.0000
  H   H3075     1.0  0.22871  0.84020  0.45956  1.0000
  C   C2564     1.0  0.28577  0.93834  0.54695  1.0000
  H   H3076     1.0  0.18314  0.89469  0.42190  1.0000
  H   H3077     1.0  0.32634  0.85613  0.48906  1.0000
  H   H3078     1.0  0.01616  0.82009  0.40999  1.0000
  C   C2565     1.0  0.21086  0.87394  0.47134  1.0000
  H   H3079     1.0  0.03740  0.75926  0.54672  1.0000
  H   H3080     1.0  0.19186  0.89989  0.43435  1.0000
  H   H3081     1.0  0.10835  0.83434  0.40418  1.0000
  H   H3082     1.0  0.19199  0.97901  0.44805  1.0000
  H   H3083     1.0  0.20958  0.87581  0.54189  1.0000
  H   H3084     1.0  0.33627  0.86765  0.44492  1.0000
  C   C2566     1.0  0.20895  0.85662  0.45170  1.0000
  H   H3085     1.0  0.09548  0.96040  0.43279  1.0000
  C   C2567     1.0  0.19795  0.87098  0.45254  1.0000
  H   H3086     1.0  0.29137  0.89714  0.49453  1.0000
  C   C2568     1.0  0.02749  0.80224  0.39699  1.0000
  H   H3087     1.0  0.22883  0.95359  0.50827  1.0000
  H   H3088     1.0  0.24169  0.93867  0.38803  1.0000
  H   H3089     1.0  0.04731  0.75031  0.53074  1.0000
  H   H3090     1.0  0.19344  0.95552  0.56125  1.0000
  C   C2569     1.0  0.21323  0.97238  0.49638  1.0000
  C   C2570     1.0  0.31057  0.92576  0.55431  1.0000
  C   C2571     1.0  0.06858  0.94855  0.41441  1.0000
  H   H3091     1.0  0.04904  0.73488  0.41053  1.0000
  C   C2572     1.0  0.07624  0.93782  0.42541  1.0000
  C   C2573     1.0  0.09673  0.85353  0.38035  1.0000
  S   S680      1.0  0.32959  0.87746  0.56475  1.0000
  H   H3092     1.0  0.22780  0.87556  0.56955  1.0000
  C   C2574     1.0  0.08572  0.94241  0.43202  1.0000
  S   S681      1.0  0.03985  0.89474  0.38728  1.0000
  S   S682      1.0  0.00275  0.74391  0.56780  1.0000
  N   N173      1.0  0.26543  0.95735  0.56198  1.0000
  H   H3093     1.0  0.25573  0.98119  0.56415  1.0000
  C   C2575     1.0  0.20127  0.98138  0.52468  1.0000
  Fe  Fe338     1.0  0.08965  0.91131  0.37858  1.0000
  H   H3094     1.0  0.02297  0.79345  0.40645  1.0000
  H   H3095     1.0  0.07597  0.73381  0.39988  1.0000
  H   H3096     1.0  0.11306  0.73168  0.41740  1.0000
  H   H3097     1.0  0.29790  0.87174  0.38220  1.0000
  H   H3098     1.0  0.22383  0.84992  0.55367  1.0000
  H   H3099     1.0  0.22658  0.89536  0.56818  1.0000
  S   S683      1.0  0.18820  0.86680  0.38276  1.0000
  H   H3100     1.0  0.08084  0.74734  0.53553  1.0000
  H   H3101     1.0  0.99448  0.73816  0.39134  1.0000
  H   H3102     1.0  0.09107  0.96269  0.57093  1.0000
  C   C2576     1.0  0.02590  0.77749  0.38253  1.0000
  S   S684      1.0  0.13177  0.91506  0.56966  1.0000
  C   C2577     1.0  0.22012  0.88596  0.57382  1.0000
  H   H3103     1.0  0.01657  0.82791  0.57118  1.0000
  H   H3104     1.0  0.27172  0.97190  0.57316  1.0000
  C   C2578     1.0  0.20466  0.84598  0.57311  1.0000
  C   C2579     1.0  0.18075  0.86670  0.57397  1.0000
  C   C2580     1.0  0.49135  0.84590  0.44759  1.0000
  H   H3105     1.0  0.16744  0.89696  0.57515  1.0000
  S   S685      1.0  0.01288  0.77303  0.57428  1.0000
  C   C2581     1.0  0.07078  0.85538  0.37614  1.0000
  N   N174      1.0  0.02003  0.77051  0.62432  1.0000
  H   H3106     1.0  0.08007  0.93850  0.72061  1.0000
  Fe  Fe339     1.0  0.01155  0.85105  0.64021  1.0000
  S   S686      1.0  0.02041  0.86689  0.61797  1.0000
  S   S687      1.0  0.02790  0.83364  0.65423  1.0000
  H   H3107     1.0  0.19644  0.93644  0.58793  1.0000
  C   C2582     1.0  0.18116  0.92250  0.60441  1.0000
  Fe  Fe340     1.0  0.00323  0.86057  0.60886  1.0000
  H   H3108     1.0  0.25243  0.88508  0.76312  1.0000
  H   H3109     1.0  0.39407  0.96533  0.74701  1.0000
  H   H3110     1.0  0.48198  0.87681  0.62440  1.0000
  C   C2583     1.0  0.25600  0.95039  0.57694  1.0000
  S   S688      1.0  0.10689  0.75078  0.61783  1.0000
  S   S689      1.0  0.06654  0.77953  0.61978  1.0000
  H   H3111     1.0  0.44515  0.89253  0.68898  1.0000
  S   S690      1.0  0.13834  0.76187  0.63041  1.0000
  C   C2584     1.0  0.39449  0.93047  0.68247  1.0000
  Fe  Fe341     1.0  0.16444  0.82226  0.65667  1.0000
  S   S691      1.0  0.16827  0.83554  0.63205  1.0000
  S   S692      1.0  0.14702  0.80671  0.66711  1.0000
  Fe  Fe342     1.0  0.18698  0.83644  0.66471  1.0000
  S   S693      1.0  0.19242  0.85124  0.64069  1.0000
  S   S694      1.0  0.19868  0.83222  0.68469  1.0000
  Fe  Fe343     1.0  0.16672  0.85581  0.64177  1.0000
  S   S695      1.0  0.15395  0.87808  0.62867  1.0000
  Fe  Fe344     1.0  0.19356  0.82996  0.63276  1.0000
  S   S696      1.0  0.21131  0.82416  0.61161  1.0000
  S   S697      1.0  0.16088  0.84304  0.66662  1.0000
  S   S698      1.0  0.19007  0.81462  0.65655  1.0000
  H   H3112     1.0  0.42070  0.88895  0.68677  1.0000
  Fe  Fe345     1.0  0.07224  0.95480  0.62895  1.0000
  S   S699      1.0  0.08563  0.96238  0.64137  1.0000
  H   H3113     1.0  0.03282  0.77090  0.64880  1.0000
  Fe  Fe346     1.0  0.05208  0.93983  0.65821  1.0000
  S   S700      1.0  0.06341  0.94637  0.67348  1.0000
  S   S701      1.0  0.03537  0.92362  0.66817  1.0000
  H   H3114     1.0  0.19547  0.76406  0.69279  1.0000
  H   H3115     1.0  0.00186  0.75808  0.63662  1.0000
  Fe  Fe347     1.0  0.08598  0.93888  0.65721  1.0000
  S   S702      1.0  0.10706  0.92579  0.66719  1.0000
  H   H3116     1.0  0.05486  0.89054  0.61110  1.0000
  S   S703      1.0  0.07484  0.93045  0.64332  1.0000
  C   C2585     1.0  0.19020  0.75520  0.69120  1.0000
  H   H3117     1.0  0.17213  0.93243  0.60727  1.0000
  S   S704      1.0  0.27141  0.84845  0.60466  1.0000
  Fe  Fe348     1.0  0.01031  0.74888  0.58674  1.0000
  C   C2586     1.0  0.00145  0.79362  0.63371  1.0000
  H   H3118     1.0  0.31384  0.87988  0.63252  1.0000
  S   S705      1.0  0.47294  0.97026  0.75184  1.0000
  C   C2587     1.0  0.02239  0.77970  0.64708  1.0000
  C   C2588     1.0  0.33358  0.83920  0.59239  1.0000
  C   C2589     1.0  0.19482  0.92474  0.59344  1.0000
  H   H3119     1.0  0.05422  0.78096  0.57708  1.0000
  H   H3120     1.0  0.40077  0.89645  0.67185  1.0000
  S   S706      1.0  0.99606  0.84319  0.63052  1.0000
  H   H3121     1.0  0.07872  0.95476  0.72855  1.0000
  S   S707      1.0  0.40821  0.94691  0.72378  1.0000
  H   H3122     1.0  0.01081  0.75492  0.61743  1.0000
  C   C2590     1.0  0.17923  0.90748  0.61180  1.0000
  H   H3123     1.0  0.29920  0.85465  0.61435  1.0000
  C   C2591     1.0  0.99615  0.80387  0.64370  1.0000
  H   H3124     1.0  0.35632  0.92568  0.76918  1.0000
  C   C2592     1.0  0.12491  0.96030  0.62041  1.0000
  H   H3125     1.0  0.11122  0.73382  0.68315  1.0000
  S   S708      1.0  0.00952  0.85358  0.58606  1.0000
  C   C2593     1.0  0.39285  0.91972  0.67532  1.0000
  H   H3126     1.0  0.29196  0.84199  0.77136  1.0000
  C   C2594     1.0  0.27570  0.91542  0.70678  1.0000
  S   S709      1.0  0.28126  0.88663  0.73984  1.0000
  H   H3127     1.0  0.44723  0.96637  0.72820  1.0000
  C   C2595     1.0  0.31846  0.93033  0.76765  1.0000
  S   S710      1.0  0.32851  0.96647  0.73312  1.0000
  S   S711      1.0  0.45573  0.87752  0.66416  1.0000
  C   C2596     1.0  0.30089  0.89983  0.69784  1.0000
  C   C2597     1.0  0.32569  0.82756  0.63418  1.0000
  Fe  Fe349     1.0  0.35884  0.87827  0.65864  1.0000
  S   S712      1.0  0.33603  0.89528  0.65825  1.0000
  S   S713      1.0  0.36068  0.85346  0.67182  1.0000
  Fe  Fe350     1.0  0.37768  0.90145  0.63753  1.0000
  S   S714      1.0  0.35614  0.92045  0.63479  1.0000
  S   S715      1.0  0.40126  0.90780  0.62724  1.0000
  Fe  Fe351     1.0  0.34830  0.91222  0.66037  1.0000
  S   S716      1.0  0.33636  0.92855  0.67641  1.0000
  Fe  Fe352     1.0  0.34557  0.90208  0.63266  1.0000
  S   S717      1.0  0.32642  0.90807  0.61951  1.0000
  S   S718      1.0  0.37037  0.89448  0.66340  1.0000
  S   S719      1.0  0.36787  0.88370  0.63277  1.0000
  Fe  Fe353     1.0  0.27971  0.84259  0.72020  1.0000
  S   S720      1.0  0.27252  0.86808  0.71092  1.0000
  S   S721      1.0  0.29956  0.82788  0.70636  1.0000
  Fe  Fe354     1.0  0.26969  0.87012  0.73531  1.0000
  Fe  Fe355     1.0  0.24810  0.86408  0.71824  1.0000
  S   S722      1.0  0.23311  0.87543  0.70034  1.0000
  S   S723      1.0  0.25554  0.83822  0.72614  1.0000
  H   H3128     1.0  0.12063  0.96573  0.63021  1.0000
  C   C2598     1.0  0.07441  0.82914  0.62355  1.0000
  C   C2599     1.0  0.02530  0.77933  0.60838  1.0000
  H   H3129     1.0  0.17074  0.76134  0.65500  1.0000
  H   H3130     1.0  0.07515  0.82100  0.61676  1.0000
  C   C2600     1.0  0.99972  0.83887  0.58871  1.0000
  C   C2601     1.0  0.31534  0.89612  0.58573  1.0000
  H   H3131     1.0  0.25469  0.93877  0.57674  1.0000
  H   H3132     1.0  0.08783  0.79711  0.62779  1.0000
  H   H3133     1.0  0.29591  0.89779  0.75707  1.0000
  H   H3134     1.0  0.12731  0.96514  0.58166  1.0000
  H   H3135     1.0  0.36055  0.89821  0.73711  1.0000
  C   C2602     1.0  0.40559  0.92631  0.69159  1.0000
  S   S724      1.0  0.36742  0.97730  0.73459  1.0000
  H   H3136     1.0  0.11181  0.96220  0.70264  1.0000
  H   H3137     1.0  0.34723  0.83692  0.65365  1.0000
  H   H3138     1.0  0.44681  0.91630  0.70401  1.0000
  H   H3139     1.0  0.37087  0.90723  0.70818  1.0000
  H   H3140     1.0  0.32903  0.83907  0.58240  1.0000
  H   H3141     1.0  0.31882  0.81906  0.63629  1.0000
  H   H3142     1.0  0.11484  0.82373  0.62184  1.0000
  C   C2603     1.0  0.47989  0.93656  0.69634  1.0000
  C   C2604     1.0  0.01701  0.79008  0.65698  1.0000
  H   H3143     1.0  0.27138  0.90469  0.71312  1.0000
  C   C2605     1.0  0.34346  0.84696  0.68191  1.0000
  C   C2606     1.0  0.34410  0.83099  0.68574  1.0000
  C   C2607     1.0  0.33057  0.82531  0.69323  1.0000
  C   C2608     1.0  0.31637  0.83551  0.69751  1.0000
  C   C2609     1.0  0.31573  0.85151  0.69407  1.0000
  C   C2610     1.0  0.32924  0.85726  0.68607  1.0000
  H   H3144     1.0  0.35509  0.82297  0.68264  1.0000
  H   H3145     1.0  0.33115  0.81295  0.69589  1.0000
  H   H3146     1.0  0.30482  0.85947  0.69723  1.0000
  H   H3147     1.0  0.32867  0.86958  0.68331  1.0000
  C   C2611     1.0  0.44018  0.88643  0.65445  1.0000
  C   C2612     1.0  0.43792  0.90205  0.64659  1.0000
  C   C2613     1.0  0.42590  0.90853  0.63835  1.0000
  C   C2614     1.0  0.41574  0.89960  0.63830  1.0000
  C   C2615     1.0  0.41771  0.88411  0.64651  1.0000
  C   C2616     1.0  0.42993  0.87755  0.65449  1.0000
  H   H3148     1.0  0.44544  0.90915  0.64678  1.0000
  H   H3149     1.0  0.42433  0.92056  0.63213  1.0000
  H   H3150     1.0  0.40998  0.87710  0.64648  1.0000
  H   H3151     1.0  0.43153  0.86548  0.66059  1.0000
  H   H3152     1.0  0.21995  0.85880  0.59210  1.0000
  C   C2617     1.0  0.47212  0.94053  0.71060  1.0000
  C   C2618     1.0  0.16292  0.74038  0.66196  1.0000
  H   H3153     1.0  0.45962  0.94172  0.71437  1.0000
  H   H3154     1.0  0.06146  0.95208  0.70509  1.0000
  C   C2619     1.0  0.36165  0.96763  0.66754  1.0000
  C   C2620     1.0  0.34867  0.96615  0.67984  1.0000
  C   C2621     1.0  0.34056  0.95455  0.68210  1.0000
  C   C2622     1.0  0.34563  0.94409  0.67230  1.0000
  C   C2623     1.0  0.35848  0.94571  0.65984  1.0000
  C   C2624     1.0  0.36637  0.95759  0.65734  1.0000
  H   H3155     1.0  0.04822  0.93297  0.60808  1.0000
  H   H3156     1.0  0.33051  0.95358  0.69161  1.0000
  H   H3157     1.0  0.36263  0.93762  0.65231  1.0000
  H   H3158     1.0  0.37654  0.95854  0.64793  1.0000
  C   C2625     1.0  0.41497  0.94924  0.73884  1.0000
  C   C2626     1.0  0.43003  0.94135  0.74093  1.0000
  C   C2627     1.0  0.43601  0.94396  0.75224  1.0000
  C   C2628     1.0  0.42677  0.95423  0.76165  1.0000
  C   C2629     1.0  0.31744  0.94314  0.75516  1.0000
  C   C2630     1.0  0.40571  0.95933  0.74841  1.0000
  H   H3159     1.0  0.43718  0.93342  0.73364  1.0000
  H   H3160     1.0  0.44774  0.93806  0.75364  1.0000
  C   C2631     1.0  0.06979  0.85098  0.64115  1.0000
  H   H3161     1.0  0.10379  0.94851  0.69036  1.0000
  H   H3162     1.0  0.34487  0.97391  0.68774  1.0000
  H   H3163     1.0  0.33090  0.81836  0.65699  1.0000
  C   C2632     1.0  0.18342  0.77356  0.66863  1.0000
  C   C2633     1.0  0.06005  0.85334  0.63109  1.0000
  C   C2634     1.0  0.13146  0.77523  0.65556  1.0000
  C   C2635     1.0  0.08183  0.83767  0.64254  1.0000
  H   H3164     1.0  0.16470  0.86028  0.60466  1.0000
  C   C2636     1.0  0.34552  0.93045  0.76516  1.0000
  C   C2637     1.0  0.30932  0.85433  0.60428  1.0000
  Fe  Fe356     1.0  0.27886  0.86134  0.58014  1.0000
  C   C2638     1.0  0.11583  0.92750  0.57875  1.0000
  C   C2639     1.0  0.99895  0.81463  0.58355  1.0000
  C   C2640     1.0  0.34202  0.89042  0.59754  1.0000
  C   C2641     1.0  0.32805  0.89973  0.60398  1.0000
  C   C2642     1.0  0.31478  0.90260  0.59799  1.0000
  C   C2643     1.0  0.16382  0.88796  0.58546  1.0000
  H   H3165     1.0  0.31420  0.86467  0.60231  1.0000
  H   H3166     1.0  0.35237  0.88827  0.60203  1.0000
  H   H3167     1.0  0.30402  0.90999  0.60276  1.0000
  C   C2644     1.0  0.13192  0.94445  0.62350  1.0000
  C   C2645     1.0  0.09173  0.94831  0.59380  1.0000
  C   C2646     1.0  0.09889  0.93430  0.60240  1.0000
  C   C2647     1.0  0.11075  0.92380  0.59484  1.0000
  Fe  Fe357     1.0  0.99998  0.88497  0.62648  1.0000
  H   H3168     1.0  0.00394  0.80563  0.57705  1.0000
  S   S725      1.0  0.37035  0.95811  0.70819  1.0000
  H   H3169     1.0  0.09540  0.93155  0.61485  1.0000
  H   H3170     1.0  0.11636  0.91306  0.60147  1.0000
  Fe  Fe358     1.0  0.11657  0.75215  0.63725  1.0000
  H   H3171     1.0  0.30655  0.94803  0.75131  1.0000
  H   H3172     1.0  0.01105  0.93705  0.62343  1.0000
  N   N175      1.0  0.08212  0.95997  0.70371  1.0000
  H   H3173     1.0  0.03506  0.78468  0.60779  1.0000
  C   C2648     1.0  0.08762  0.97421  0.70191  1.0000
  H   H3174     1.0  0.44142  0.96240  0.70343  1.0000
  H   H3175     1.0  0.22869  0.87979  0.60899  1.0000
  C   C2649     1.0  0.29447  0.92724  0.68648  1.0000
  C   C2650     1.0  0.46096  0.89122  0.60641  1.0000
  Fe  Fe359     1.0  0.38663  0.96442  0.71841  1.0000
  H   H3176     1.0  0.08944  0.95992  0.67937  1.0000
  C   C2651     1.0  0.20831  0.84459  0.68837  1.0000
  C   C2652     1.0  0.21493  0.83941  0.70146  1.0000
  C   C2653     1.0  0.22248  0.84879  0.70518  1.0000
  C   C2654     1.0  0.22355  0.86350  0.69582  1.0000
  C   C2655     1.0  0.21705  0.86871  0.68260  1.0000
  C   C2656     1.0  0.20948  0.85926  0.67884  1.0000
  H   H3177     1.0  0.21399  0.82813  0.70894  1.0000
  H   H3178     1.0  0.22711  0.84475  0.71554  1.0000
  H   H3179     1.0  0.21775  0.88011  0.67533  1.0000
  H   H3180     1.0  0.20436  0.86338  0.66876  1.0000
  C   C2657     1.0  0.22891  0.82915  0.61017  1.0000
  C   C2658     1.0  0.23174  0.83253  0.62288  1.0000
  C   C2659     1.0  0.24510  0.83801  0.62124  1.0000
  C   C2660     1.0  0.25549  0.84038  0.60681  1.0000
  C   C2661     1.0  0.25279  0.83681  0.59412  1.0000
  C   C2662     1.0  0.23965  0.83093  0.59588  1.0000
  H   H3181     1.0  0.22366  0.83090  0.63401  1.0000
  H   H3182     1.0  0.24717  0.84071  0.63108  1.0000
  H   H3183     1.0  0.34147  0.90794  0.74583  1.0000
  H   H3184     1.0  0.18625  0.74848  0.70309  1.0000
  C   C2663     1.0  0.14039  0.89033  0.64016  1.0000
  C   C2664     1.0  0.14179  0.88986  0.65503  1.0000
  C   C2665     1.0  0.13139  0.90068  0.66341  1.0000
  C   C2666     1.0  0.11943  0.91173  0.65706  1.0000
  C   C2667     1.0  0.11785  0.91189  0.64235  1.0000
  C   C2668     1.0  0.12841  0.90130  0.63390  1.0000
  H   H3185     1.0  0.15108  0.88143  0.65992  1.0000
  H   H3186     1.0  0.13266  0.90051  0.67480  1.0000
  H   H3187     1.0  0.10885  0.92051  0.63725  1.0000
  H   H3188     1.0  0.12744  0.90173  0.62237  1.0000
  C   C2669     1.0  0.14044  0.77444  0.64065  1.0000
  C   C2670     1.0  0.15152  0.78371  0.63376  1.0000
  C   C2671     1.0  0.15345  0.79389  0.64162  1.0000
  C   C2672     1.0  0.14443  0.79470  0.65652  1.0000
  C   C2673     1.0  0.13344  0.78534  0.66345  1.0000
  H   H3189     1.0  0.42996  0.93080  0.70083  1.0000
  H   H3190     1.0  0.15860  0.78303  0.62226  1.0000
  H   H3191     1.0  0.16204  0.80096  0.63622  1.0000
  S   S726      1.0  0.46904  0.93529  0.68394  1.0000
  H   H3192     1.0  0.36390  0.92710  0.70967  1.0000
  C   C2674     1.0  0.01153  0.91327  0.63575  1.0000
  C   C2675     1.0  0.01456  0.92805  0.63307  1.0000
  C   C2676     1.0  0.02202  0.93130  0.64286  1.0000
  C   C2677     1.0  0.02649  0.91975  0.65539  1.0000
  C   C2678     1.0  0.02347  0.90496  0.65807  1.0000
  C   C2679     1.0  0.01608  0.90169  0.64823  1.0000
  H   H3193     1.0  0.35757  0.92055  0.69657  1.0000
  H   H3194     1.0  0.02416  0.94278  0.64081  1.0000
  H   H3195     1.0  0.02680  0.89602  0.66783  1.0000
  H   H3196     1.0  0.01378  0.89026  0.65041  1.0000
  C   C2680     1.0  0.03847  0.81852  0.64473  1.0000
  C   C2681     1.0  0.04827  0.80567  0.65219  1.0000
  C   C2682     1.0  0.05669  0.79349  0.64472  1.0000
  C   C2683     1.0  0.05562  0.79430  0.62964  1.0000
  C   C2684     1.0  0.04582  0.80715  0.62220  1.0000
  C   C2685     1.0  0.03720  0.81920  0.62975  1.0000
  H   H3197     1.0  0.04914  0.80505  0.66384  1.0000
  H   H3198     1.0  0.06382  0.78342  0.65073  1.0000
  H   H3199     1.0  0.04490  0.80786  0.61054  1.0000
  H   H3200     1.0  0.02973  0.82909  0.62386  1.0000
  H   H3201     1.0  0.11264  0.82170  0.64233  1.0000
  S   S727      1.0  0.09365  0.76357  0.65053  1.0000
  C   C2686     1.0  0.28273  0.90915  0.68088  1.0000
  C   C2687     1.0  0.29217  0.90936  0.66569  1.0000
  C   C2688     1.0  0.26831  0.90453  0.68407  1.0000
  C   C2689     1.0  0.28726  0.90580  0.65429  1.0000
  C   C2690     1.0  0.26359  0.90078  0.67264  1.0000
  C   C2691     1.0  0.27298  0.90154  0.65775  1.0000
  H   H3202     1.0  0.30532  0.90205  0.70694  1.0000
  H   H3203     1.0  0.26043  0.90360  0.69533  1.0000
  H   H3204     1.0  0.29468  0.90628  0.64272  1.0000
  H   H3205     1.0  0.25254  0.89724  0.67542  1.0000
  H   H3206     1.0  0.26920  0.89877  0.64890  1.0000
  Fe  Fe360     1.0  0.47451  0.88996  0.66263  1.0000
  C   C2692     1.0  0.10348  0.97323  0.70170  1.0000
  H   H3207     1.0  0.30548  0.92572  0.67749  1.0000
  H   H3208     1.0  0.26562  0.92484  0.70368  1.0000
  H   H3209     1.0  0.38723  0.94214  0.68078  1.0000
  C   C2693     1.0  0.41580  0.91137  0.69336  1.0000
  H   H3210     1.0  0.15403  0.77657  0.68699  1.0000
  S   S728      1.0  0.47370  0.91488  0.65054  1.0000
  H   H3211     1.0  0.30518  0.89891  0.58093  1.0000
  H   H3212     1.0  0.19275  0.76739  0.66032  1.0000
  C   C2694     1.0  0.33258  0.82699  0.64621  1.0000
  H   H3213     1.0  0.26088  0.83849  0.58298  1.0000
  H   H3214     1.0  0.27997  0.91861  0.71543  1.0000
  H   H3215     1.0  0.30349  0.91224  0.66244  1.0000
  H   H3216     1.0  0.30461  0.85574  0.59396  1.0000
  H   H3217     1.0  0.20006  0.86900  0.59466  1.0000
  C   C2695     1.0  0.34456  0.94319  0.75251  1.0000
  H   H3218     1.0  0.29761  0.93088  0.69558  1.0000
  H   H3219     1.0  0.06770  0.85929  0.64825  1.0000
  H   H3220     1.0  0.14295  0.96123  0.64514  1.0000
  S   S729      1.0  0.00222  0.90963  0.62321  1.0000
  N   N176      1.0  0.06360  0.91013  0.61071  1.0000
  C   C2696     1.0  0.07030  0.91289  0.59373  1.0000
  C   C2697     1.0  0.05056  0.90223  0.61390  1.0000
  C   C2698     1.0  0.05719  0.92557  0.61472  1.0000
  C   C2699     1.0  0.07507  0.90067  0.62025  1.0000
  C   C2700     1.0  0.07041  0.89714  0.63671  1.0000
  C   C2701     1.0  0.09106  0.89493  0.61371  1.0000
  C   C2702     1.0  0.08114  0.88891  0.64601  1.0000
  C   C2703     1.0  0.10168  0.88661  0.62314  1.0000
  C   C2704     1.0  0.09677  0.88374  0.63924  1.0000
  C   C2705     1.0  0.17160  0.75049  0.67941  1.0000
  H   H3221     1.0  0.05772  0.96845  0.71346  1.0000
  H   H3222     1.0  0.33727  0.96767  0.76812  1.0000
  H   H3223     1.0  0.48824  0.89399  0.62341  1.0000
  C   C2706     1.0  0.41154  0.96169  0.75990  1.0000
  H   H3224     1.0  0.03004  0.75017  0.63994  1.0000
  H   H3225     1.0  0.06657  0.93200  0.61222  1.0000
  H   H3226     1.0  0.17403  0.78094  0.66259  1.0000
  S   S730      1.0  0.28456  0.88361  0.57932  1.0000
  H   H3227     1.0  0.05848  0.90117  0.64259  1.0000
  H   H3228     1.0  0.09577  0.89702  0.60135  1.0000
  H   H3229     1.0  0.07736  0.88690  0.65855  1.0000
  H   H3230     1.0  0.04386  0.76144  0.62708  1.0000
  H   H3231     1.0  0.10517  0.87772  0.64648  1.0000
  N   N177      1.0  0.21645  0.88326  0.59102  1.0000
  H   H3232     1.0  0.31284  0.98028  0.75913  1.0000
  H   H3233     1.0  0.99583  0.91588  0.68335  1.0000
  C   C2707     1.0  0.47842  0.88969  0.62244  1.0000
  H   H3234     1.0  0.03670  0.74941  0.61986  1.0000
  C   C2708     1.0  0.19073  0.89463  0.60790  1.0000
  H   H3235     1.0  0.40619  0.93497  0.69715  1.0000
  H   H3236     1.0  0.44832  0.89001  0.70791  1.0000
  H   H3237     1.0  0.32381  0.92528  0.73026  1.0000
  H   H3238     1.0  0.31778  0.86275  0.65774  1.0000
  H   H3239     1.0  0.16393  0.95301  0.62345  1.0000
  H   H3240     1.0  0.99735  0.77266  0.61984  1.0000
  C   C2709     1.0  0.28461  0.89610  0.76415  1.0000
  Fe  Fe361     1.0  0.06231  0.96952  0.65667  1.0000
  N   N178      1.0  0.17731  0.76250  0.68280  1.0000
  H   H3241     1.0  0.46575  0.92041  0.59508  1.0000
  C   C2710     1.0  0.43907  0.89238  0.70130  1.0000
  H   H3242     1.0  0.44206  0.92172  0.68529  1.0000
  H   H3243     1.0  0.01577  0.78890  0.60431  1.0000
  C   C2711     1.0  0.31326  0.82670  0.60915  1.0000
  S   S731      1.0  0.48068  0.89201  0.68385  1.0000
  H   H3244     1.0  0.28581  0.93706  0.68127  1.0000
  C   C2712     1.0  0.32915  0.88661  0.57938  1.0000
  H   H3245     1.0  0.21053  0.86426  0.61001  1.0000
  N   N179      1.0  0.34688  0.91282  0.72065  1.0000
  H   H3246     1.0  0.05029  0.86330  0.63053  1.0000
  C   C2713     1.0  0.33372  0.92665  0.72007  1.0000
  H   H3247     1.0  0.08881  0.83615  0.65081  1.0000
  C   C2714     1.0  0.34183  0.89945  0.71913  1.0000
  C   C2715     1.0  0.32933  0.89377  0.73038  1.0000
  C   C2716     1.0  0.34894  0.89177  0.70663  1.0000
  C   C2717     1.0  0.32446  0.88104  0.72934  1.0000
  C   C2718     1.0  0.34399  0.87902  0.70572  1.0000
  C   C2719     1.0  0.33181  0.87364  0.71707  1.0000
  H   H3248     1.0  0.10820  0.79098  0.62748  1.0000
  C   C2720     1.0  0.00601  0.82729  0.58013  1.0000
  H   H3249     1.0  0.07981  0.91938  0.59042  1.0000
  C   C2721     1.0  0.05811  0.76885  0.57635  1.0000
  H   H3250     1.0  0.40435  0.96958  0.76723  1.0000
  H   H3251     1.0  0.32911  0.92895  0.70947  1.0000
  H   H3252     1.0  0.38444  0.92297  0.66805  1.0000
  S   S732      1.0  0.24148  0.83107  0.77250  1.0000
  Fe  Fe362     1.0  0.35147  0.97308  0.72237  1.0000
  H   H3253     1.0  0.32323  0.89915  0.74009  1.0000
  C   C2722     1.0  0.09104  0.95218  0.69079  1.0000
  H   H3254     1.0  0.31488  0.87690  0.73810  1.0000
  C   C2723     1.0  0.06247  0.84255  0.62218  1.0000
  H   H3255     1.0  0.32807  0.86372  0.71634  1.0000
  C   C2724     1.0  0.41979  0.90613  0.71935  1.0000
  C   C2725     1.0  0.41358  0.90060  0.68614  1.0000
  C   C2726     1.0  0.40215  0.90477  0.67740  1.0000
  H   H3256     1.0  0.41111  0.91697  0.72134  1.0000
  H   H3257     1.0  0.42826  0.90397  0.72679  1.0000
  H   H3258     1.0  0.41338  0.89657  0.72360  1.0000
  H   H3259     1.0  0.43340  0.88228  0.70588  1.0000
  S   S733      1.0  0.99231  0.86959  0.64960  1.0000
  H   H3260     1.0  0.11391  0.88268  0.61796  1.0000
  Fe  Fe363     1.0  0.08377  0.76080  0.63197  1.0000
  H   H3261     1.0  0.30853  0.82765  0.59891  1.0000
  H   H3262     1.0  0.28866  0.94948  0.57828  1.0000
  C   C2727     1.0  0.35149  0.90920  0.73572  1.0000
  C   C2728     1.0  0.07067  0.74260  0.58664  1.0000
  H   H3263     1.0  0.10150  0.80749  0.61327  1.0000
  H   H3264     1.0  0.46322  0.87833  0.60917  1.0000
  H   H3265     1.0  0.30294  0.82694  0.61908  1.0000
  H   H3266     1.0  0.08112  0.80028  0.65505  1.0000
  H   H3267     1.0  0.19970  0.74723  0.68474  1.0000
  H   H3268     1.0  0.18849  0.88333  0.61419  1.0000
  N   N180      1.0  0.27112  0.84653  0.66802  1.0000
  C   C2729     1.0  0.26595  0.85060  0.68342  1.0000
  C   C2730     1.0  0.25690  0.84941  0.66187  1.0000
  C   C2731     1.0  0.27834  0.82968  0.67017  1.0000
  C   C2732     1.0  0.28277  0.85557  0.65790  1.0000
  C   C2733     1.0  0.28088  0.86550  0.64326  1.0000
  C   C2734     1.0  0.29651  0.85471  0.66271  1.0000
  C   C2735     1.0  0.29198  0.87420  0.63429  1.0000
  C   C2736     1.0  0.30747  0.86349  0.65370  1.0000
  C   C2737     1.0  0.30525  0.87315  0.63948  1.0000
  H   H3269     1.0  0.26187  0.86340  0.68222  1.0000
  H   H3270     1.0  0.25617  0.84515  0.69100  1.0000
  H   H3271     1.0  0.27538  0.84663  0.68999  1.0000
  H   H3272     1.0  0.25064  0.86185  0.66047  1.0000
  H   H3273     1.0  0.24826  0.84265  0.66994  1.0000
  H   H3274     1.0  0.25974  0.84590  0.65060  1.0000
  H   H3275     1.0  0.28827  0.82634  0.67612  1.0000
  H   H3276     1.0  0.26979  0.82253  0.67755  1.0000
  H   H3277     1.0  0.28283  0.82616  0.65883  1.0000
  H   H3278     1.0  0.27093  0.86678  0.63849  1.0000
  H   H3279     1.0  0.29884  0.84727  0.67359  1.0000
  H   H3280     1.0  0.29033  0.88181  0.62320  1.0000
  H   H3281     1.0  0.29672  0.88880  0.70282  1.0000
  S   S734      1.0  0.24441  0.86889  0.74186  1.0000
  N   N181      1.0  0.42773  0.90734  0.70278  1.0000
  C   C2738     1.0  0.20447  0.89653  0.59618  1.0000
  N   N182      1.0  0.28823  0.91288  0.69282  1.0000
  H   H3282     1.0  0.31107  0.89782  0.68805  1.0000
  H   H3283     1.0  0.14274  0.92412  0.61401  1.0000
  C   C2739     1.0  0.43694  0.91955  0.69800  1.0000
  H   H3284     1.0  0.15998  0.76420  0.70412  1.0000
  H   H3285     1.0  0.24014  0.87155  0.59275  1.0000
  H   H3286     1.0  0.46849  0.89236  0.63220  1.0000
  C   C2740     1.0  0.20641  0.91197  0.58950  1.0000
  H   H3287     1.0  0.13279  0.93828  0.63527  1.0000
  H   H3288     1.0  0.04425  0.90063  0.62624  1.0000
  H   H3289     1.0  0.00021  0.81050  0.66261  1.0000
  C   C2741     1.0  0.48370  0.97405  0.68237  1.0000
  H   H3290     1.0  0.16755  0.78140  0.69471  1.0000
  C   C2742     1.0  0.15785  0.86283  0.59563  1.0000
  H   H3291     1.0  0.18845  0.78189  0.67141  1.0000
  Fe  Fe364     1.0  0.48166  0.91646  0.67087  1.0000
  S   S735      1.0  0.47843  0.93202  0.76669  1.0000
  C   C2743     1.0  0.27481  0.89087  0.75840  1.0000
  H   H3292     1.0  0.02323  0.78900  0.66581  1.0000
  N   N183      1.0  0.32111  0.83959  0.60677  1.0000
  C   C2744     1.0  0.13741  0.93640  0.61160  1.0000
  H   H3293     1.0  0.45823  0.89559  0.59469  1.0000
  C   C2745     1.0  0.00693  0.76379  0.62459  1.0000
  H   H3294     1.0  0.33869  0.85859  0.60852  1.0000
  H   H3295     1.0  0.12654  0.78580  0.67505  1.0000
  S   S736      1.0  0.37277  0.98097  0.66602  1.0000
  Fe  Fe365     1.0  0.25378  0.84312  0.74922  1.0000
  S   S737      1.0  0.27881  0.84473  0.74410  1.0000
  H   H3296     1.0  0.46155  0.97154  0.68205  1.0000
  H   H3297     1.0  0.33733  0.93733  0.71991  1.0000
  H   H3298     1.0  0.99519  0.79571  0.62469  1.0000
  C   C2746     1.0  0.09860  0.80150  0.62569  1.0000
  H   H3299     1.0  0.04156  0.90904  0.60705  1.0000
  C   C2747     1.0  0.03321  0.75733  0.62805  1.0000
  C   C2748     1.0  0.08444  0.82626  0.63386  1.0000
  H   H3300     1.0  0.18042  0.97105  0.60631  1.0000
  C   C2749     1.0  0.06524  0.96299  0.70375  1.0000
  H   H3301     1.0  0.34971  0.87322  0.69616  1.0000
  C   C2750     1.0  0.33688  0.84951  0.61878  1.0000
  C   C2751     1.0  0.12327  0.96856  0.60516  1.0000
  C   C2752     1.0  0.13570  0.94407  0.59663  1.0000
  C   C2753     1.0  0.32787  0.83875  0.61994  1.0000
  C   C2754     1.0  0.01468  0.78115  0.63513  1.0000
  H   H3302     1.0  0.34326  0.82879  0.59404  1.0000
  H   H3303     1.0  0.35634  0.91860  0.73678  1.0000
  H   H3304     1.0  0.09727  0.94492  0.71886  1.0000
  C   C2755     1.0  0.09662  0.95189  0.57764  1.0000
  C   C2756     1.0  0.34258  0.88398  0.58514  1.0000
  S   S738      1.0  0.02910  0.73358  0.59883  1.0000
  H   H3305     1.0  0.24109  0.79631  0.76730  1.0000
  H   H3306     1.0  0.23755  0.82822  0.58604  1.0000
  N   N184      1.0  0.09676  0.81190  0.63618  1.0000
  H   H3307     1.0  0.15174  0.89318  0.59120  1.0000
  H   H3308     1.0  0.05459  0.84424  0.61466  1.0000
  C   C2757     1.0  0.33038  0.94975  0.74781  1.0000
  H   H3309     1.0  0.12314  0.76787  0.66108  1.0000
  H   H3310     1.0  0.21094  0.83462  0.57826  1.0000
  H   H3311     1.0  0.32149  0.81518  0.61103  1.0000
  H   H3312     1.0  0.21691  0.91426  0.58112  1.0000
  C   C2758     1.0  0.16198  0.96453  0.62546  1.0000
  H   H3313     1.0  0.24404  0.95779  0.57956  1.0000
  C   C2759     1.0  0.09286  0.80299  0.65237  1.0000
  H   H3314     1.0  0.02948  0.77168  0.59991  1.0000
  H   H3315     1.0  0.07638  0.73426  0.59541  1.0000
  H   H3316     1.0  0.05154  0.92471  0.62717  1.0000
  C   C2760     1.0  0.36041  0.91702  0.70822  1.0000
  H   H3317     1.0  0.17145  0.88593  0.59367  1.0000
  H   H3318     1.0  0.35069  0.85710  0.62958  1.0000
  C   C2761     1.0  0.21143  0.86825  0.59727  1.0000
  H   H3319     1.0  0.30331  0.96665  0.77397  1.0000
  H   H3320     1.0  0.35834  0.89538  0.69736  1.0000
  H   H3321     1.0  0.16065  0.74166  0.65064  1.0000
  H   H3322     1.0  0.06258  0.97066  0.69262  1.0000
  H   H3323     1.0  0.45011  0.89492  0.61499  1.0000
  H   H3324     1.0  0.47443  0.94617  0.73092  1.0000
  H   H3325     1.0  0.18454  0.84451  0.59113  1.0000
  H   H3326     1.0  0.08720  0.94138  0.69180  1.0000
  H   H3327     1.0  0.13959  0.93770  0.58746  1.0000
  H   H3328     1.0  0.07496  0.90180  0.58971  1.0000
  H   H3329     1.0  0.12179  0.80540  0.63390  1.0000
  C   C2762     1.0  0.00401  0.80220  0.65522  1.0000
  C   C2763     1.0  0.48050  0.94299  0.71998  1.0000
  H   H3330     1.0  0.09273  0.80940  0.66101  1.0000
  C   C2764     1.0  0.43978  0.97813  0.72495  1.0000
  C   C2765     1.0  0.12861  0.95985  0.59344  1.0000
  C   C2766     1.0  0.26017  0.88886  0.76758  1.0000
  C   C2767     1.0  0.34376  0.84880  0.63080  1.0000
  C   C2768     1.0  0.11210  0.81593  0.63344  1.0000
  N   N185      1.0  0.47424  0.89707  0.60722  1.0000
  C   C2769     1.0  0.08467  0.94910  0.71857  1.0000
  H   H3331     1.0  0.16875  0.90569  0.62062  1.0000
  H   H3332     1.0  0.35468  0.94813  0.74669  1.0000
  S   S739      1.0  0.04861  0.96380  0.64290  1.0000
  H   H3333     1.0  0.45796  0.91666  0.61561  1.0000
  H   H3334     1.0  0.14568  0.86822  0.60097  1.0000
  C   C2770     1.0  0.34174  0.83747  0.64443  1.0000
  S   S740      1.0  0.07648  0.96135  0.60298  1.0000
  Fe  Fe366     1.0  0.46027  0.95372  0.77073  1.0000
  C   C2771     1.0  0.16878  0.75167  0.66465  1.0000
  H   H3335     1.0  0.33873  0.84965  0.58847  1.0000
  H   H3336     1.0  0.10146  0.79178  0.65449  1.0000
  H   H3337     1.0  0.06134  0.92007  0.58699  1.0000
  C   C2772     1.0  0.30644  0.97813  0.77145  1.0000
  C   C2773     1.0  0.16421  0.77151  0.69264  1.0000
  H   H3338     1.0  0.15750  0.85169  0.59335  1.0000
  Fe  Fe367     1.0  0.09070  0.73921  0.66192  1.0000
  H   H3339     1.0  0.48944  0.96846  0.67269  1.0000
  H   H3340     1.0  0.48845  0.86826  0.60082  1.0000
  S   S741      1.0  0.07869  0.73752  0.64458  1.0000
  C   C2774     1.0  0.23094  0.88165  0.59614  1.0000
  C   C2775     1.0  0.06548  0.75812  0.58760  1.0000
  H   H3341     1.0  0.23606  0.89211  0.59094  1.0000
  C   C2776     1.0  0.18932  0.85185  0.58041  1.0000
  Fe  Fe368     1.0  0.48403  0.97127  0.77024  1.0000
  C   C2777     1.0  0.15015  0.96920  0.63764  1.0000
  H   H3342     1.0  0.43563  0.97961  0.68909  1.0000
  C   C2778     1.0  0.46754  0.97585  0.68797  1.0000
  H   H3343     1.0  0.47756  0.91902  0.60854  1.0000
  Fe  Fe369     1.0  0.49184  0.94891  0.74922  1.0000
  H   H3344     1.0  0.42739  0.97733  0.72999  1.0000
  H   H3345     1.0  0.21515  0.81347  0.77325  1.0000
  C   C2779     1.0  0.46869  0.91405  0.60647  1.0000
  H   H3346     1.0  0.27145  0.80989  0.76460  1.0000
  H   H3347     1.0  0.06730  0.76184  0.59701  1.0000
  C   C2780     1.0  0.17126  0.97471  0.61583  1.0000
  C   C2781     1.0  0.43548  0.97494  0.70165  1.0000
  Fe  Fe370     1.0  0.37184  0.98042  0.69065  1.0000
  N   N186      1.0  0.16446  0.87333  0.58127  1.0000
  H   H3348     1.0  0.42297  0.97538  0.70759  1.0000
  H   H3349     1.0  0.26141  0.94878  0.58685  1.0000
  H   H3350     1.0  0.35338  0.87676  0.58018  1.0000
  C   C2782     1.0  0.48807  0.89310  0.59483  1.0000
  H   H3351     1.0  0.16885  0.73621  0.70304  1.0000
  C   C2783     1.0  0.16778  0.73756  0.69132  1.0000
  H   H3352     1.0  0.14168  0.88095  0.57562  1.0000
  H   H3353     1.0  0.30853  0.92508  0.77311  1.0000
  C   C2784     1.0  0.33232  0.92431  0.77298  1.0000
  S   S742      1.0  0.43410  0.95843  0.77528  1.0000
  C   C2785     1.0  0.46551  0.79861  0.90582  1.0000
  H   H3354     1.0  0.21803  0.74747  0.80509  1.0000
  H   H3355     1.0  0.40023  0.74764  0.95457  1.0000
  H   H3356     1.0  0.32377  0.79946  0.87901  1.0000
  C   C2786     1.0  0.22628  0.77378  0.80219  1.0000
  H   H3357     1.0  0.42086  0.74217  0.89067  1.0000
  H   H3358     1.0  0.24298  0.92619  0.89755  1.0000
  S   S743      1.0  0.30692  0.92096  0.82796  1.0000
  C   C2787     1.0  0.37065  0.78653  0.96003  1.0000
  H   H3359     1.0  0.34229  0.81329  0.88030  1.0000
  H   H3360     1.0  0.43983  0.79072  0.96041  1.0000
  H   H3361     1.0  0.31555  0.73401  0.93239  1.0000
  C   C2788     1.0  0.28452  0.85597  0.79438  1.0000
  S   S744      1.0  0.47620  0.76422  0.94107  1.0000
  C   C2789     1.0  0.48893  0.84500  0.93993  1.0000
  C   C2790     1.0  0.21888  0.74936  0.81622  1.0000
  H   H3362     1.0  0.24414  0.89018  0.78964  1.0000
  C   C2791     1.0  0.29404  0.75526  0.92182  1.0000
  H   H3363     1.0  0.27077  0.73408  0.91826  1.0000
  H   H3364     1.0  0.25628  0.84212  0.78872  1.0000
  S   S745      1.0  0.40532  0.76567  0.92285  1.0000
  C   C2792     1.0  0.28127  0.91216  0.91258  1.0000
  C   C2793     1.0  0.44104  0.73300  0.91287  1.0000
  S   S746      1.0  0.33396  0.75660  0.92594  1.0000
  H   H3365     1.0  0.45345  0.80895  0.96210  1.0000
  C   C2794     1.0  0.46075  0.82702  0.97391  1.0000
  C   C2795     1.0  0.33269  0.81743  0.88973  1.0000
  S   S747      1.0  0.36689  0.75297  0.94772  1.0000
  H   H3366     1.0  0.25496  0.94719  0.85796  1.0000
  H   H3367     1.0  0.27274  0.73721  0.93599  1.0000
  H   H3368     1.0  0.33354  0.82266  0.95950  1.0000
  Fe  Fe371     1.0  0.30972  0.91242  0.80660  1.0000
  H   H3369     1.0  0.31305  0.97381  0.80700  1.0000
  Fe  Fe372     1.0  0.29443  0.90157  0.84020  1.0000
  S   S748      1.0  0.30118  0.88569  0.86194  1.0000
  Fe  Fe373     1.0  0.27672  0.90777  0.81496  1.0000
  S   S749      1.0  0.25979  0.89890  0.80777  1.0000
  S   S750      1.0  0.29936  0.89177  0.81921  1.0000
  C   C2796     1.0  0.31297  0.82442  0.87362  1.0000
  H   H3370     1.0  0.43166  0.97529  0.79872  1.0000
  Fe  Fe374     1.0  0.48904  0.93654  0.78387  1.0000
  H   H3371     1.0  0.26952  0.96143  0.86498  1.0000
  C   C2797     1.0  0.30769  0.83409  0.89673  1.0000
  Fe  Fe375     1.0  0.24207  0.75480  0.86454  1.0000
  H   H3372     1.0  0.30435  0.96215  0.80075  1.0000
  H   H3373     1.0  0.23286  0.75194  0.83726  1.0000
  Fe  Fe376     1.0  0.26412  0.77223  0.86921  1.0000
  S   S751      1.0  0.28481  0.75926  0.85450  1.0000
  S   S752      1.0  0.27068  0.79043  0.87696  1.0000
  Fe  Fe377     1.0  0.26889  0.76327  0.83842  1.0000
  S   S753      1.0  0.27765  0.77072  0.81252  1.0000
  H   H3374     1.0  0.44497  0.74222  0.93020  1.0000
  N   N187      1.0  0.32003  0.82960  0.88341  1.0000
  S   S754      1.0  0.24881  0.77770  0.85219  1.0000
  S   S755      1.0  0.25532  0.75090  0.88308  1.0000
  Fe  Fe378     1.0  0.29333  0.83110  0.94449  1.0000
  S   S756      1.0  0.31909  0.82508  0.93472  1.0000
  Fe  Fe379     1.0  0.26248  0.85324  0.94045  1.0000
  S   S757      1.0  0.25094  0.87367  0.92426  1.0000
  Fe  Fe380     1.0  0.26468  0.81833  0.94974  1.0000
  S   S758      1.0  0.25561  0.79952  0.94575  1.0000
  S   S759      1.0  0.27704  0.83363  0.92946  1.0000
  C   C2798     1.0  0.26708  0.79147  0.89649  1.0000
  C   C2799     1.0  0.25519  0.78543  0.90783  1.0000
  C   C2800     1.0  0.25193  0.78767  0.92304  1.0000
  C   C2801     1.0  0.26059  0.79587  0.92695  1.0000
  C   C2802     1.0  0.27289  0.80129  0.91573  1.0000
  C   C2803     1.0  0.27596  0.79930  0.90053  1.0000
  H   H3375     1.0  0.24820  0.77944  0.90480  1.0000
  H   H3376     1.0  0.24246  0.78334  0.93171  1.0000
  H   H3377     1.0  0.28004  0.80704  0.91873  1.0000
  H   H3378     1.0  0.28522  0.80393  0.89186  1.0000
  C   C2804     1.0  0.25203  0.81467  0.78354  1.0000
  C   C2805     1.0  0.24558  0.80975  0.79934  1.0000
  C   C2806     1.0  0.25342  0.79643  0.80838  1.0000
  C   C2807     1.0  0.26769  0.78781  0.80164  1.0000
  C   C2808     1.0  0.27421  0.79280  0.78585  1.0000
  H   H3379     1.0  0.28138  0.95241  0.87895  1.0000
  H   H3380     1.0  0.23440  0.81621  0.80458  1.0000
  H   H3381     1.0  0.24833  0.79287  0.82052  1.0000
  H   H3382     1.0  0.37599  0.78385  0.94869  1.0000
  H   H3383     1.0  0.27641  0.86449  0.80110  1.0000
  C   C2809     1.0  0.28694  0.88372  0.87924  1.0000
  C   C2810     1.0  0.29173  0.87504  0.89289  1.0000
  C   C2811     1.0  0.28067  0.87214  0.90675  1.0000
  C   C2812     1.0  0.26475  0.87804  0.90705  1.0000
  C   C2813     1.0  0.25992  0.88708  0.89349  1.0000
  C   C2814     1.0  0.27103  0.88996  0.87956  1.0000
  H   H3384     1.0  0.30404  0.87047  0.89276  1.0000
  H   H3385     1.0  0.28449  0.86544  0.91726  1.0000
  H   H3386     1.0  0.24759  0.89166  0.89371  1.0000
  H   H3387     1.0  0.26723  0.89663  0.86906  1.0000
  C   C2815     1.0  0.26542  0.89664  0.78848  1.0000
  C   C2816     1.0  0.20803  0.74341  0.86218  1.0000
  C   C2817     1.0  0.30204  0.83523  0.86523  1.0000
  H   H3388     1.0  0.29316  0.93140  0.86613  1.0000
  S   S760      1.0  0.47250  0.77503  0.97333  1.0000
  C   C2818     1.0  0.48642  0.77731  0.89715  1.0000
  H   H3389     1.0  0.29214  0.92555  0.89153  1.0000
  Fe  Fe381     1.0  0.28359  0.93471  0.82330  1.0000
  H   H3390     1.0  0.26056  0.95818  0.88526  1.0000
  H   H3391     1.0  0.26637  0.75332  0.92109  1.0000
  C   C2819     1.0  0.28132  0.92212  0.89795  1.0000
  H   H3392     1.0  0.34872  0.79794  0.95411  1.0000
  H   H3393     1.0  0.49107  0.87589  0.88486  1.0000
  C   C2820     1.0  0.43101  0.75656  0.96148  1.0000
  C   C2821     1.0  0.27002  0.95303  0.87632  1.0000
  H   H3394     1.0  0.31229  0.83852  0.90425  1.0000
  C   C2822     1.0  0.24618  0.74966  0.80864  1.0000
  C   C2823     1.0  0.48134  0.79134  0.90250  1.0000
  C   C2824     1.0  0.20737  0.79799  0.79476  1.0000
  S   S761      1.0  0.48049  0.80611  0.93515  1.0000
  S   S762      1.0  0.24875  0.83824  0.95997  1.0000
  C   C2825     1.0  0.32931  0.82218  0.97216  1.0000
  Fe  Fe382     1.0  0.27506  0.73827  0.86716  1.0000
  H   H3395     1.0  0.28972  0.74004  0.89412  1.0000
  C   C2826     1.0  0.45432  0.79239  0.90352  1.0000
  H   H3396     1.0  0.29900  0.84742  0.86549  1.0000
  S   S763      1.0  0.33298  0.90968  0.78980  1.0000
  C   C2827     1.0  0.33000  0.77604  0.92702  1.0000
  C   C2828     1.0  0.31451  0.78427  0.93022  1.0000
  C   C2829     1.0  0.31122  0.79940  0.93242  1.0000
  C   C2830     1.0  0.32337  0.80646  0.93113  1.0000
  C   C2831     1.0  0.33890  0.79849  0.92723  1.0000
  C   C2832     1.0  0.34222  0.78322  0.92528  1.0000
  H   H3397     1.0  0.30502  0.77878  0.93164  1.0000
  H   H3398     1.0  0.29922  0.80540  0.93539  1.0000
  H   H3399     1.0  0.34836  0.80397  0.92598  1.0000
  H   H3400     1.0  0.35423  0.77698  0.92249  1.0000
  C   C2833     1.0  0.29783  0.81492  0.85594  1.0000
  C   C2834     1.0  0.48327  0.83463  0.93550  1.0000
  C   C2835     1.0  0.23691  0.77859  0.78814  1.0000
  Fe  Fe383     1.0  0.46598  0.75671  0.96634  1.0000
  C   C2836     1.0  0.43495  0.76699  0.94742  1.0000
  C   C2837     1.0  0.42658  0.77022  0.93583  1.0000
  C   C2838     1.0  0.41440  0.76288  0.93815  1.0000
  C   C2839     1.0  0.41004  0.75289  0.95242  1.0000
  N   N188      1.0  0.23029  0.75910  0.81357  1.0000
  H   H3401     1.0  0.47756  0.76136  0.88973  1.0000
  H   H3402     1.0  0.42979  0.77809  0.92492  1.0000
  H   H3403     1.0  0.18685  0.76118  0.86312  1.0000
  H   H3404     1.0  0.33320  0.84666  0.88115  1.0000
  H   H3405     1.0  0.24346  0.90897  0.92284  1.0000
  H   H3406     1.0  0.42875  0.73438  0.91827  1.0000
  C   C2840     1.0  0.44289  0.80756  0.97082  1.0000
  C   C2841     1.0  0.25396  0.91291  0.91591  1.0000
  N   N189      1.0  0.29108  0.74289  0.91625  1.0000
  C   C2842     1.0  0.37941  0.78184  0.97138  1.0000
  Fe  Fe384     1.0  0.48450  0.78128  0.94835  1.0000
  H   H3407     1.0  0.32344  0.79940  0.96423  1.0000
  H   H3408     1.0  0.26767  0.89944  0.93267  1.0000
  C   C2843     1.0  0.27456  0.74179  0.92320  1.0000
  C   C2844     1.0  0.23271  0.79263  0.77777  1.0000
  C   C2845     1.0  0.47474  0.77154  0.89446  1.0000
  H   H3409     1.0  0.30277  0.82395  0.90412  1.0000
  H   H3410     1.0  0.29785  0.84338  0.89297  1.0000
  H   H3411     1.0  0.29925  0.82813  0.78714  1.0000
  S   S764      1.0  0.28735  0.92789  0.80074  1.0000
  H   H3412     1.0  0.31058  0.79186  0.86379  1.0000
  C   C2846     1.0  0.26644  0.80624  0.77682  1.0000
  H   H3413     1.0  0.44206  0.79808  0.90612  1.0000
  H   H3414     1.0  0.29191  0.81119  0.84941  1.0000
  C   C2847     1.0  0.30845  0.80401  0.86404  1.0000
  H   H3415     1.0  0.29190  0.90790  0.91697  1.0000
  H   H3416     1.0  0.31779  0.85383  0.87120  1.0000
  S   S765      1.0  0.28019  0.85245  0.95356  1.0000
  S   S766      1.0  0.27068  0.91589  0.83724  1.0000
  H   H3417     1.0  0.25833  0.80969  0.85131  1.0000
  H   H3418     1.0  0.47441  0.83905  0.92868  1.0000
  H   H3419     1.0  0.20273  0.78105  0.81564  1.0000
  S   S767      1.0  0.28211  0.81428  0.96431  1.0000
  S   S768      1.0  0.37871  0.74406  0.91321  1.0000
  H   H3420     1.0  0.27547  0.79638  0.83071  1.0000
  H   H3421     1.0  0.30052  0.95155  0.83877  1.0000
  H   H3422     1.0  0.28634  0.83892  0.85020  1.0000
  C   C2848     1.0  0.29465  0.83050  0.85650  1.0000
  H   H3423     1.0  0.25469  0.85965  0.79434  1.0000
  H   H3424     1.0  0.46196  0.80907  0.91034  1.0000
  H   H3425     1.0  0.28590  0.76664  0.91875  1.0000
  H   H3426     1.0  0.32823  0.80729  0.89780  1.0000
  H   H3427     1.0  0.28825  0.86299  0.78251  1.0000
  C   C2849     1.0  0.25548  0.89178  0.78257  1.0000
  C   C2850     1.0  0.29309  0.74796  0.89915  1.0000
  H   H3428     1.0  0.28305  0.82591  0.78083  1.0000
  H   H3429     1.0  0.25177  0.92877  0.86989  1.0000
  S   S769      1.0  0.46960  0.95674  0.78946  1.0000
  C   C2851     1.0  0.29947  0.97173  0.84691  1.0000
  C   C2852     1.0  0.21136  0.78389  0.80515  1.0000
  H   H3430     1.0  0.25887  0.85385  0.82001  1.0000
  N   N190      1.0  0.26823  0.93761  0.87595  1.0000
  C   C2853     1.0  0.29458  0.96344  0.83910  1.0000
  H   H3431     1.0  0.45014  0.77410  0.89604  1.0000
  H   H3432     1.0  0.24745  0.74626  0.79759  1.0000
  H   H3433     1.0  0.28204  0.91834  0.86568  1.0000
  C   C2854     1.0  0.25393  0.94004  0.87008  1.0000
  C   C2855     1.0  0.26774  0.92741  0.89165  1.0000
  H   H3434     1.0  0.24343  0.94649  0.87711  1.0000
  Fe  Fe385     1.0  0.38908  0.74954  0.92979  1.0000
  C   C2856     1.0  0.26284  0.85094  0.78788  1.0000
  H   H3435     1.0  0.48451  0.85739  0.93641  1.0000
  C   C2857     1.0  0.27999  0.89887  0.77922  1.0000
  H   H3436     1.0  0.28565  0.75969  0.89566  1.0000
  C   C2858     1.0  0.30669  0.97398  0.79823  1.0000
  C   C2859     1.0  0.28837  0.83443  0.78294  1.0000
  H   H3437     1.0  0.28525  0.78618  0.78054  1.0000
  H   H3438     1.0  0.25045  0.83833  0.84588  1.0000
  C   C2860     1.0  0.28171  0.93077  0.86466  1.0000
  H   H3439     1.0  0.28429  0.81097  0.80493  1.0000
  C   C2861     1.0  0.31592  0.80859  0.87281  1.0000
  C   C2862     1.0  0.26763  0.90749  0.92150  1.0000
  H   H3440     1.0  0.33797  0.82181  0.89676  1.0000
  C   C2863     1.0  0.41829  0.74981  0.96411  1.0000
  C   C2864     1.0  0.32681  0.84325  0.87439  1.0000
  C   C2865     1.0  0.18505  0.74263  0.85428  1.0000
  S   S770      1.0  0.27364  0.96000  0.82424  1.0000
  C   C2866     1.0  0.19277  0.75009  0.86015  1.0000
  H   H3441     1.0  0.28117  0.93690  0.85249  1.0000
  N   N191      1.0  0.24297  0.84401  0.89468  1.0000
  C   C2867     1.0  0.22862  0.85254  0.90371  1.0000
  C   C2868     1.0  0.23993  0.82954  0.89311  1.0000
  C   C2869     1.0  0.25515  0.83935  0.90391  1.0000
  C   C2870     1.0  0.24747  0.85391  0.87911  1.0000
  C   C2871     1.0  0.23716  0.85913  0.86876  1.0000
  C   C2872     1.0  0.26192  0.85877  0.87380  1.0000
  C   C2873     1.0  0.24105  0.86863  0.85406  1.0000
  C   C2874     1.0  0.26574  0.86815  0.85902  1.0000
  C   C2875     1.0  0.25532  0.87309  0.84922  1.0000
  H   H3442     1.0  0.21843  0.85552  0.89828  1.0000
  H   H3443     1.0  0.22515  0.84557  0.91568  1.0000
  H   H3444     1.0  0.23050  0.86358  0.90494  1.0000
  H   H3445     1.0  0.22964  0.83178  0.88800  1.0000
  H   H3446     1.0  0.23755  0.82132  0.90457  1.0000
  H   H3447     1.0  0.25021  0.82328  0.88563  1.0000
  H   H3448     1.0  0.25742  0.84965  0.90627  1.0000
  H   H3449     1.0  0.25147  0.83179  0.91550  1.0000
  H   H3450     1.0  0.26628  0.83266  0.89798  1.0000
  H   H3451     1.0  0.22592  0.85602  0.87204  1.0000
  H   H3452     1.0  0.27036  0.85578  0.88094  1.0000
  H   H3453     1.0  0.23292  0.87270  0.84639  1.0000
  H   H3454     1.0  0.27672  0.87192  0.85524  1.0000
  H   H3455     1.0  0.25823  0.88061  0.83791  1.0000
  N   N192      1.0  0.27719  0.84360  0.79402  1.0000
  C   C2876     1.0  0.22964  0.76268  0.82848  1.0000
  C   C2877     1.0  0.25391  0.92272  0.90122  1.0000
  S   S771      1.0  0.26122  0.74066  0.84962  1.0000
  C   C2878     1.0  0.27286  0.83413  0.80985  1.0000
  C   C2879     1.0  0.26309  0.84137  0.82202  1.0000
  C   C2880     1.0  0.27728  0.81761  0.81346  1.0000
  C   C2881     1.0  0.25809  0.83261  0.83684  1.0000
  C   C2882     1.0  0.27220  0.80899  0.82832  1.0000
  C   C2883     1.0  0.26254  0.81646  0.83994  1.0000
  H   H3456     1.0  0.44438  0.77264  0.94541  1.0000
  H   H3457     1.0  0.33513  0.84081  0.86348  1.0000
  C   C2884     1.0  0.45891  0.77890  0.89782  1.0000
  C   C2885     1.0  0.21806  0.80236  0.78113  1.0000
  H   H3458     1.0  0.32812  0.95438  0.78364  1.0000
  C   C2886     1.0  0.33047  0.96629  0.78031  1.0000
  Fe  Fe386     1.0  0.35712  0.74508  0.93216  1.0000
  H   H3459     1.0  0.30893  0.96605  0.85288  1.0000
  C   C2887     1.0  0.28168  0.97045  0.83226  1.0000
  H   H3460     1.0  0.45945  0.83131  0.96167  1.0000
  H   H3461     1.0  0.23786  0.77018  0.82692  1.0000
  H   H3462     1.0  0.21778  0.76870  0.83378  1.0000
  H   H3463     1.0  0.33817  0.96657  0.78765  1.0000
  H   H3464     1.0  0.24866  0.77195  0.78501  1.0000
  H   H3465     1.0  0.48950  0.79684  0.90429  1.0000
  C   C2888     1.0  0.43509  0.79702  0.96962  1.0000
  H   H3466     1.0  0.25542  0.75604  0.80716  1.0000
  C   C2889     1.0  0.35501  0.79447  0.96329  1.0000
  H   H3467     1.0  0.17329  0.74811  0.85268  1.0000
  H   H3468     1.0  0.20693  0.75459  0.82213  1.0000
  H   H3469     1.0  0.47331  0.73915  0.91964  1.0000
  H   H3470     1.0  0.29499  0.85095  0.79955  1.0000
  S   S772      1.0  0.48733  0.73851  0.97111  1.0000
  H   H3471     1.0  0.28775  0.90259  0.78369  1.0000
  S   S773      1.0  0.21661  0.75368  0.87000  1.0000
  H   H3472     1.0  0.29239  0.75245  0.93468  1.0000
  H   H3473     1.0  0.24883  0.73872  0.81746  1.0000
  H   H3474     1.0  0.31687  0.82866  0.97390  1.0000
  H   H3475     1.0  0.22220  0.73773  0.82383  1.0000
  H   H3476     1.0  0.19602  0.80566  0.79737  1.0000
  H   H3477     1.0  0.44605  0.73332  0.86939  1.0000
  N   N193      1.0  0.31579  0.97839  0.78216  1.0000
  H   H3478     1.0  0.30545  0.74849  0.89341  1.0000
  H   H3479     1.0  0.30607  0.75723  0.91650  1.0000
  C   C2890     1.0  0.48872  0.81860  0.94018  1.0000
  H   H3480     1.0  0.26554  0.85696  0.77545  1.0000
  C   C2891     1.0  0.46625  0.73583  0.91395  1.0000
  C   C2892     1.0  0.45023  0.73757  0.91989  1.0000
  H   H3481     1.0  0.43280  0.84618  0.97057  1.0000
  Fe  Fe387     1.0  0.26760  0.83582  0.97248  1.0000
  H   H3482     1.0  0.39144  0.77551  0.96892  1.0000
  H   H3483     1.0  0.41487  0.74210  0.97513  1.0000
  H   H3484     1.0  0.46874  0.81529  0.97506  1.0000
  C   C2893     1.0  0.59251  0.03177  0.16280  1.0000
  H   H3485     1.0  0.61475  0.22082  0.14667  1.0000
  C   C2894     1.0  0.58957  0.18375  0.98967  1.0000
  S   S774      1.0  0.55530  0.10697  0.16818  1.0000
  C   C2895     1.0  0.62028  0.00412  0.12931  1.0000
  Fe  Fe388     1.0  0.58071  0.09693  0.16048  1.0000
  C   C2896     1.0  0.58302  0.15882  0.99391  1.0000
  H   H3486     1.0  0.56514  0.04295  0.14093  1.0000
  Fe  Fe389     1.0  0.60792  0.09151  0.13350  1.0000
  S   S775      1.0  0.62355  0.07528  0.14890  1.0000
  S   S776      1.0  0.61315  0.09586  0.10757  1.0000
  Fe  Fe390     1.0  0.60242  0.06538  0.16193  1.0000
  H   H3487     1.0  0.61200  0.98810  0.12214  1.0000
  Fe  Fe391     1.0  0.61366  0.09312  0.16362  1.0000
  H   H3488     1.0  0.62629  0.02199  0.13512  1.0000
  S   S777      1.0  0.58781  0.08017  0.14504  1.0000
  S   S778      1.0  0.59936  0.11006  0.14727  1.0000
  Fe  Fe392     1.0  0.59995  0.17878  0.06842  1.0000
  S   S779      1.0  0.60381  0.19975  0.04948  1.0000
  S   S780      1.0  0.61786  0.16574  0.08267  1.0000
  Fe  Fe393     1.0  0.56529  0.18519  0.06863  1.0000
  S   S781      1.0  0.56618  0.20712  0.05027  1.0000
  S   S782      1.0  0.54399  0.17574  0.08194  1.0000
  Fe  Fe394     1.0  0.58829  0.19281  0.03857  1.0000
  Fe  Fe395     1.0  0.58150  0.21177  0.06290  1.0000
  H   H3489     1.0  0.62479  0.99534  0.13862  1.0000
  S   S783      1.0  0.58657  0.17048  0.05642  1.0000
  S   S784      1.0  0.57838  0.19128  0.08237  1.0000
  H   H3490     1.0  0.62632  0.06505  0.09491  1.0000
  C   C2897     1.0  0.52877  0.21431  0.09968  1.0000
  C   C2898     1.0  0.52627  0.18823  0.07855  1.0000
  C   C2899     1.0  0.51240  0.18634  0.08951  1.0000
  C   C2900     1.0  0.49848  0.19750  0.08814  1.0000
  C   C2901     1.0  0.49842  0.21055  0.07582  1.0000
  C   C2902     1.0  0.51206  0.21195  0.06439  1.0000
  C   C2903     1.0  0.52597  0.20079  0.06576  1.0000
  H   H3491     1.0  0.51256  0.17667  0.09944  1.0000
  H   H3492     1.0  0.61447  0.04800  0.13630  1.0000
  H   H3493     1.0  0.51191  0.22158  0.05447  1.0000
  H   H3494     1.0  0.53642  0.20193  0.05690  1.0000
  C   C2904     1.0  0.61637  0.11464  0.09966  1.0000
  C   C2905     1.0  0.61288  0.12273  0.08527  1.0000
  C   C2906     1.0  0.61356  0.13844  0.07981  1.0000
  C   C2907     1.0  0.61820  0.14586  0.08854  1.0000
  C   C2908     1.0  0.62254  0.13750  0.10249  1.0000
  C   C2909     1.0  0.62138  0.12196  0.10818  1.0000
  H   H3495     1.0  0.60925  0.11702  0.07851  1.0000
  H   H3496     1.0  0.61062  0.14476  0.06881  1.0000
  H   H3497     1.0  0.62661  0.14308  0.10898  1.0000
  H   H3498     1.0  0.62453  0.11560  0.11909  1.0000
  C   C2910     1.0  0.61580  0.22293  0.08955  1.0000
  C   C2911     1.0  0.62166  0.05112  0.12438  1.0000
  S   S785      1.0  0.59207  0.19594  0.01262  1.0000
  H   H3499     1.0  0.65126  0.18016  0.14447  1.0000
  N   N194      1.0  0.64280  0.16362  0.17429  1.0000
  H   H3500     1.0  0.60889  0.21456  0.07329  1.0000
  H   H3501     1.0  0.52680  0.04310  0.15043  1.0000
  S   S786      1.0  0.56980  0.01268  0.13601  1.0000
  C   C2912     1.0  0.58671  0.17248  0.98382  1.0000
  H   H3502     1.0  0.50853  0.05103  0.16234  1.0000
  H   H3503     1.0  0.52107  0.21018  0.09506  1.0000
  H   H3504     1.0  0.65062  0.14007  0.17086  1.0000
  H   H3505     1.0  0.52529  0.21104  0.11255  1.0000
  C   C2913     1.0  0.57781  0.01942  0.14745  1.0000
  C   C2914     1.0  0.60118  0.15208  0.17115  1.0000
  H   H3506     1.0  0.57902  0.14610  0.01767  1.0000
  C   C2915     1.0  0.61480  0.03143  0.11531  1.0000
  H   H3507     1.0  0.51567  0.16410  0.99482  1.0000
  C   C2916     1.0  0.49450  0.19117  0.99146  1.0000
  S   S787      1.0  0.55123  0.98213  0.13196  1.0000
  H   H3508     1.0  0.57957  0.21978  0.98911  1.0000
  H   H3509     1.0  0.52991  0.01003  0.16818  1.0000
  H   H3510     1.0  0.53018  0.23055  0.07027  1.0000
  C   C2917     1.0  0.64058  0.18593  0.15113  1.0000
  C   C2918     1.0  0.59940  0.05795  0.11301  1.0000
  H   H3511     1.0  0.63749  0.04533  0.09634  1.0000
  H   H3512     1.0  0.50766  0.16725  0.97820  1.0000
  H   H3513     1.0  0.54680  0.20887  0.00631  1.0000
  H   H3514     1.0  0.54256  0.04434  0.16731  1.0000
  N   N195      1.0  0.51088  0.18805  0.98240  1.0000
  C   C2919     1.0  0.52636  0.21460  0.99674  1.0000
  C   C2920     1.0  0.53975  0.20475  0.00128  1.0000
  C   C2921     1.0  0.53493  0.01764  0.17202  1.0000
  H   H3515     1.0  0.59127  0.05423  0.12411  1.0000
  C   C2922     1.0  0.62106  0.01960  0.12713  1.0000
  N   N196      1.0  0.61535  0.04796  0.11264  1.0000
  H   H3516     1.0  0.63425  0.15151  0.16268  1.0000
  C   C2923     1.0  0.61358  0.20267  0.16742  1.0000
  H   H3517     1.0  0.60310  0.03498  0.09648  1.0000
  H   H3518     1.0  0.54807  0.22863  0.07568  1.0000
  C   C2924     1.0  0.60701  0.01126  0.10827  1.0000
  C   C2925     1.0  0.51723  0.20916  0.99042  1.0000
  H   H3519     1.0  0.60507  0.00817  0.16953  1.0000
  C   C2926     1.0  0.61310  1.00000  0.12004  1.0000
  H   H3520     1.0  0.66587  0.16836  0.16405  1.0000
  S   S788      1.0  0.62985  0.10153  0.17232  1.0000
  H   H3521     1.0  0.59931  0.07035  0.11187  1.0000
  C   C2927     1.0  0.58861  0.00951  0.15605  1.0000
  C   C2928     1.0  0.53497  0.18390  0.99321  1.0000
  C   C2929     1.0  0.59614  0.01573  0.16353  1.0000
  C   C2930     1.0  0.58446  0.16804  0.01570  1.0000
  C   C2931     1.0  0.63447  0.17900  0.16676  1.0000
  H   H3522     1.0  0.60119  0.00804  0.10127  1.0000
  H   H3523     1.0  0.55457  0.18191  0.00291  1.0000
  H   H3524     1.0  0.62172  0.06365  0.12218  1.0000
  H   H3525     1.0  0.56783  0.22702  0.11812  1.0000
  H   H3526     1.0  0.62710  0.21496  0.08880  1.0000
  H   H3527     1.0  0.58353  0.16623  0.02798  1.0000
  H   H3528     1.0  0.54070  0.20740  0.09582  1.0000
  C   C2932     1.0  0.58844  0.18157  0.00563  1.0000
  C   C2933     1.0  0.58189  0.15664  0.00984  1.0000
  C   C2934     1.0  0.60548  0.22268  0.08079  1.0000
  H   H3529     1.0  0.59287  0.19407  0.98178  1.0000
  H   H3530     1.0  0.53912  0.17193  0.99215  1.0000
  C   C2935     1.0  0.51565  0.17112  0.98280  1.0000
  N   N197      1.0  0.60453  0.18219  0.12539  1.0000
  C   C2936     1.0  0.59547  0.17766  0.11695  1.0000
  C   C2937     1.0  0.59812  0.19898  0.12530  1.0000
  C   C2938     1.0  0.62102  0.18040  0.11659  1.0000
  C   C2939     1.0  0.60372  0.17210  0.14117  1.0000
  C   C2940     1.0  0.60863  0.15569  0.14320  1.0000
  C   C2941     1.0  0.59790  0.17806  0.15488  1.0000
  C   C2942     1.0  0.60729  0.14587  0.15798  1.0000
  C   C2943     1.0  0.59660  0.16812  0.16961  1.0000
  H   H3531     1.0  0.60343  0.20948  0.17389  1.0000
  H   H3532     1.0  0.58301  0.17859  0.12317  1.0000
  H   H3533     1.0  0.59587  0.18514  0.10507  1.0000
  H   H3534     1.0  0.60027  0.16561  0.11518  1.0000
  H   H3535     1.0  0.58575  0.20120  0.13181  1.0000
  H   H3536     1.0  0.59813  0.20608  0.11331  1.0000
  H   H3537     1.0  0.60523  0.20372  0.13012  1.0000
  H   H3538     1.0  0.62629  0.16838  0.11486  1.0000
  H   H3539     1.0  0.62200  0.18802  0.10469  1.0000
  H   H3540     1.0  0.62837  0.18348  0.12257  1.0000
  H   H3541     1.0  0.61341  0.15029  0.13336  1.0000
  H   H3542     1.0  0.59419  0.19036  0.15457  1.0000
  H   H3543     1.0  0.54530  0.01995  0.16262  1.0000
  C   C2944     1.0  0.62542  0.05270  0.09720  1.0000
  H   H3544     1.0  0.52296  0.22648  0.99824  1.0000
  N   N198      1.0  0.56487  0.13003  0.10986  1.0000
  C   C2945     1.0  0.57001  0.14429  0.09987  1.0000
  C   C2946     1.0  0.57264  0.12488  0.12319  1.0000
  C   C2947     1.0  0.57048  0.11761  0.10098  1.0000
  C   C2948     1.0  0.54758  0.13316  0.11453  1.0000
  C   C2949     1.0  0.53933  0.13003  0.13028  1.0000
  C   C2950     1.0  0.53845  0.13923  0.10310  1.0000
  C   C2951     1.0  0.52298  0.13307  0.13422  1.0000
  C   C2952     1.0  0.52212  0.14230  0.10716  1.0000
  C   C2953     1.0  0.51439  0.13925  0.12269  1.0000
  H   H3545     1.0  0.56715  0.14740  0.08825  1.0000
  H   H3546     1.0  0.56434  0.15447  0.10530  1.0000
  H   H3547     1.0  0.58289  0.14295  0.09758  1.0000
  H   H3548     1.0  0.56892  0.13371  0.13041  1.0000
  H   H3549     1.0  0.58560  0.12290  0.11924  1.0000
  H   H3550     1.0  0.57013  0.11364  0.13073  1.0000
  H   H3551     1.0  0.56619  0.12111  0.09005  1.0000
  H   H3552     1.0  0.58347  0.11457  0.09760  1.0000
  H   H3553     1.0  0.56653  0.10682  0.10797  1.0000
  H   H3554     1.0  0.54519  0.12526  0.13984  1.0000
  H   H3555     1.0  0.54388  0.14191  0.09089  1.0000
  H   H3556     1.0  0.51698  0.13063  0.14632  1.0000
  H   H3557     1.0  0.51546  0.14728  0.09816  1.0000
  H   H3558     1.0  0.50172  0.14172  0.12579  1.0000
  C   C2954     1.0  0.52105  0.19356  0.98875  1.0000
  C   C2955     1.0  0.54410  0.18950  0.99940  1.0000
  C   C2956     1.0  0.58079  0.04137  0.15525  1.0000
  H   H3559     1.0  0.57721  0.05352  0.15539  1.0000
  H   H3560     1.0  0.62083  0.05175  0.08761  1.0000
  N   N199      1.0  0.52359  0.03224  0.17480  1.0000
  C   C2957     1.0  0.57371  0.03529  0.14732  1.0000
  C   C2958     1.0  0.60798  0.02672  0.10579  1.0000
  H   H3561     1.0  0.61100  0.13334  0.15925  1.0000
  H   H3562     1.0  0.65361  0.15452  0.15350  1.0000
  H   H3563     1.0  0.59173  0.99720  0.15627  1.0000
  H   H3564     1.0  0.63400  0.04475  0.12419  1.0000
  S   S789      1.0  0.57964  0.14436  0.98694  1.0000
  H   H3565     1.0  0.51153  0.03262  0.15754  1.0000
  C   C2959     1.0  0.64543  0.15201  0.16489  1.0000
  C   C2960     1.0  0.62072  0.18788  0.17474  1.0000
  H   H3566     1.0  0.59437  0.05775  0.10344  1.0000
  H   H3567     1.0  0.55587  0.21817  0.10255  1.0000
  H   H3568     1.0  0.50706  0.21726  0.98691  1.0000
  C   C2961     1.0  0.63340  0.20077  0.14398  1.0000
  C   C2962     1.0  0.51733  0.04010  0.16067  1.0000
  H   H3569     1.0  0.63849  0.20606  0.13217  1.0000
  Fe  Fe396     1.0  0.56695  0.98793  0.14337  1.0000
  C   C2963     1.0  0.61997  0.20913  0.15213  1.0000
  S   S790      1.0  0.60305  0.03965  0.17093  1.0000
  C   C2964     1.0  0.56957  0.22706  0.98448  1.0000
  H   H3570     1.0  0.56643  0.07384  0.17237  1.0000
  H   H3571     1.0  0.49387  0.18596  0.00404  1.0000
  C   C2965     1.0  0.54963  0.22860  0.10670  1.0000
  N   N200      1.0  0.52754  0.23135  0.09406  1.0000
  H   H3572     1.0  0.52745  0.16796  0.97536  1.0000
  Fe  Fe397     1.0  0.61345  0.14471  0.23778  1.0000
  S   S791      1.0  0.60349  0.17026  0.23116  1.0000
  S   S792      1.0  0.60133  0.12920  0.23236  1.0000
  Fe  Fe398     1.0  0.63327  0.14950  0.25759  1.0000
  S   S793      1.0  0.62470  0.17537  0.25231  1.0000
  S   S794      1.0  0.64667  0.13769  0.27658  1.0000
  Fe  Fe399     1.0  0.60118  0.17018  0.25606  1.0000
  S   S795      1.0  0.57877  0.18089  0.27081  1.0000
  Fe  Fe400     1.0  0.62798  0.17276  0.22801  1.0000
  S   S796      1.0  0.63963  0.18822  0.20690  1.0000
  S   S797      1.0  0.60949  0.14447  0.26288  1.0000
  S   S798      1.0  0.63839  0.14698  0.23285  1.0000
  H   H3573     1.0  0.54735  0.13673  0.29525  1.0000
  H   H3574     1.0  0.80561  0.12303  0.28646  1.0000
  C   C2966     1.0  0.50184  0.01803  0.18829  1.0000
  H   H3575     1.0  0.59065  0.14157  0.37432  1.0000
  C   C2967     1.0  0.64744  0.17756  0.31006  1.0000
  Fe  Fe401     1.0  0.67485  0.17598  0.33953  1.0000
  S   S799      1.0  0.64882  0.17875  0.34863  1.0000
  Fe  Fe402     1.0  0.70708  0.15563  0.33986  1.0000
  S   S800      1.0  0.50263  0.11293  0.36353  1.0000
  S   S801      1.0  0.72045  0.13539  0.35466  1.0000
  Fe  Fe403     1.0  0.69691  0.16975  0.30940  1.0000
  S   S802      1.0  0.69559  0.16999  0.28525  1.0000
  S   S803      1.0  0.69401  0.17629  0.35024  1.0000
  S   S804      1.0  0.68703  0.15405  0.33124  1.0000
  Fe  Fe404     1.0  0.79313  0.05562  0.35833  1.0000
  S   S805      1.0  0.78066  0.04529  0.34740  1.0000
  H   H3576     1.0  0.51648  0.99444  0.21444  1.0000
  Fe  Fe405     1.0  0.81152  0.07060  0.32776  1.0000
  S   S806      1.0  0.80106  0.06110  0.31392  1.0000
  S   S807      1.0  0.82695  0.08793  0.31654  1.0000
  Fe  Fe406     1.0  0.77845  0.06817  0.33039  1.0000
  S   S808      1.0  0.75659  0.08028  0.32145  1.0000
  Fe  Fe407     1.0  0.80414  0.03891  0.33207  1.0000
  S   S809      1.0  0.81197  0.01446  0.32820  1.0000
  S   S810      1.0  0.78860  0.07929  0.34287  1.0000
  S   S811      1.0  0.81698  0.04766  0.34433  1.0000
  C   C2968     1.0  0.78157  0.17016  0.30959  1.0000
  C   C2969     1.0  0.93822  0.15762  0.36038  1.0000
  H   H3577     1.0  0.82618  0.09324  0.36821  1.0000
  C   C2970     1.0  0.74352  0.98253  0.36785  1.0000
  H   H3578     1.0  0.62803  0.10339  0.37144  1.0000
  C   C2971     1.0  0.80140  0.99060  0.32519  1.0000
  H   H3579     1.0  0.81441  0.21180  0.30534  1.0000
  C   C2972     1.0  0.50386  0.10793  0.28834  1.0000
  Fe  Fe408     1.0  0.54042  0.12682  0.34061  1.0000
  S   S812      1.0  0.54023  0.10563  0.35990  1.0000
  S   S813      1.0  0.56472  0.13096  0.33256  1.0000
  H   H3580     1.0  0.79106  0.09502  0.29002  1.0000
  C   C2973     1.0  0.84476  0.21800  0.29863  1.0000
  H   H3581     1.0  0.76718  0.11112  0.36294  1.0000
  H   H3582     1.0  0.59873  0.09168  0.24186  1.0000
  S   S814      1.0  0.52013  0.14217  0.35317  1.0000
  C   C2974     1.0  0.72926  0.22785  0.33002  1.0000
  H   H3583     1.0  0.80218  0.17362  0.31338  1.0000
  C   C2975     1.0  0.96890  0.22581  0.34118  1.0000
  H   H3584     1.0  0.58484  0.98946  0.18810  1.0000
  Fe  Fe409     1.0  0.51895  0.05974  0.23959  1.0000
  S   S815      1.0  0.52540  0.04648  0.26219  1.0000
  S   S816      1.0  0.53152  0.05113  0.21791  1.0000
  C   C2976     1.0  0.73973  0.04265  0.33747  1.0000
  Fe  Fe410     1.0  0.52283  0.06991  0.26667  1.0000
  S   S817      1.0  0.54104  0.07666  0.27403  1.0000
  C   C2977     1.0  0.55414  0.01200  0.20802  1.0000
  S   S818      1.0  0.51873  0.08291  0.24313  1.0000
  H   H3585     1.0  0.58715  0.11908  0.21400  1.0000
  H   H3586     1.0  0.53353  0.14804  0.27604  1.0000
  H   H3587     1.0  0.63621  0.21648  0.30743  1.0000
  C   C2978     1.0  0.74202  0.20253  0.35126  1.0000
  S   S819      1.0  0.76070  0.98460  0.32025  1.0000
  H   H3588     1.0  0.86995  0.10029  0.37474  1.0000
  Fe  Fe411     1.0  0.84701  0.14207  0.35642  1.0000
  S   S820      1.0  0.86777  0.14632  0.33711  1.0000
  C   C2979     1.0  0.76759  0.20046  0.31328  1.0000
  H   H3589     1.0  0.55755  0.15348  0.27048  1.0000
  Fe  Fe412     1.0  0.85437  0.17118  0.33351  1.0000
  Fe  Fe413     1.0  0.49343  0.08381  0.25417  1.0000
  Fe  Fe414     1.0  0.87663  0.15252  0.35462  1.0000
  H   H3590     1.0  0.91156  0.10287  0.33895  1.0000
  H   H3591     1.0  0.57675  0.01545  0.19439  1.0000
  H   H3592     1.0  0.97687  0.22362  0.33041  1.0000
  H   H3593     1.0  0.64417  0.21149  0.17876  1.0000
  H   H3594     1.0  0.53256  0.00598  0.22071  1.0000
  C   C2980     1.0  0.60195  0.06480  0.21480  1.0000
  H   H3595     1.0  0.67090  0.13327  0.36613  1.0000
  C   C2981     1.0  0.76866  0.11961  0.29000  1.0000
  H   H3596     1.0  0.79509  0.10048  0.36613  1.0000
  Fe  Fe415     1.0  0.70404  0.18989  0.32691  1.0000
  H   H3597     1.0  0.72575  0.07438  0.34030  1.0000
  H   H3598     1.0  0.57421  0.10401  0.27820  1.0000
  H   H3599     1.0  0.65940  0.17642  0.31164  1.0000
  H   H3600     1.0  0.56634  0.12611  0.29786  1.0000
  C   C2982     1.0  0.52920  0.07653  0.32569  1.0000
  H   H3601     1.0  0.64074  0.14582  0.19539  1.0000
  C   C2983     1.0  0.52584  0.06792  0.30437  1.0000
  C   C2984     1.0  0.53676  0.07609  0.29400  1.0000
  C   C2985     1.0  0.54419  0.08417  0.29953  1.0000
  C   C2986     1.0  0.54032  0.08452  0.31534  1.0000
  C   C2987     1.0  0.49895  0.01063  0.25015  1.0000
  H   H3602     1.0  0.52032  0.06140  0.30021  1.0000
  H   H3603     1.0  0.55276  0.09033  0.29156  1.0000
  H   H3604     1.0  0.54603  0.09080  0.31957  1.0000
  C   C2988     1.0  0.82935  0.09736  0.32963  1.0000
  C   C2989     1.0  0.82582  0.09119  0.34559  1.0000
  C   C2990     1.0  0.82845  0.09837  0.35591  1.0000
  C   C2991     1.0  0.83426  0.11196  0.35041  1.0000
  C   C2992     1.0  0.83757  0.11833  0.33446  1.0000
  C   C2993     1.0  0.83519  0.11097  0.32408  1.0000
  H   H3605     1.0  0.82149  0.08061  0.34996  1.0000
  H   H3606     1.0  0.73337  0.03907  0.33083  1.0000
  H   H3607     1.0  0.84213  0.12877  0.33013  1.0000
  H   H3608     1.0  0.83804  0.11573  0.31172  1.0000
  C   C2994     1.0  0.77533  0.99282  0.32183  1.0000
  H   H3609     1.0  0.74052  0.01894  0.36148  1.0000
  H   H3610     1.0  0.51683  0.10832  0.30435  1.0000
  C   C2995     1.0  0.79779  0.00639  0.32555  1.0000
  C   C2996     1.0  0.78295  0.01541  0.32393  1.0000
  C   C2997     1.0  0.77180  0.00864  0.32200  1.0000
  H   H3611     1.0  0.85199  0.21556  0.28770  1.0000
  C   C2998     1.0  0.56883  0.00757  0.19878  1.0000
  H   H3612     1.0  0.78021  0.02765  0.32386  1.0000
  H   H3613     1.0  0.76042  0.01568  0.32050  1.0000
  C   C2999     1.0  0.72911  0.11958  0.34584  1.0000
  C   C3000     1.0  0.72712  0.12000  0.33119  1.0000
  C   C3001     1.0  0.73512  0.10758  0.32393  1.0000
  C   C3002     1.0  0.74550  0.09509  0.33108  1.0000
  C   C3003     1.0  0.74701  0.09447  0.34592  1.0000
  C   C3004     1.0  0.73857  0.10656  0.35340  1.0000
  H   H3614     1.0  0.71962  0.12996  0.32537  1.0000
  H   H3615     1.0  0.73361  0.10789  0.31259  1.0000
  H   H3616     1.0  0.75457  0.08462  0.35170  1.0000
  H   H3617     1.0  0.73945  0.10590  0.36502  1.0000
  H   H3618     1.0  0.50461  0.01212  0.17890  1.0000
  C   C3005     1.0  0.83419  0.20915  0.32597  1.0000
  H   H3619     1.0  0.51424  0.10375  0.28012  1.0000
  C   C3006     1.0  0.68668  0.06140  0.35942  1.0000
  H   H3620     1.0  0.65295  0.20327  0.31337  1.0000
  H   H3621     1.0  0.90778  0.07720  0.35764  1.0000
  S   S821      1.0  0.49326  0.06179  0.24847  1.0000
  C   C3007     1.0  0.73153  0.20087  0.34348  1.0000
  H   H3622     1.0  0.64601  0.21021  0.28127  1.0000
  C   C3008     1.0  0.86789  0.22238  0.33364  1.0000
  C   C3009     1.0  0.60567  0.11165  0.19536  1.0000
  C   C3010     1.0  0.87244  0.20954  0.35921  1.0000
  H   H3623     1.0  0.58614  0.11681  0.27734  1.0000
  H   H3624     1.0  0.61553  0.18394  0.18683  1.0000
  C   C3011     1.0  0.50562  0.03621  0.20080  1.0000
  N   N201      1.0  0.78278  0.11755  0.29600  1.0000
  C   C3012     1.0  0.63262  0.21522  0.18557  1.0000
  H   H3625     1.0  0.51391  0.06152  0.32831  1.0000
  C   C3013     1.0  0.82549  0.22428  0.32669  1.0000
  H   H3626     1.0  0.78959  0.13809  0.28058  1.0000
  C   C3014     1.0  0.94876  0.23030  0.36937  1.0000
  C   C3015     1.0  0.72515  0.21356  0.33280  1.0000
  C   C3016     1.0  0.77950  0.12394  0.30996  1.0000
  C   C3017     1.0  0.62164  0.10980  0.18862  1.0000
  H   H3627     1.0  0.80361  0.11669  0.31288  1.0000
  N   N202      1.0  0.64059  0.19371  0.30277  1.0000
  H   H3628     1.0  0.64373  0.11285  0.18995  1.0000
  H   H3629     1.0  0.75047  0.03935  0.36329  1.0000
  C   C3018     1.0  0.55007  0.06374  0.19141  1.0000
  C   C3019     1.0  0.53647  0.06657  0.20276  1.0000
  C   C3020     1.0  0.52786  0.08181  0.20274  1.0000
  C   C3021     1.0  0.53324  0.09429  0.19167  1.0000
  C   C3022     1.0  0.90208  0.10856  0.34749  1.0000
  H   H3630     1.0  0.55681  0.05200  0.19137  1.0000
  H   H3631     1.0  0.51714  0.08402  0.21134  1.0000
  C   C3023     1.0  0.62742  0.20597  0.20009  1.0000
  C   C3024     1.0  0.61247  0.21082  0.20884  1.0000
  H   H3632     1.0  0.60843  0.20383  0.22012  1.0000
  H   H3633     1.0  0.75998  0.11341  0.29876  1.0000
  C   C3025     1.0  0.66036  0.14672  0.27867  1.0000
  C   C3026     1.0  0.66457  0.15973  0.26773  1.0000
  C   C3027     1.0  0.67561  0.16659  0.26974  1.0000
  C   C3028     1.0  0.68202  0.16090  0.28298  1.0000
  C   C3029     1.0  0.67769  0.14799  0.29400  1.0000
  C   C3030     1.0  0.66712  0.14075  0.29167  1.0000
  H   H3634     1.0  0.65962  0.16426  0.25754  1.0000
  H   H3635     1.0  0.67911  0.17643  0.26105  1.0000
  H   H3636     1.0  0.68288  0.14326  0.30401  1.0000
  H   H3637     1.0  0.66432  0.13036  0.29982  1.0000
  C   C3031     1.0  0.57464  0.16798  0.28873  1.0000
  C   C3032     1.0  0.58684  0.15724  0.29485  1.0000
  C   C3033     1.0  0.58359  0.14609  0.30846  1.0000
  C   C3034     1.0  0.56813  0.14559  0.31602  1.0000
  C   C3035     1.0  0.55583  0.15653  0.31022  1.0000
  C   C3036     1.0  0.55911  0.16783  0.29658  1.0000
  H   H3638     1.0  0.59885  0.15735  0.28906  1.0000
  H   H3639     1.0  0.59312  0.13760  0.31292  1.0000
  H   H3640     1.0  0.54384  0.15620  0.31614  1.0000
  H   H3641     1.0  0.54965  0.17616  0.29188  1.0000
  C   C3037     1.0  0.60921  0.12240  0.21517  1.0000
  C   C3038     1.0  0.62513  0.12071  0.20833  1.0000
  C   C3039     1.0  0.49653  0.17556  0.36544  1.0000
  C   C3040     1.0  0.59947  0.11791  0.20865  1.0000
  H   H3642     1.0  0.63274  0.12368  0.21364  1.0000
  S   S822      1.0  0.75965  0.21852  0.35795  1.0000
  H   H3643     1.0  0.56115  0.10677  0.25904  1.0000
  C   C3041     1.0  0.79179  0.12257  0.31722  1.0000
  C   C3042     1.0  0.62468  0.19461  0.30110  1.0000
  C   C3043     1.0  0.61100  0.20405  0.30858  1.0000
  C   C3044     1.0  0.62248  0.18589  0.29169  1.0000
  C   C3045     1.0  0.59620  0.20495  0.30635  1.0000
  C   C3046     1.0  0.60765  0.18700  0.28948  1.0000
  C   C3047     1.0  0.59455  0.19649  0.29674  1.0000
  H   H3644     1.0  0.61143  0.21105  0.31604  1.0000
  C   C3048     1.0  0.51051  0.02876  0.18808  1.0000
  C   C3049     1.0  0.55559  0.07618  0.18062  1.0000
  H   H3645     1.0  0.82126  0.22423  0.36474  1.0000
  H   H3646     1.0  0.89640  0.12020  0.34140  1.0000
  S   S823      1.0  0.71255  0.21192  0.32221  1.0000
  H   H3647     1.0  0.59677  0.11243  0.34117  1.0000
  C   C3050     1.0  0.71507  0.07036  0.34575  1.0000
  H   H3648     1.0  0.86373  0.08244  0.31933  1.0000
  S   S824      1.0  0.52572  0.12046  0.32848  1.0000
  H   H3649     1.0  0.76136  0.21200  0.31478  1.0000
  C   C3051     1.0  0.57665  0.11574  0.27255  1.0000
  H   H3650     1.0  0.81290  0.98361  0.32632  1.0000
  C   C3052     1.0  0.88581  0.10073  0.32945  1.0000
  C   C3053     1.0  0.63133  0.11447  0.19504  1.0000
  H   H3651     1.0  0.86988  0.07957  0.36438  1.0000
  H   H3652     1.0  0.58597  0.21247  0.31184  1.0000
  H   H3653     1.0  0.80615  0.20580  0.29318  1.0000
  C   C3054     1.0  0.87821  0.10742  0.36675  1.0000
  C   C3055     1.0  0.87707  0.21127  0.34317  1.0000
  H   H3654     1.0  0.55073  0.02329  0.21090  1.0000
  H   H3655     1.0  0.64014  0.17367  0.32171  1.0000
  H   H3656     1.0  0.64966  0.13535  0.32382  1.0000
  H   H3657     1.0  0.66290  0.19757  0.28817  1.0000
  H   H3658     1.0  0.78211  0.16999  0.36352  1.0000
  H   H3659     1.0  0.77151  0.11467  0.27954  1.0000
  H   H3660     1.0  0.56716  0.15734  0.35498  1.0000
  C   C3056     1.0  0.84354  0.20593  0.31184  1.0000
  H   H3661     1.0  0.89583  0.17577  0.35450  1.0000
  C   C3057     1.0  0.77415  0.13652  0.33631  1.0000
  C   C3058     1.0  0.61351  0.08043  0.22374  1.0000
  H   H3662     1.0  0.72848  0.18979  0.34563  1.0000
  S   S825      1.0  0.71841  0.16923  0.31714  1.0000
  H   H3663     1.0  0.65668  0.17403  0.18209  1.0000
  H   H3664     1.0  0.59704  0.18031  0.35114  1.0000
  C   C3059     1.0  0.68682  0.07693  0.35241  1.0000
  S   S826      1.0  0.85259  0.18675  0.31022  1.0000
  H   H3665     1.0  0.77210  0.14161  0.34614  1.0000
  H   H3666     1.0  0.79657  0.12101  0.27256  1.0000
  C   C3060     1.0  0.85871  0.21903  0.36576  1.0000
  H   H3667     1.0  0.59122  0.22862  0.20992  1.0000
  S   S827      1.0  0.83685  0.12067  0.36400  1.0000
  H   H3668     1.0  0.57519  0.10892  0.36311  1.0000
  Fe  Fe416     1.0  0.49947  0.05032  0.27152  1.0000
  C   C3061     1.0  0.63790  0.13998  0.32966  1.0000
  C   C3062     1.0  0.59963  0.08394  0.23451  1.0000
  H   H3669     1.0  0.79290  0.22713  0.31754  1.0000
  C   C3063     1.0  0.86628  0.07968  0.34253  1.0000
  N   N203      1.0  0.79308  0.20376  0.31687  1.0000
  H   H3670     1.0  0.57858  0.15870  0.33588  1.0000
  C   C3064     1.0  0.54817  0.98686  0.21041  1.0000
  C   C3065     1.0  0.79641  0.19716  0.33256  1.0000
  C   C3066     1.0  0.70070  0.05026  0.35971  1.0000
  H   H3671     1.0  0.74589  0.99022  0.35607  1.0000
  C   C3067     1.0  0.78966  0.10065  0.29972  1.0000
  H   H3672     1.0  0.76298  0.13210  0.28656  1.0000
  H   H3673     1.0  0.79876  0.12750  0.33552  1.0000
  H   H3674     1.0  0.51125  0.04473  0.20166  1.0000
  H   H3675     1.0  0.77453  0.22190  0.32535  1.0000
  S   S828      1.0  0.99147  0.17397  0.34864  1.0000
  C   C3068     1.0  0.70099  0.08140  0.34553  1.0000
  C   C3069     1.0  0.61373  0.10831  0.35487  1.0000
  C   C3070     1.0  0.78151  0.00674  0.36941  1.0000
  C   C3071     1.0  0.78358  0.19455  0.31411  1.0000
  H   H3676     1.0  0.57670  0.14414  0.27311  1.0000
  H   H3677     1.0  0.58315  0.19740  0.29468  1.0000
  H   H3678     1.0  0.79247  0.00979  0.36254  1.0000
  H   H3679     1.0  0.80558  0.14849  0.36058  1.0000
  C   C3072     1.0  0.61941  0.14527  0.35319  1.0000
  H   H3680     1.0  0.55220  0.11599  0.29774  1.0000
  H   H3681     1.0  0.51250  0.14769  0.26471  1.0000
  H   H3682     1.0  0.53986  0.10706  0.24811  1.0000
  S   S829      1.0  0.83284  0.16649  0.35140  1.0000
  C   C3073     1.0  0.86927  0.08568  0.32659  1.0000
  S   S830      1.0  0.52366  0.07738  0.34537  1.0000
  C   C3074     1.0  0.50536  0.11030  0.30207  1.0000
  C   C3075     1.0  0.49208  0.11515  0.31292  1.0000
  C   C3076     1.0  0.87301  0.08413  0.35203  1.0000
  C   C3077     1.0  0.49835  0.02025  0.25976  1.0000
  C   C3078     1.0  0.91730  0.18020  0.35600  1.0000
  H   H3683     1.0  0.60630  0.18072  0.28180  1.0000
  C   C3079     1.0  0.63457  0.13940  0.34549  1.0000
  C   C3080     1.0  0.76177  0.13787  0.32964  1.0000
  H   H3684     1.0  0.74236  0.05407  0.33076  1.0000
  H   H3685     1.0  0.52519  0.98536  0.19812  1.0000
  H   H3686     1.0  0.61771  0.14443  0.36546  1.0000
  C   C3081     1.0  0.75902  0.19145  0.31056  1.0000
  H   H3687     1.0  0.78203  0.22601  0.30456  1.0000
  H   H3688     1.0  0.66334  0.17608  0.37376  1.0000
  H   H3689     1.0  0.88084  0.10124  0.30771  1.0000
  H   H3690     1.0  0.93301  0.13568  0.36189  1.0000
  S   S831      1.0  0.49730  0.07269  0.27819  1.0000
  H   H3691     1.0  0.74301  0.05923  0.35522  1.0000
  N   N204      1.0  0.57367  0.06240  0.22659  1.0000
  C   C3082     1.0  0.57653  0.05177  0.21606  1.0000
  C   C3083     1.0  0.56833  0.05377  0.24264  1.0000
  C   C3084     1.0  0.56086  0.07576  0.22247  1.0000
  C   C3085     1.0  0.58756  0.06822  0.22562  1.0000
  H   H3692     1.0  0.59812  0.10807  0.19049  1.0000
  C   C3086     1.0  0.58681  0.07798  0.23545  1.0000
  H   H3693     1.0  0.60247  0.15841  0.32176  1.0000
  H   H3694     1.0  0.62533  0.06867  0.20517  1.0000
  H   H3695     1.0  0.60365  0.05764  0.20671  1.0000
  H   H3696     1.0  0.58606  0.04140  0.21851  1.0000
  H   H3697     1.0  0.56593  0.04738  0.21737  1.0000
  H   H3698     1.0  0.57957  0.05774  0.20364  1.0000
  H   H3699     1.0  0.57794  0.04418  0.24654  1.0000
  H   H3700     1.0  0.55835  0.04860  0.24358  1.0000
  H   H3701     1.0  0.56408  0.06133  0.25117  1.0000
  H   H3702     1.0  0.55724  0.08384  0.23046  1.0000
  H   H3703     1.0  0.56434  0.08258  0.21044  1.0000
  H   H3704     1.0  0.55021  0.07184  0.22309  1.0000
  C   C3087     1.0  0.54387  0.00191  0.21367  1.0000
  H   H3705     1.0  0.57620  0.08124  0.24383  1.0000
  C   C3088     1.0  0.90761  0.17068  0.35607  1.0000
  C   C3089     1.0  0.79255  0.13048  0.37032  1.0000
  H   H3706     1.0  0.64864  0.16920  0.30291  1.0000
  H   H3707     1.0  0.62033  0.17096  0.36764  1.0000
  Fe  Fe417     1.0  0.52383  0.10046  0.34897  1.0000
  H   H3708     1.0  0.70113  0.09348  0.34005  1.0000
  C   C3090     1.0  0.76617  0.15467  0.37376  1.0000
  C   C3091     1.0  0.88329  0.09452  0.34574  1.0000
  H   H3709     1.0  0.51558  0.12747  0.25044  1.0000
  Fe  Fe418     1.0  0.51934  0.12065  0.37206  1.0000
  C   C3092     1.0  0.60707  0.15204  0.34510  1.0000
  H   H3710     1.0  0.76171  0.06153  0.37124  1.0000
  H   H3711     1.0  0.67588  0.08550  0.35249  1.0000
  H   H3712     1.0  0.78535  0.19712  0.34162  1.0000
  H   H3713     1.0  0.53931  0.01087  0.18259  1.0000
  C   C3093     1.0  0.79411  0.12528  0.28337  1.0000
  H   H3714     1.0  0.81806  0.22656  0.33754  1.0000
  Fe  Fe419     1.0  0.50510  0.13329  0.34348  1.0000
  C   C3094     1.0  0.76431  0.13169  0.31667  1.0000
  H   H3715     1.0  0.63225  0.17831  0.28572  1.0000
  H   H3716     1.0  0.78214  0.09469  0.31009  1.0000
  H   H3717     1.0  0.72243  0.02252  0.35590  1.0000
  C   C3095     1.0  0.58640  0.10771  0.36565  1.0000
  H   H3718     1.0  0.89294  0.10916  0.32366  1.0000
  H   H3719     1.0  0.50457  0.02950  0.25523  1.0000
  C   C3096     1.0  0.91325  0.15460  0.35807  1.0000
  H   H3720     1.0  0.95000  0.15251  0.36206  1.0000
  N   N205      1.0  0.73052  0.04317  0.35347  1.0000
  C   C3097     1.0  0.52272  0.98325  0.21101  1.0000
  C   C3098     1.0  0.53238  0.04248  0.17712  1.0000
  C   C3099     1.0  0.79404  0.14594  0.36543  1.0000
  H   H3721     1.0  0.62328  0.08542  0.22274  1.0000
  H   H3722     1.0  0.74700  0.19269  0.35944  1.0000
  H   H3723     1.0  0.91292  0.19265  0.35424  1.0000
  C   C3100     1.0  0.58834  0.17599  0.34802  1.0000
  C   C3101     1.0  0.76599  0.17637  0.30866  1.0000
  C   C3102     1.0  0.49301  0.03292  0.21298  1.0000
  H   H3724     1.0  0.57645  0.18167  0.35373  1.0000
  C   C3103     1.0  0.71538  0.05446  0.35294  1.0000
  H   H3725     1.0  0.75923  0.16950  0.30652  1.0000
  C   C3104     1.0  0.78089  0.15802  0.36713  1.0000
  H   H3726     1.0  0.87125  0.22329  0.32119  1.0000
  H   H3727     1.0  0.75414  0.13308  0.31221  1.0000
  H   H3728     1.0  0.80346  0.18503  0.33376  1.0000
  C   C3105     1.0  0.93264  0.17373  0.35811  1.0000
  H   H3729     1.0  0.67558  0.05807  0.36497  1.0000
  H   H3730     1.0  0.81647  0.19175  0.30709  1.0000
  H   H3731     1.0  0.90520  0.08734  0.37261  1.0000
  C   C3106     1.0  0.61463  0.07096  0.21386  1.0000
  C   C3107     1.0  0.92858  0.14811  0.36024  1.0000
  N   N206      1.0  0.56242  0.12824  0.27520  1.0000
  C   C3108     1.0  0.55681  0.12672  0.29221  1.0000
  C   C3109     1.0  0.56719  0.14332  0.26825  1.0000
  C   C3110     1.0  0.54970  0.12769  0.26845  1.0000
  C   C3111     1.0  0.55094  0.11609  0.26043  1.0000
  C   C3112     1.0  0.53541  0.13901  0.26990  1.0000
  C   C3113     1.0  0.53874  0.11613  0.25400  1.0000
  C   C3114     1.0  0.52329  0.13892  0.26344  1.0000
  C   C3115     1.0  0.52501  0.12758  0.25539  1.0000
  C   C3116     1.0  0.94407  0.22478  0.35911  1.0000
  H   H3732     1.0  0.57157  0.14488  0.25544  1.0000
  H   H3733     1.0  0.88319  0.11184  0.37399  1.0000
  H   H3734     1.0  0.58160  0.11632  0.25994  1.0000
  S   S832      1.0  0.94445  0.18625  0.35756  1.0000
  H   H3735     1.0  0.65211  0.19038  0.27954  1.0000
  C   C3117     1.0  0.78523  0.22040  0.31598  1.0000
  H   H3736     1.0  0.58184  0.14086  0.35000  1.0000
  C   C3118     1.0  0.61101  0.15288  0.32885  1.0000
  C   C3119     1.0  0.73951  0.04809  0.36168  1.0000
  N   N207      1.0  0.89057  0.09873  0.35603  1.0000
  C   C3120     1.0  0.73963  0.22954  0.33786  1.0000
  H   H3737     1.0  0.83333  0.19990  0.33627  1.0000
  S   S833      1.0  0.86512  0.17776  0.34909  1.0000
  H   H3738     1.0  0.52677  0.10609  0.19187  1.0000
  H   H3739     1.0  0.63423  0.20081  0.32459  1.0000
  H   H3740     1.0  0.64384  0.13443  0.35184  1.0000
  C   C3121     1.0  0.65078  0.19819  0.28730  1.0000
  C   C3122     1.0  0.84927  0.23075  0.35638  1.0000
  C   C3123     1.0  0.57923  0.15372  0.34821  1.0000
  C   C3124     1.0  0.64088  0.20406  0.31245  1.0000
  Fe  Fe420     1.0  0.96786  0.17735  0.36470  1.0000
  C   C3125     1.0  0.79022  0.17901  0.31247  1.0000
  H   H3741     1.0  0.73260  0.04964  0.37341  1.0000
  C   C3126     1.0  0.58815  0.15443  0.37005  1.0000
  H   H3742     1.0  0.87103  0.11763  0.36018  1.0000
  C   C3127     1.0  0.78911  0.12872  0.33023  1.0000
  H   H3743     1.0  0.75007  0.14375  0.33457  1.0000
  S   S834      1.0  0.68356  0.19161  0.31717  1.0000
  H   H3744     1.0  0.80145  0.09806  0.30220  1.0000
  C   C3128     1.0  0.61634  0.10483  0.36980  1.0000
  C   C3129     1.0  0.74607  0.21687  0.34848  1.0000
  C   C3130     1.0  0.52223  0.06797  0.32024  1.0000
  C   C3131     1.0  0.64257  0.17368  0.36884  1.0000
  C   C3132     1.0  0.87889  0.09629  0.32008  1.0000
  S   S835      1.0  0.90137  0.14227  0.35821  1.0000
  H   H3745     1.0  0.62885  0.14716  0.30894  1.0000
  C   C3133     1.0  0.80810  0.20317  0.30514  1.0000
  H   H3746     1.0  0.88756  0.20368  0.33814  1.0000
  S   S836      1.0  0.59413  0.08160  0.17823  1.0000
  C   C3134     1.0  0.72890  0.02708  0.36161  1.0000
  H   H3747     1.0  0.74681  0.19623  0.30998  1.0000
  H   H3748     1.0  0.69967  0.03851  0.36549  1.0000
  H   H3749     1.0  0.80306  0.20406  0.33539  1.0000
  C   C3135     1.0  0.62615  0.14668  0.32134  1.0000
  C   C3136     1.0  0.57337  0.99295  0.19527  1.0000
  H   H3750     1.0  0.63269  0.16491  0.19824  1.0000
  Fe  Fe421     1.0  0.84464  0.17118  0.36740  1.0000
  N   N208      1.0  0.59100  0.15884  0.35282  1.0000
  H   H3751     1.0  0.49335  0.11694  0.32362  1.0000
  H   H3752     1.0  0.53710  0.03737  0.18781  1.0000
  H   H3753     1.0  0.85836  0.07182  0.34758  1.0000
  H   H3754     1.0  0.78699  0.15843  0.30808  1.0000
  H   H3755     1.0  0.62331  0.10975  0.34486  1.0000
  C   C3137     1.0  0.59880  0.10978  0.35281  1.0000
  H   H3756     1.0  0.80327  0.12177  0.36889  1.0000
  H   H3757     1.0  0.75127  0.03438  0.33748  1.0000
  C   C3138     1.0  0.60276  0.22488  0.20308  1.0000
  S   S837      1.0  0.85683  0.14628  0.37427  1.0000
  H   H3758     1.0  0.58939  0.18012  0.33526  1.0000
  H   H3759     1.0  0.90788  0.11096  0.35546  1.0000
  C   C3139     1.0  0.89896  0.08449  0.36532  1.0000
  H   H3760     1.0  0.95065  0.21765  0.33743  1.0000
  C   C3140     1.0  0.54733  0.09149  0.18082  1.0000
  C   C3141     1.0  0.97372  0.23137  0.35132  1.0000
  C   C3142     1.0  0.95414  0.22247  0.34508  1.0000
  H   H3761     1.0  0.93276  0.22174  0.36225  1.0000
  H   H3762     1.0  0.68891  0.14558  0.36915  1.0000
  H   H3763     1.0  0.52496  0.05425  0.17799  1.0000
  H   H3764     1.0  0.69542  0.11655  0.36839  1.0000
  H   H3765     1.0  0.75597  0.16411  0.37519  1.0000
  H   H3766     1.0  0.52665  0.98449  0.23817  1.0000
  C   C3143     1.0  0.77701  0.99432  0.36720  1.0000
  H   H3767     1.0  0.89096  0.07719  0.37348  1.0000
  H   H3768     1.0  0.60005  0.14444  0.18259  1.0000
  H   H3769     1.0  0.66461  0.15388  0.18181  1.0000
  H   H3770     1.0  0.87929  0.20051  0.36666  1.0000
  C   C3144     1.0  0.79021  0.98383  0.32334  1.0000
  H   H3771     1.0  0.78491  0.98840  0.35844  1.0000
  C   C3145     1.0  0.56328  0.98269  0.20100  1.0000
  C   C3146     1.0  0.82338  0.23056  0.37238  1.0000
  H   H3772     1.0  0.50542  0.01273  0.23826  1.0000
  H   H3773     1.0  0.67102  0.98292  0.34924  1.0000
  H   H3774     1.0  0.49971  0.18194  0.35358  1.0000
  H   H3775     1.0  0.72280  0.02646  0.37403  1.0000
  C   C3147     1.0  0.62278  0.22914  0.17968  1.0000
  C   C3148     1.0  0.63421  0.15739  0.19013  1.0000
  H   H3776     1.0  0.62252  0.15602  0.19005  1.0000
  H   H3777     1.0  0.59191  0.17290  0.17992  1.0000
  C   C3149     1.0  0.65816  0.16498  0.17557  1.0000
  H   H3778     1.0  0.51211  0.18349  0.37366  1.0000
  H   H3779     1.0  0.59517  0.15945  0.37469  1.0000
  S   S838      1.0  0.97401  0.19386  0.37472  1.0000
  C   C3150     1.0  0.62785  0.17008  0.37520  1.0000
  Fe  Fe422     1.0  0.67906  0.06126  0.43576  1.0000
  S   S839      1.0  0.67444  0.04755  0.42145  1.0000
  S   S840      1.0  0.66742  0.06367  0.46017  1.0000
  Fe  Fe423     1.0  0.70058  0.04119  0.41348  1.0000
  S   S841      1.0  0.71448  0.01695  0.41209  1.0000
  Fe  Fe424     1.0  0.67659  0.06878  0.40226  1.0000
  H   H3780     1.0  0.62611  0.10774  0.46677  1.0000
  S   S842      1.0  0.70500  0.05275  0.42974  1.0000
  S   S843      1.0  0.67858  0.08301  0.41736  1.0000
  Fe  Fe425     1.0  0.71773  0.06753  0.54128  1.0000
  S   S844      1.0  0.71029  0.04479  0.54882  1.0000
  S   S845      1.0  0.83210  0.18730  0.38354  1.0000
  Fe  Fe426     1.0  0.71267  0.07327  0.50867  1.0000
  S   S846      1.0  0.70471  0.05120  0.51375  1.0000
  S   S847      1.0  0.71178  0.08793  0.48473  1.0000
  Fe  Fe427     1.0  0.69115  0.05741  0.53624  1.0000
  S   S848      1.0  0.66598  0.05648  0.54630  1.0000
  Fe  Fe428     1.0  0.72464  0.04076  0.52574  1.0000
  S   S849      1.0  0.73983  0.01744  0.52303  1.0000
  S   S850      1.0  0.69749  0.08055  0.53022  1.0000
  S   S851      1.0  0.73395  0.06242  0.51899  1.0000
  H   H3781     1.0  0.67041  0.11975  0.53455  1.0000
  H   H3782     1.0  0.79083  0.20935  0.39753  1.0000
  H   H3783     1.0  0.82777  0.22149  0.38192  1.0000
  C   C3151     1.0  0.89519  0.19362  0.55822  1.0000
  H   H3784     1.0  0.74815  0.98938  0.51143  1.0000
  Fe  Fe429     1.0  0.59200  0.11940  0.43681  1.0000
  S   S852      1.0  0.60297  0.12922  0.44962  1.0000
  S   S853      1.0  0.59731  0.09405  0.43723  1.0000
  Fe  Fe430     1.0  0.57261  0.15038  0.42415  1.0000
  S   S854      1.0  0.55808  0.16198  0.40618  1.0000
  Fe  Fe431     1.0  0.57887  0.14318  0.45658  1.0000
  N   N209      1.0  0.61988  0.08632  0.48085  1.0000
  S   S855      1.0  0.56754  0.13172  0.44540  1.0000
  H   H3785     1.0  0.60298  0.18214  0.43383  1.0000
  H   H3786     1.0  0.97208  0.22993  0.40079  1.0000
  Fe  Fe432     1.0  0.61026  0.16740  0.56713  1.0000
  S   S856      1.0  0.59643  0.13712  0.41466  1.0000
  C   C3152     1.0  0.86400  0.20085  0.57400  1.0000
  S   S857      1.0  0.97378  0.17746  0.41652  1.0000
  C   C3153     1.0  0.62864  0.07865  0.50647  1.0000
  C   C3154     1.0  0.69196  0.11417  0.38130  1.0000
  H   H3787     1.0  0.94823  0.23055  0.42131  1.0000
  H   H3788     1.0  0.62422  0.06732  0.46959  1.0000
  H   H3789     1.0  0.72026  0.98844  0.46739  1.0000
  C   C3155     1.0  0.78768  0.05041  0.56612  1.0000
  C   C3156     1.0  0.56066  0.10318  0.39128  1.0000
  H   H3790     1.0  0.62997  0.17892  0.45845  1.0000
  C   C3157     1.0  0.85814  0.17484  0.39587  1.0000
  C   C3158     1.0  0.84428  0.18622  0.39571  1.0000
  C   C3159     1.0  0.84016  0.19676  0.40534  1.0000
  C   C3160     1.0  0.84983  0.19588  0.41510  1.0000
  C   C3161     1.0  0.73938  0.07767  0.40143  1.0000
  H   H3791     1.0  0.94580  0.22324  0.47484  1.0000
  H   H3792     1.0  0.82949  0.20557  0.40533  1.0000
  H   H3793     1.0  0.84657  0.20401  0.42254  1.0000
  H   H3794     1.0  0.61302  0.19481  0.47563  1.0000
  C   C3162     1.0  0.97346  0.20159  0.42889  1.0000
  H   H3795     1.0  0.71941  0.98459  0.41309  1.0000
  C   C3163     1.0  0.75781  0.01157  0.38881  1.0000
  C   C3164     1.0  0.74490  0.03533  0.57367  1.0000
  H   H3796     1.0  0.67837  0.01324  0.38341  1.0000
  H   H3797     1.0  0.96194  0.20022  0.43561  1.0000
  C   C3165     1.0  0.67428  0.02140  0.47691  1.0000
  H   H3798     1.0  0.90454  0.14566  0.39189  1.0000
  H   H3799     1.0  0.97757  0.21555  0.38952  1.0000
  H   H3800     1.0  0.67327  0.13558  0.51802  1.0000
  H   H3801     1.0  0.58432  0.11126  0.40914  1.0000
  C   C3166     1.0  0.54627  0.15088  0.40405  1.0000
  Fe  Fe433     1.0  0.87423  0.20660  0.43010  1.0000
  H   H3802     1.0  0.62154  0.09945  0.53398  1.0000
  H   H3803     1.0  0.76711  0.09657  0.53366  1.0000
  C   C3167     1.0  0.79035  0.09865  0.37889  1.0000
  C   C3168     1.0  0.65923  0.07116  0.55674  1.0000
  C   C3169     1.0  0.64401  0.08026  0.55756  1.0000
  H   H3804     1.0  0.69814  0.13887  0.38521  1.0000
  C   C3170     1.0  0.53436  0.14381  0.38725  1.0000
  S   S858      1.0  0.88936  0.21038  0.44338  1.0000
  H   H3805     1.0  0.72269  0.00499  0.55214  1.0000
  H   H3806     1.0  0.63557  0.07688  0.55372  1.0000
  H   H3807     1.0  0.73370  0.98916  0.37537  1.0000
  C   C3171     1.0  0.91978  0.21928  0.49901  1.0000
  C   C3172     1.0  0.68573  0.00744  0.45623  1.0000
  C   C3173     1.0  0.71025  0.99190  0.51123  1.0000
  C   C3174     1.0  0.70313  0.00449  0.51828  1.0000
  C   C3175     1.0  0.71221  0.01158  0.52289  1.0000
  C   C3176     1.0  0.72847  0.00651  0.51998  1.0000
  C   C3177     1.0  0.73557  0.99345  0.51356  1.0000
  H   H3808     1.0  0.57114  0.12493  0.39781  1.0000
  H   H3809     1.0  0.69059  0.00888  0.52000  1.0000
  H   H3810     1.0  0.70658  0.02102  0.52870  1.0000
  C   C3178     1.0  0.68035  0.99399  0.46576  1.0000
  C   C3179     1.0  0.70342  0.98269  0.40075  1.0000
  C   C3180     1.0  0.64169  0.08370  0.40076  1.0000
  C   C3181     1.0  0.63243  0.07269  0.40736  1.0000
  C   C3182     1.0  0.61899  0.07565  0.41899  1.0000
  C   C3183     1.0  0.61481  0.08965  0.42386  1.0000
  C   C3184     1.0  0.62427  0.10047  0.41748  1.0000
  C   C3185     1.0  0.63771  0.09747  0.40595  1.0000
  H   H3811     1.0  0.63577  0.06182  0.40365  1.0000
  H   H3812     1.0  0.61181  0.06714  0.42410  1.0000
  H   H3813     1.0  0.62139  0.11106  0.42157  1.0000
  C   C3186     1.0  0.66603  0.08923  0.56709  1.0000
  C   C3187     1.0  0.70573  0.00704  0.40439  1.0000
  H   H3814     1.0  0.66231  0.00884  0.49825  1.0000
  C   C3188     1.0  0.79938  0.22361  0.42422  1.0000
  H   H3815     1.0  0.81729  0.23022  0.44073  1.0000
  C   C3189     1.0  0.68738  0.00699  0.38983  1.0000
  C   C3190     1.0  0.69415  0.01512  0.39606  1.0000
  C   C3191     1.0  0.66997  0.07531  0.56216  1.0000
  H   H3816     1.0  0.69037  0.02762  0.39442  1.0000
  C   C3192     1.0  0.67805  0.07288  0.46663  1.0000
  C   C3193     1.0  0.69022  0.07938  0.45628  1.0000
  C   C3194     1.0  0.69995  0.08497  0.46178  1.0000
  C   C3195     1.0  0.69772  0.08381  0.47770  1.0000
  C   C3196     1.0  0.68501  0.07810  0.48795  1.0000
  C   C3197     1.0  0.67515  0.07270  0.48242  1.0000
  H   H3817     1.0  0.69244  0.07978  0.44404  1.0000
  H   H3818     1.0  0.70972  0.08941  0.45378  1.0000
  H   H3819     1.0  0.68311  0.07725  0.50023  1.0000
  H   H3820     1.0  0.66578  0.06768  0.49050  1.0000
  C   C3198     1.0  0.65128  0.09900  0.56671  1.0000
  C   C3199     1.0  0.60633  0.19319  0.43274  1.0000
  H   H3821     1.0  0.56407  0.11140  0.41497  1.0000
  C   C3200     1.0  0.74706  0.08649  0.54543  1.0000
  C   C3201     1.0  0.76029  0.09178  0.54478  1.0000
  H   H3822     1.0  0.74369  0.08715  0.53486  1.0000
  Fe  Fe434     1.0  0.70420  0.07375  0.41034  1.0000
  C   C3202     1.0  0.79405  0.22331  0.41123  1.0000
  C   C3203     1.0  0.60401  0.10282  0.38271  1.0000
  H   H3823     1.0  0.76687  0.05672  0.55772  1.0000
  C   C3204     1.0  0.91432  0.22427  0.48502  1.0000
  S   S859      1.0  0.69905  0.98458  0.50359  1.0000
  H   H3824     1.0  0.73471  0.07579  0.38045  1.0000
  H   H3825     1.0  0.59312  0.19241  0.49957  1.0000
  H   H3826     1.0  0.62913  0.09303  0.45624  1.0000
  H   H3827     1.0  0.60818  0.11410  0.49036  1.0000
  H   H3828     1.0  0.61856  0.06230  0.49039  1.0000
  C   C3205     1.0  0.76383  0.14081  0.56667  1.0000
  H   H3829     1.0  0.69458  0.00380  0.55311  1.0000
  C   C3206     1.0  0.54299  0.15309  0.38952  1.0000
  H   H3830     1.0  0.69883  0.11855  0.40778  1.0000
  H   H3831     1.0  0.58605  0.15169  0.52548  1.0000
  C   C3207     1.0  0.59912  0.19217  0.46104  1.0000
  H   H3832     1.0  0.58269  0.07666  0.39743  1.0000
  H   H3833     1.0  0.68457  0.99187  0.57007  1.0000
  H   H3834     1.0  0.50271  0.16028  0.57284  1.0000
  H   H3835     1.0  0.60665  0.10001  0.39404  1.0000
  H   H3836     1.0  0.77041  0.00565  0.55879  1.0000
  C   C3208     1.0  0.61393  0.10482  0.49847  1.0000
  C   C3209     1.0  0.57382  0.11277  0.40457  1.0000
  C   C3210     1.0  0.66378  0.12557  0.49830  1.0000
  S   S860      1.0  0.57021  0.14493  0.48158  1.0000
  C   C3211     1.0  0.66185  0.10310  0.51927  1.0000
  C   C3212     1.0  0.68250  0.11503  0.42934  1.0000
  H   H3837     1.0  0.55662  0.11501  0.38439  1.0000
  H   H3838     1.0  0.74954  0.00968  0.56286  1.0000
  H   H3839     1.0  0.62357  0.20738  0.45224  1.0000
  S   S861      1.0  0.62692  0.15744  0.42120  1.0000
  C   C3213     1.0  0.64005  0.09432  0.56245  1.0000
  C   C3214     1.0  0.72558  0.12881  0.55678  1.0000
  C   C3215     1.0  0.60188  0.19337  0.47506  1.0000
  Fe  Fe435     1.0  0.60493  0.14839  0.42839  1.0000
  C   C3216     1.0  0.58012  0.08553  0.40443  1.0000
  H   H3840     1.0  0.66186  0.98706  0.45224  1.0000
  S   S862      1.0  0.72077  0.08862  0.40737  1.0000
  H   H3841     1.0  0.67878  0.15087  0.38728  1.0000
  H   H3842     1.0  0.94258  0.12634  0.41516  1.0000
  H   H3843     1.0  0.77389  0.14043  0.57147  1.0000
  C   C3217     1.0  0.65535  0.12040  0.42841  1.0000
  C   C3218     1.0  0.86750  0.17355  0.40608  1.0000
  S   S863      1.0  0.59149  0.16851  0.55505  1.0000
  H   H3844     1.0  0.64318  0.12112  0.43431  1.0000
  H   H3845     1.0  0.69956  0.98323  0.55575  1.0000
  C   C3219     1.0  0.57624  0.18913  0.48927  1.0000
  S   S864      1.0  0.61594  0.16072  0.51247  1.0000
  C   C3220     1.0  0.59053  0.19200  0.48890  1.0000
  H   H3846     1.0  0.67470  0.09268  0.57057  1.0000
  H   H3847     1.0  0.89022  0.21616  0.54342  1.0000
  H   H3848     1.0  0.63416  0.17921  0.43812  1.0000
  H   H3849     1.0  0.69992  0.16025  0.56841  1.0000
  C   C3221     1.0  0.71051  0.99086  0.40656  1.0000
  H   H3850     1.0  0.67200  0.13796  0.45283  1.0000
  H   H3851     1.0  0.68824  0.98896  0.43564  1.0000
  S   S865      1.0  0.85306  0.22352  0.43923  1.0000
  H   H3852     1.0  0.66699  0.98535  0.48883  1.0000
  H   H3853     1.0  0.68761  0.10323  0.38540  1.0000
  H   H3854     1.0  0.68218  0.01775  0.57147  1.0000
  H   H3855     1.0  0.77564  0.02484  0.38198  1.0000
  C   C3222     1.0  0.75799  0.03564  0.54694  1.0000
  H   H3856     1.0  0.64014  0.13923  0.49652  1.0000
  H   H3857     1.0  0.62057  0.16834  0.45151  1.0000
  H   H3858     1.0  0.92787  0.17990  0.56862  1.0000
  H   H3859     1.0  0.76120  0.15236  0.55870  1.0000
  Fe  Fe436     1.0  0.61106  0.15608  0.53865  1.0000
  H   H3860     1.0  0.80995  0.18402  0.43725  1.0000
  H   H3861     1.0  0.64564  0.14668  0.46841  1.0000
  H   H3862     1.0  0.56222  0.18502  0.47626  1.0000
  N   N210      1.0  0.70802  0.99197  0.57063  1.0000
  C   C3223     1.0  0.62289  0.16522  0.39131  1.0000
  Fe  Fe437     1.0  0.59100  0.14444  0.56961  1.0000
  H   H3863     1.0  0.64384  0.12344  0.53650  1.0000
  C   C3224     1.0  0.75039  0.07382  0.41058  1.0000
  C   C3225     1.0  0.86338  0.18411  0.41564  1.0000
  C   C3226     1.0  0.65187  0.13506  0.49041  1.0000
  C   C3227     1.0  0.64225  0.18396  0.56663  1.0000
  C   C3228     1.0  0.71050  0.15120  0.56709  1.0000
  C   C3229     1.0  0.58433  0.18938  0.46182  1.0000
  N   N211      1.0  0.57596  0.10147  0.39499  1.0000
  C   C3230     1.0  0.93950  0.18004  0.57012  1.0000
  C   C3231     1.0  0.61749  0.20738  0.44335  1.0000
  C   C3232     1.0  0.67289  0.12304  0.52160  1.0000
  C   C3233     1.0  0.74328  0.07283  0.38748  1.0000
  H   H3864     1.0  0.62848  0.10162  0.56260  1.0000
  H   H3865     1.0  0.75293  0.13724  0.38408  1.0000
  C   C3234     1.0  0.66971  0.13451  0.46538  1.0000
  C   C3235     1.0  0.72300  0.99295  0.55919  1.0000
  C   C3236     1.0  0.77202  0.01526  0.38029  1.0000
  C   C3237     1.0  0.77031  0.10721  0.39985  1.0000
  H   H3866     1.0  0.65770  0.14080  0.38190  1.0000
  S   S866      1.0  0.60913  0.13206  0.55233  1.0000
  C   C3238     1.0  0.64539  0.12753  0.52367  1.0000
  C   C3239     1.0  0.65488  0.13945  0.47419  1.0000
  C   C3240     1.0  0.60347  0.09108  0.47886  1.0000
  C   C3241     1.0  0.71187  0.14019  0.55876  1.0000
  H   H3867     1.0  0.70302  0.11189  0.38519  1.0000
  H   H3868     1.0  0.58120  0.18797  0.45193  1.0000
  C   C3242     1.0  0.57315  0.18782  0.47578  1.0000
  S   S867      1.0  0.87535  0.18274  0.42801  1.0000
  H   H3869     1.0  0.74856  0.03235  0.54390  1.0000
  H   H3870     1.0  0.68482  0.11619  0.51772  1.0000
  C   C3243     1.0  0.66866  0.00853  0.48643  1.0000
  H   H3871     1.0  0.59879  0.10382  0.47707  1.0000
  H   H3872     1.0  0.72673  0.12025  0.55023  1.0000
  H   H3873     1.0  0.63800  0.06529  0.48063  1.0000
  C   C3244     1.0  0.62467  0.17933  0.44882  1.0000
  C   C3245     1.0  0.73802  0.08074  0.55982  1.0000
  H   H3874     1.0  0.91643  0.20658  0.52284  1.0000
  H   H3875     1.0  0.96543  0.18690  0.56676  1.0000
  S   S868      1.0  0.78902  0.05265  0.38401  1.0000
  H   H3876     1.0  0.60850  0.11964  0.51459  1.0000
  H   H3877     1.0  0.72567  0.98517  0.55103  1.0000
  C   C3246     1.0  0.75852  0.06479  0.38227  1.0000
  Fe  Fe438     1.0  0.98198  0.17298  0.39236  1.0000
  C   C3247     1.0  0.66694  0.11544  0.43696  1.0000
  C   C3248     1.0  0.68659  0.11911  0.41315  1.0000
  H   H3878     1.0  0.66388  0.11190  0.44950  1.0000
  C   C3249     1.0  0.80491  0.20901  0.43370  1.0000
  C   C3250     1.0  0.76966  0.06124  0.39121  1.0000
  C   C3251     1.0  0.80523  0.19505  0.43018  1.0000
  H   H3879     1.0  0.77850  0.10962  0.40539  1.0000
  H   H3880     1.0  0.91886  0.19279  0.42476  1.0000
  C   C3252     1.0  0.67519  0.12348  0.40404  1.0000
  H   H3881     1.0  0.64002  0.18175  0.55662  1.0000
  C   C3253     1.0  0.64711  0.16822  0.39477  1.0000
  C   C3254     1.0  0.89351  0.20993  0.49827  1.0000
  H   H3882     1.0  0.66565  0.13675  0.57294  1.0000
  H   H3883     1.0  0.62617  0.20883  0.43208  1.0000
  C   C3255     1.0  0.67153  0.99505  0.48095  1.0000
  H   H3884     1.0  0.59053  0.08381  0.40921  1.0000
  H   H3885     1.0  0.70233  0.14054  0.55376  1.0000
  H   H3886     1.0  0.80940  0.20799  0.44369  1.0000
  H   H3887     1.0  0.87798  0.16445  0.40646  1.0000
  C   C3256     1.0  0.68270  0.02088  0.46183  1.0000
  H   H3888     1.0  0.69232  0.00795  0.44441  1.0000
  C   C3257     1.0  0.88558  0.20798  0.55335  1.0000
  H   H3889     1.0  0.63561  0.12487  0.52066  1.0000
  H   H3890     1.0  0.67340  0.09667  0.51392  1.0000
  H   H3891     1.0  0.56774  0.18741  0.50016  1.0000
  C   C3258     1.0  0.76284  0.98989  0.37611  1.0000
  H   H3892     1.0  0.89303  0.19846  0.52220  1.0000
  C   C3259     1.0  0.68156  0.12505  0.47275  1.0000
  H   H3893     1.0  0.95736  0.22311  0.39686  1.0000
  H   H3894     1.0  0.90719  0.19082  0.55198  1.0000
  H   H3895     1.0  0.73316  0.98961  0.56474  1.0000
  C   C3260     1.0  0.98834  0.21521  0.54887  1.0000
  S   S869      1.0  0.78055  0.09872  0.55747  1.0000
  H   H3896     1.0  0.64972  0.12840  0.40636  1.0000
  N   N212      1.0  0.61158  0.19303  0.44668  1.0000
  C   C3261     1.0  0.89903  0.20544  0.51188  1.0000
  H   H3897     1.0  0.65296  0.10028  0.51500  1.0000
  C   C3262     1.0  0.69181  0.99075  0.39239  1.0000
  N   N213      1.0  0.72561  0.03682  0.46915  1.0000
  C   C3263     1.0  0.70881  0.04122  0.47655  1.0000
  C   C3264     1.0  0.73480  0.03085  0.48137  1.0000
  C   C3265     1.0  0.73048  0.05120  0.45910  1.0000
  C   C3266     1.0  0.72797  0.02450  0.46076  1.0000
  C   C3267     1.0  0.73554  0.02574  0.44484  1.0000
  C   C3268     1.0  0.72269  0.01061  0.46862  1.0000
  C   C3269     1.0  0.73737  0.01386  0.43734  1.0000
  C   C3270     1.0  0.72456  0.99884  0.46102  1.0000
  C   C3271     1.0  0.73183  0.00049  0.44536  1.0000
  H   H3898     1.0  0.70468  0.03180  0.48613  1.0000
  H   H3899     1.0  0.70640  0.05131  0.48185  1.0000
  H   H3900     1.0  0.70137  0.04442  0.46792  1.0000
  H   H3901     1.0  0.73330  0.03969  0.48814  1.0000
  H   H3902     1.0  0.74750  0.02725  0.47635  1.0000
  H   H3903     1.0  0.73122  0.02055  0.48985  1.0000
  H   H3904     1.0  0.72382  0.05650  0.44975  1.0000
  H   H3905     1.0  0.72831  0.06025  0.46583  1.0000
  H   H3906     1.0  0.74322  0.04896  0.45376  1.0000
  H   H3907     1.0  0.73994  0.03584  0.43784  1.0000
  H   H3908     1.0  0.71700  0.00874  0.48077  1.0000
  H   H3909     1.0  0.74288  0.01516  0.42512  1.0000
  H   H3910     1.0  0.66149  0.12031  0.38209  1.0000
  H   H3911     1.0  0.73310  0.99148  0.43936  1.0000
  N   N214      1.0  0.92399  0.18019  0.40678  1.0000
  C   C3272     1.0  0.91356  0.19303  0.39809  1.0000
  C   C3273     1.0  0.91912  0.18108  0.42333  1.0000
  C   C3274     1.0  0.94001  0.18303  0.40065  1.0000
  C   C3275     1.0  0.92371  0.16459  0.40545  1.0000
  C   C3276     1.0  0.93423  0.15118  0.41172  1.0000
  C   C3277     1.0  0.91287  0.16212  0.39839  1.0000
  C   C3278     1.0  0.96888  0.22634  0.39172  1.0000
  C   C3279     1.0  0.91283  0.14721  0.39747  1.0000
  C   C3280     1.0  0.92359  0.13439  0.40336  1.0000
  H   H3912     1.0  0.90107  0.19239  0.40286  1.0000
  H   H3913     1.0  0.91449  0.20461  0.39883  1.0000
  C   C3281     1.0  0.93866  0.22582  0.46606  1.0000
  H   H3914     1.0  0.97355  0.22053  0.43847  1.0000
  H   H3915     1.0  0.92724  0.17255  0.43032  1.0000
  H   H3916     1.0  0.90725  0.17865  0.42855  1.0000
  H   H3917     1.0  0.94843  0.17495  0.40747  1.0000
  H   H3918     1.0  0.94441  0.18165  0.38850  1.0000
  H   H3919     1.0  0.94049  0.19493  0.40091  1.0000
  H   H3920     1.0  0.76803  0.13190  0.55950  1.0000
  H   H3921     1.0  0.90432  0.17151  0.39339  1.0000
  H   H3922     1.0  0.66673  0.18321  0.55656  1.0000
  C   C3282     1.0  0.97269  0.21796  0.55658  1.0000
  C   C3283     1.0  0.62973  0.09502  0.46745  1.0000
  C   C3284     1.0  0.62537  0.06957  0.48046  1.0000
  H   H3923     1.0  0.64224  0.09131  0.46828  1.0000
  H   H3924     1.0  0.74360  0.04800  0.57215  1.0000
  C   C3285     1.0  0.54041  0.13968  0.41647  1.0000
  H   H3925     1.0  0.68687  0.03101  0.45442  1.0000
  H   H3926     1.0  0.93880  0.21456  0.46364  1.0000
  H   H3927     1.0  0.68161  0.06811  0.56197  1.0000
  H   H3928     1.0  0.76912  0.03187  0.53875  1.0000
  S   S870      1.0  0.62985  0.15731  0.54938  1.0000
  H   H3929     1.0  0.60232  0.08782  0.46851  1.0000
  H   H3930     1.0  0.64517  0.10568  0.40124  1.0000
  C   C3286     1.0  0.79454  0.20930  0.40776  1.0000
  H   H3931     1.0  0.86163  0.16688  0.38829  1.0000
  C   C3287     1.0  0.98183  0.19185  0.41858  1.0000
  C   C3288     1.0  0.76467  0.09098  0.55847  1.0000
  H   H3932     1.0  0.59554  0.08548  0.48919  1.0000
  N   N215      1.0  0.66091  0.12004  0.51539  1.0000
  C   C3289     1.0  0.93424  0.13635  0.41052  1.0000
  H   H3933     1.0  0.61152  0.16247  0.39615  1.0000
  H   H3934     1.0  0.54269  0.13805  0.42779  1.0000
  S   S871      1.0  0.65917  0.07958  0.38733  1.0000
  H   H3935     1.0  0.69307  0.12093  0.46596  1.0000
  C   C3290     1.0  0.65735  0.18490  0.56657  1.0000
  H   H3936     1.0  0.66012  0.09828  0.53198  1.0000
  S   S872      1.0  0.58147  0.16329  0.43616  1.0000
  H   H3937     1.0  0.68818  0.11305  0.49405  1.0000
  H   H3938     1.0  0.55124  0.10146  0.40194  1.0000
  C   C3291     1.0  0.60372  0.15493  0.50443  1.0000
  H   H3939     1.0  0.61896  0.15740  0.48176  1.0000
  H   H3940     1.0  0.56118  0.09447  0.38474  1.0000
  H   H3941     1.0  0.63460  0.06706  0.50496  1.0000
  C   C3292     1.0  0.58949  0.15139  0.51330  1.0000
  S   S873      1.0  0.70241  0.06154  0.39322  1.0000
  H   H3942     1.0  0.56822  0.14565  0.51307  1.0000
  C   C3293     1.0  0.75327  0.99906  0.38682  1.0000
  C   C3294     1.0  0.60806  0.15451  0.48866  1.0000
  H   H3943     1.0  0.94255  0.15207  0.41760  1.0000
  C   C3295     1.0  0.62076  0.08978  0.49533  1.0000
  H   H3944     1.0  0.74725  0.07740  0.42149  1.0000
  C   C3296     1.0  0.65933  0.12448  0.41219  1.0000
  C   C3297     1.0  0.53133  0.13071  0.41430  1.0000
  H   H3945     1.0  0.77415  0.06257  0.41249  1.0000
  H   H3946     1.0  0.96373  0.21797  0.55091  1.0000
  Fe  Fe439     1.0  0.62625  0.13429  0.56442  1.0000
  C   C3298     1.0  0.58355  0.14803  0.49037  1.0000
  C   C3299     1.0  0.57941  0.14801  0.50625  1.0000
  H   H3947     1.0  0.60773  0.21787  0.44279  1.0000
  C   C3300     1.0  0.62896  0.08220  0.52018  1.0000
  H   H3948     1.0  0.63495  0.07345  0.52857  1.0000
  H   H3949     1.0  0.75850  0.11439  0.40360  1.0000
  H   H3950     1.0  0.65456  0.16757  0.40233  1.0000
  H   H3951     1.0  0.80106  0.18437  0.41413  1.0000
  C   C3301     1.0  0.91221  0.21001  0.51221  1.0000
  C   C3302     1.0  0.77511  0.04705  0.56280  1.0000
  H   H3952     1.0  0.57051  0.08292  0.41466  1.0000
  C   C3303     1.0  0.61420  0.10820  0.51227  1.0000
  C   C3304     1.0  0.62154  0.09686  0.52319  1.0000
  H   H3953     1.0  0.67205  0.03183  0.48119  1.0000
  C   C3305     1.0  0.67867  0.12064  0.48893  1.0000
  C   C3306     1.0  0.59804  0.15103  0.48164  1.0000
  H   H3954     1.0  0.60124  0.15123  0.46937  1.0000
  H   H3955     1.0  0.75507  0.04855  0.54453  1.0000
  C   C3307     1.0  0.76552  0.06541  0.40554  1.0000
  C   C3308     1.0  0.52839  0.13266  0.39965  1.0000
  C   C3309     1.0  0.63260  0.16413  0.40109  1.0000
  C   C3310     1.0  0.73791  0.12836  0.56319  1.0000
  H   H3956     1.0  0.92987  0.22265  0.49990  1.0000
  H   H3957     1.0  0.64393  0.14038  0.52104  1.0000
  C   C3311     1.0  0.80019  0.19520  0.41718  1.0000
  C   C3312     1.0  0.75966  0.01164  0.56597  1.0000
  H   H3958     1.0  0.52674  0.12213  0.42397  1.0000
  C   C3313     1.0  0.97996  0.21311  0.43046  1.0000
  S   S874      1.0  0.64783  0.11744  0.57041  1.0000
  S   S875      1.0  0.51763  0.12078  0.39699  1.0000
  H   H3959     1.0  0.69156  0.11122  0.43595  1.0000
  H   H3960     1.0  0.74212  0.99673  0.39366  1.0000
  C   C3314     1.0  0.72643  0.98609  0.50922  1.0000
  H   H3961     1.0  0.75024  0.01846  0.39699  1.0000
  N   N216      1.0  0.67995  0.12729  0.38688  1.0000
  H   H3962     1.0  0.61584  0.19417  0.42206  1.0000
  N   N217      1.0  0.75921  0.02847  0.56329  1.0000
  H   H3963     1.0  0.88316  0.20647  0.49802  1.0000
  H   H3964     1.0  0.91666  0.19280  0.38554  1.0000
  C   C3315     1.0  0.72272  0.15071  0.57371  1.0000
  C   C3316     1.0  0.87000  0.21163  0.56119  1.0000
  C   C3317     1.0  0.69611  0.99280  0.56208  1.0000
  H   H3965     1.0  0.92366  0.12291  0.40234  1.0000
  S   S876      1.0  0.72106  0.07460  0.56135  1.0000
  C   C3318     1.0  0.90105  0.21909  0.48497  1.0000
  H   H3966     1.0  0.78890  0.06234  0.56350  1.0000
  H   H3967     1.0  0.94786  0.17854  0.55896  1.0000
  C   C3319     1.0  0.77299  0.03161  0.56637  1.0000
  H   H3968     1.0  0.74844  0.11960  0.56103  1.0000
  S   S877      1.0  0.88193  0.22337  0.40819  1.0000
  C   C3320     1.0  0.68671  0.14125  0.38195  1.0000
  H   H3969     1.0  0.59627  0.20306  0.43059  1.0000
  H   H3970     1.0  0.76951  0.09487  0.40475  1.0000
  C   C3321     1.0  0.73677  0.13907  0.57214  1.0000
  H   H3971     1.0  0.50522  0.16865  0.40060  1.0000
  C   C3322     1.0  0.75578  0.08490  0.57280  1.0000
  C   C3323     1.0  0.88939  0.18304  0.57132  1.0000
  Fe  Fe440     1.0  0.89575  0.22839  0.42206  1.0000
  H   H3972     1.0  0.76286  0.09570  0.37925  1.0000
  H   H3973     1.0  0.89606  0.22209  0.47490  1.0000
  S   S878      1.0  0.97442  0.15646  0.38331  1.0000
  S   S879      1.0  0.92130  0.22791  0.41323  1.0000
  C   C3324     1.0  0.50351  0.17646  0.37671  1.0000
  H   H3974     1.0  0.75202  0.11493  0.37964  1.0000
  C   C3325     1.0  0.49957  0.16814  0.39189  1.0000
  H   H3975     1.0  0.91508  0.22904  0.45328  1.0000
  H   H3976     1.0  0.53216  0.14547  0.37595  1.0000
  C   C3326     1.0  0.74240  0.07994  0.57347  1.0000
  N   N218      1.0  0.77574  0.11039  0.38274  1.0000
  C   C3327     1.0  0.58867  0.10407  0.38107  1.0000
  H   H3977     1.0  0.73413  0.03374  0.57149  1.0000
  H   H3978     1.0  0.54722  0.16192  0.37994  1.0000
  H   H3979     1.0  0.85539  0.21687  0.37827  1.0000
  H   H3980     1.0  0.78840  0.08656  0.38286  1.0000
  H   H3981     1.0  0.79949  0.09882  0.38466  1.0000
  C   C3328     1.0  0.78426  0.01976  0.57349  1.0000
  C   C3329     1.0  0.96836  0.22150  0.57124  1.0000
  C   C3330     1.0  0.79849  0.03852  0.57310  1.0000
  H   H3982     1.0  0.95410  0.14971  0.57033  1.0000
  C   C3331     1.0  0.76456  0.13923  0.37876  1.0000
  C   C3332     1.0  0.65213  0.17294  0.37863  1.0000
  C   C3333     1.0  0.66686  0.13054  0.37900  1.0000
  Fe  Fe441     1.0  0.86902  0.22923  0.45036  1.0000
  H   H3983     1.0  0.94065  0.23148  0.38030  1.0000
  H   H3984     1.0  0.70520  0.98209  0.44426  1.0000
  H   H3985     1.0  0.93840  0.19182  0.57192  1.0000
  C   C3334     1.0  0.77771  0.12663  0.37706  1.0000
  C   C3335     1.0  0.76395  0.10803  0.37584  1.0000
  H   H3986     1.0  0.79729  0.23156  0.45180  1.0000
  S   S880      1.0  0.85862  0.23020  0.55569  1.0000
  H   H3987     1.0  0.99084  0.18508  0.57133  1.0000
  H   H3988     1.0  0.67222  0.15292  0.57411  1.0000
  H   H3989     1.0  0.57578  0.15895  0.37555  1.0000
  H   H3990     1.0  0.99155  0.21294  0.53732  1.0000
  S   S881      1.0  0.75449  0.00683  0.61134  1.0000
  Fe  Fe442     1.0  0.80021  0.06705  0.60525  1.0000
  H   H3991     1.0  0.83682  0.06102  0.62639  1.0000
  S   S882      1.0  0.80448  0.04110  0.61468  1.0000
  Fe  Fe443     1.0  0.78765  0.10015  0.60984  1.0000
  S   S883      1.0  0.79828  0.11031  0.58534  1.0000
  S   S884      1.0  0.77719  0.11805  0.62432  1.0000
  Fe  Fe444     1.0  0.78997  0.09263  0.57910  1.0000
  C   C3336     1.0  0.49360  0.07419  0.74542  1.0000
  Fe  Fe445     1.0  0.81943  0.09169  0.58937  1.0000
  S   S885      1.0  0.84277  0.09845  0.58095  1.0000
  S   S886      1.0  0.77724  0.08400  0.60343  1.0000
  S   S887      1.0  0.80930  0.08236  0.61427  1.0000
  Fe  Fe446     1.0  0.61591  0.16500  0.72894  1.0000
  Fe  Fe447     1.0  0.59575  0.14422  0.75289  1.0000
  S   S888      1.0  0.55433  0.00767  0.74941  1.0000
  C   C3337     1.0  0.55229  0.17895  0.63969  1.0000
  S   S889      1.0  0.60559  0.14626  0.72750  1.0000
  S   S890      1.0  0.60811  0.16110  0.75491  1.0000
  Fe  Fe448     1.0  0.69735  0.16426  0.62855  1.0000
  S   S891      1.0  0.70382  0.13833  0.63585  1.0000
  H   H3992     1.0  0.58331  0.12821  0.71808  1.0000
  H   H3993     1.0  0.53391  0.06940  0.70797  1.0000
  C   C3338     1.0  0.53586  0.00320  0.75682  1.0000
  C   C3339     1.0  0.75393  0.12220  0.58897  1.0000
  H   H3994     1.0  0.85059  0.20658  0.61873  1.0000
  H   H3995     1.0  0.54415  0.17307  0.72428  1.0000
  S   S892      1.0  0.50533  0.16750  0.69960  1.0000
  H   H3996     1.0  0.53928  0.99803  0.71698  1.0000
  S   S893      1.0  0.67978  0.18754  0.57944  1.0000
  C   C3340     1.0  0.69782  0.02935  0.59424  1.0000
  C   C3341     1.0  0.71219  0.12577  0.67749  1.0000
  H   H3997     1.0  0.54724  0.12839  0.61115  1.0000
  C   C3342     1.0  0.79683  0.02323  0.57670  1.0000
  S   S894      1.0  0.96502  0.18858  0.63947  1.0000
  H   H3998     1.0  0.61215  0.22585  0.74245  1.0000
  C   C3343     1.0  0.49336  0.10233  0.76999  1.0000
  Fe  Fe449     1.0  0.88662  0.12514  0.62466  1.0000
  S   S895      1.0  0.88611  0.13347  0.64549  1.0000
  S   S896      1.0  0.87855  0.10304  0.62858  1.0000
  Fe  Fe450     1.0  0.89439  0.15479  0.60260  1.0000
  S   S897      1.0  0.89349  0.16613  0.62157  1.0000
  C   C3344     1.0  0.70394  0.00457  0.57912  1.0000
  Fe  Fe451     1.0  0.90742  0.14270  0.63132  1.0000
  S   S898      1.0  0.93067  0.13789  0.63819  1.0000
  Fe  Fe452     1.0  0.87235  0.15590  0.63387  1.0000
  S   S899      1.0  0.84777  0.16519  0.64592  1.0000
  S   S900      1.0  0.90929  0.13194  0.61159  1.0000
  S   S901      1.0  0.87202  0.14708  0.61365  1.0000
  H   H3999     1.0  0.98470  0.14804  0.69009  1.0000
  C   C3345     1.0  0.53206  0.16668  0.61132  1.0000
  S   S902      1.0  0.64116  0.16570  0.71790  1.0000
  Fe  Fe453     1.0  0.55919  0.05525  0.76337  1.0000
  H   H4000     1.0  0.98485  0.14650  0.60975  1.0000
  H   H4001     1.0  0.85193  0.20361  0.58004  1.0000
  H   H4002     1.0  0.49454  0.19259  0.58000  1.0000
  H   H4003     1.0  0.92006  0.17173  0.59563  1.0000
  H   H4004     1.0  0.60974  0.19042  0.75970  1.0000
  C   C3346     1.0  0.75013  0.22065  0.64120  1.0000
  C   C3347     1.0  0.66041  0.18782  0.57946  1.0000
  H   H4005     1.0  0.59562  0.09530  0.74939  1.0000
  N   N219      1.0  0.57888  0.10732  0.73496  1.0000
  S   S903      1.0  0.65433  0.20625  0.64960  1.0000
  C   C3348     1.0  0.99086  0.12571  0.65859  1.0000
  C   C3349     1.0  0.97976  0.22227  0.57866  1.0000
  H   H4006     1.0  0.57608  0.08371  0.74561  1.0000
  H   H4007     1.0  0.51675  0.98560  0.72364  1.0000
  C   C3350     1.0  0.52096  0.11233  0.75421  1.0000
  C   C3351     1.0  0.53341  0.98939  0.75541  1.0000
  N   N220      1.0  0.51264  0.11888  0.72846  1.0000
  S   S904      1.0  0.54155  0.07516  0.75362  1.0000
  C   C3352     1.0  0.98307  0.21337  0.60516  1.0000
  Fe  Fe454     1.0  0.50301  0.13408  0.66536  1.0000
  H   H4008     1.0  0.53509  0.02509  0.71915  1.0000
  H   H4009     1.0  0.72390  0.10118  0.59428  1.0000
  H   H4010     1.0  0.72472  0.99646  0.58888  1.0000
  H   H4011     1.0  0.73712  0.11715  0.67147  1.0000
  H   H4012     1.0  0.65179  0.15245  0.57999  1.0000
  C   C3353     1.0  0.66214  0.15014  0.60477  1.0000
  H   H4013     1.0  0.77121  0.16930  0.61909  1.0000
  C   C3354     1.0  0.95563  0.17469  0.63835  1.0000
  C   C3355     1.0  0.96376  0.15937  0.63822  1.0000
  C   C3356     1.0  0.95589  0.14828  0.63812  1.0000
  C   C3357     1.0  0.93994  0.15246  0.63787  1.0000
  C   C3358     1.0  0.93189  0.16790  0.63753  1.0000
  C   C3359     1.0  0.93972  0.17896  0.63787  1.0000
  H   H4014     1.0  0.97607  0.15608  0.63830  1.0000
  H   H4015     1.0  0.96216  0.13642  0.63807  1.0000
  H   H4016     1.0  0.91957  0.17122  0.63742  1.0000
  H   H4017     1.0  0.93335  0.19080  0.63799  1.0000
  H   H4018     1.0  0.56770  0.12087  0.71610  1.0000
  C   C3360     1.0  0.84992  0.20635  0.65224  1.0000
  C   C3361     1.0  0.85436  0.19121  0.64962  1.0000
  C   C3362     1.0  0.84290  0.18368  0.64992  1.0000
  C   C3363     1.0  0.82710  0.19115  0.65302  1.0000
  C   C3364     1.0  0.82272  0.20640  0.65509  1.0000
  C   C3365     1.0  0.55534  0.14734  0.59372  1.0000
  H   H4019     1.0  0.86657  0.18538  0.64739  1.0000
  H   H4020     1.0  0.81821  0.18527  0.65347  1.0000
  H   H4021     1.0  0.81050  0.21221  0.65714  1.0000
  S   S905      1.0  0.50849  0.10816  0.66890  1.0000
  H   H4022     1.0  0.58238  0.08753  0.72506  1.0000
  C   C3366     1.0  0.57481  0.09284  0.73487  1.0000
  C   C3367     1.0  0.63243  0.18392  0.69102  1.0000
  H   H4023     1.0  0.62615  0.19793  0.66962  1.0000
  H   H4024     1.0  0.62084  0.18186  0.69634  1.0000
  C   C3368     1.0  0.56891  0.17528  0.63595  1.0000
  N   N221      1.0  0.74992  0.13798  0.57915  1.0000
  C   C3369     1.0  0.85124  0.10129  0.59465  1.0000
  C   C3370     1.0  0.86292  0.10988  0.58957  1.0000
  C   C3371     1.0  0.87080  0.11118  0.60010  1.0000
  C   C3372     1.0  0.86738  0.10344  0.61566  1.0000
  C   C3373     1.0  0.85547  0.09513  0.62082  1.0000
  C   C3374     1.0  0.84723  0.09430  0.61039  1.0000
  C   C3375     1.0  0.50052  0.15637  0.60310  1.0000
  H   H4025     1.0  0.88002  0.11756  0.59603  1.0000
  H   H4026     1.0  0.85286  0.08907  0.63283  1.0000
  H   H4027     1.0  0.83836  0.08761  0.61441  1.0000
  C   C3376     1.0  0.75678  0.12323  0.62825  1.0000
  C   C3377     1.0  0.74926  0.13840  0.62984  1.0000
  C   C3378     1.0  0.73295  0.14305  0.63216  1.0000
  C   C3379     1.0  0.72415  0.13240  0.63334  1.0000
  C   C3380     1.0  0.73161  0.11707  0.63231  1.0000
  C   C3381     1.0  0.74798  0.11254  0.62952  1.0000
  H   H4028     1.0  0.75606  0.14664  0.62897  1.0000
  H   H4029     1.0  0.72723  0.15488  0.63309  1.0000
  H   H4030     1.0  0.72479  0.10875  0.63344  1.0000
  H   H4031     1.0  0.75377  0.10074  0.62853  1.0000
  Fe  Fe455     1.0  0.55130  0.03244  0.75033  1.0000
  H   H4032     1.0  0.56002  0.13773  0.73306  1.0000
  H   H4033     1.0  0.66879  0.12754  0.70750  1.0000
  C   C3382     1.0  0.79587  0.17879  0.63463  1.0000
  C   C3383     1.0  0.76850  0.01617  0.61229  1.0000
  C   C3384     1.0  0.78284  0.00764  0.61588  1.0000
  C   C3385     1.0  0.79374  0.01539  0.61674  1.0000
  C   C3386     1.0  0.79050  0.03168  0.61372  1.0000
  C   C3387     1.0  0.77624  0.04018  0.60991  1.0000
  C   C3388     1.0  0.76522  0.03245  0.60934  1.0000
  H   H4034     1.0  0.50276  0.15972  0.61280  1.0000
  H   H4035     1.0  0.80474  0.00873  0.61969  1.0000
  H   H4036     1.0  0.77362  0.05270  0.60750  1.0000
  S   S906      1.0  0.72796  0.20749  0.60901  1.0000
  C   C3389     1.0  0.67932  0.12570  0.67778  1.0000
  H   H4037     1.0  0.51435  0.07956  0.69145  1.0000
  H   H4038     1.0  0.80966  0.22489  0.58804  1.0000
  C   C3390     1.0  0.73349  0.20580  0.63766  1.0000
  C   C3391     1.0  0.65060  0.19518  0.66863  1.0000
  H   H4039     1.0  0.56254  0.09520  0.73371  1.0000
  C   C3392     1.0  0.59477  0.16649  0.61929  1.0000
  N   N222      1.0  0.98329  0.12565  0.67511  1.0000
  H   H4040     1.0  0.72085  0.15965  0.57991  1.0000
  H   H4041     1.0  0.80501  0.01406  0.58256  1.0000
  H   H4042     1.0  0.98248  0.12561  0.65192  1.0000
  H   H4043     1.0  0.66286  0.14533  0.61714  1.0000
  C   C3393     1.0  0.50999  0.02840  0.72636  1.0000
  C   C3394     1.0  0.63003  0.18620  0.57948  1.0000
  C   C3395     1.0  0.71228  0.10855  0.59468  1.0000
  Fe  Fe456     1.0  0.50049  0.16091  0.67962  1.0000
  H   H4044     1.0  0.52968  0.12712  0.70837  1.0000
  C   C3396     1.0  0.52749  0.00463  0.72036  1.0000
  C   C3397     1.0  0.71411  0.00522  0.58797  1.0000
  C   C3398     1.0  0.69255  0.13024  0.60297  1.0000
  H   H4045     1.0  0.69746  0.21477  0.65632  1.0000
  H   H4046     1.0  0.60079  0.16254  0.60830  1.0000
  C   C3399     1.0  0.93198  0.17013  0.59751  1.0000
  C   C3400     1.0  0.69249  0.21908  0.64577  1.0000
  C   C3401     1.0  0.56799  0.18178  0.66040  1.0000
  H   H4047     1.0  0.75902  0.08420  0.58339  1.0000
  C   C3402     1.0  0.98377  0.17698  0.57875  1.0000
  C   C3403     1.0  0.98947  0.16562  0.59068  1.0000
  H   H4048     1.0  0.67746  0.03866  0.58439  1.0000
  H   H4049     1.0  0.52935  0.13269  0.72550  1.0000
  H   H4050     1.0  0.97381  0.15045  0.66964  1.0000
  C   C3404     1.0  0.65419  0.12782  0.60377  1.0000
  C   C3405     1.0  0.68708  0.11544  0.58788  1.0000
  H   H4051     1.0  0.82416  0.11457  0.63430  1.0000
  C   C3406     1.0  0.88416  0.07113  0.59741  1.0000
  H   H4052     1.0  0.96361  0.14001  0.68768  1.0000
  C   C3407     1.0  0.55331  0.16349  0.58885  1.0000
  S   S907      1.0  0.81234  0.07486  0.58055  1.0000
  H   H4053     1.0  0.98566  0.10069  0.68056  1.0000
  H   H4054     1.0  0.81300  0.19865  0.60524  1.0000
  H   H4055     1.0  0.74354  0.11914  0.59786  1.0000
  C   C3408     1.0  0.51841  0.98625  0.76059  1.0000
  C   C3409     1.0  0.52510  0.01992  0.72157  1.0000
  H   H4056     1.0  0.76309  0.12127  0.59520  1.0000
  H   H4057     1.0  0.97173  0.11061  0.69469  1.0000
  C   C3410     1.0  0.98045  0.15522  0.60034  1.0000
  H   H4058     1.0  0.79654  0.18800  0.63949  1.0000
  C   C3411     1.0  0.51183  0.10662  0.72134  1.0000
  H   H4059     1.0  0.86868  0.02795  0.60142  1.0000
  H   H4060     1.0  0.70184  0.21543  0.63593  1.0000
  H   H4061     1.0  0.58831  0.22684  0.73425  1.0000
  H   H4062     1.0  0.87003  0.22482  0.58537  1.0000
  H   H4063     1.0  0.86869  0.04222  0.63438  1.0000
  H   H4064     1.0  0.78338  0.00777  0.57715  1.0000
  H   H4065     1.0  0.50879  0.04019  0.72719  1.0000
  H   H4066     1.0  0.57170  0.09424  0.76615  1.0000
  C   C3412     1.0  0.49963  0.00598  0.72913  1.0000
  C   C3413     1.0  0.52709  0.16991  0.71381  1.0000
  H   H4067     1.0  0.74933  0.22710  0.60311  1.0000
  H   H4068     1.0  0.54513  0.18904  0.67426  1.0000
  H   H4069     1.0  0.67958  0.11290  0.58210  1.0000
  H   H4070     1.0  0.70583  0.09653  0.58133  1.0000
  S   S908      1.0  0.68491  0.20793  0.61092  1.0000
  C   C3414     1.0  0.71586  0.11914  0.70789  1.0000
  Fe  Fe457     1.0  0.76294  0.98171  0.60984  1.0000
  H   H4071     1.0  0.89854  0.07391  0.61093  1.0000
  H   H4072     1.0  0.53788  0.11278  0.72325  1.0000
  C   C3415     1.0  0.69869  0.12904  0.68929  1.0000
  H   H4073     1.0  0.67424  0.19070  0.67133  1.0000
  S   S909      1.0  0.90204  0.16560  0.57756  1.0000
  C   C3416     1.0  0.52463  0.16473  0.70188  1.0000
  H   H4074     1.0  0.80105  0.22790  0.71246  1.0000
  H   H4075     1.0  0.57666  0.19309  0.60727  1.0000
  Fe  Fe458     1.0  0.67505  0.19413  0.63417  1.0000
  C   C3417     1.0  0.68362  0.15128  0.67435  1.0000
  C   C3418     1.0  0.64816  0.19025  0.59227  1.0000
  N   N223      1.0  0.57750  0.16996  0.62147  1.0000
  C   C3419     1.0  0.82063  0.20618  0.60425  1.0000
  C   C3420     1.0  0.49594  0.10831  0.75398  1.0000
  H   H4076     1.0  0.51222  0.15136  0.59644  1.0000
  C   C3421     1.0  0.66261  0.18878  0.67674  1.0000
  H   H4077     1.0  0.56065  0.18500  0.60812  1.0000
  C   C3422     1.0  0.84572  0.05360  0.59770  1.0000
  S   S910      1.0  0.75758  0.22644  0.65394  1.0000
  H   H4078     1.0  0.50088  0.14260  0.72912  1.0000
  H   H4079     1.0  0.84985  0.02414  0.61220  1.0000
  H   H4080     1.0  0.50003  0.10406  0.72462  1.0000
  C   C3423     1.0  0.68760  0.02915  0.58559  1.0000
  H   H4081     1.0  0.95910  0.14775  0.60586  1.0000
  C   C3424     1.0  0.81880  0.22093  0.59454  1.0000
  C   C3425     1.0  0.87380  0.18664  0.57929  1.0000
  H   H4082     1.0  0.73759  0.20544  0.65975  1.0000
  C   C3426     1.0  0.50040  0.13285  0.72443  1.0000
  H   H4083     1.0  0.68973  0.13938  0.60919  1.0000
  H   H4084     1.0  0.51259  0.17805  0.57984  1.0000
  H   H4085     1.0  0.97958  0.21571  0.61703  1.0000
  H   H4086     1.0  0.49231  0.98854  0.70819  1.0000
  C   C3427     1.0  0.55878  0.13016  0.74447  1.0000
  C   C3428     1.0  0.79387  0.15516  0.62222  1.0000
  H   H4087     1.0  0.82991  0.04498  0.62531  1.0000
  N   N224      1.0  0.85307  0.04672  0.61132  1.0000
  C   C3429     1.0  0.74018  0.21016  0.64738  1.0000
  C   C3430     1.0  0.84051  0.04867  0.62542  1.0000
  C   C3431     1.0  0.85923  0.02990  0.61183  1.0000
  C   C3432     1.0  0.86594  0.05385  0.61077  1.0000
  C   C3433     1.0  0.87237  0.06422  0.59733  1.0000
  C   C3434     1.0  0.87261  0.05033  0.62390  1.0000
  C   C3435     1.0  0.84056  0.22598  0.60176  1.0000
  C   C3436     1.0  0.88427  0.05746  0.62389  1.0000
  C   C3437     1.0  0.88994  0.06794  0.61071  1.0000
  H   H4088     1.0  0.57947  0.17846  0.59674  1.0000
  C   C3438     1.0  0.70096  0.12552  0.70469  1.0000
  H   H4089     1.0  0.69144  0.12763  0.71446  1.0000
  C   C3439     1.0  0.96908  0.17788  0.57627  1.0000
  C   C3440     1.0  0.57655  0.17685  0.64677  1.0000
  H   H4090     1.0  0.86812  0.06771  0.58676  1.0000
  H   H4091     1.0  0.96114  0.13895  0.66948  1.0000
  C   C3441     1.0  0.50992  0.11330  0.74554  1.0000
  H   H4092     1.0  0.57581  0.14618  0.63170  1.0000
  H   H4093     1.0  0.50187  0.13702  0.71163  1.0000
  Fe  Fe459     1.0  0.50585  0.16552  0.64481  1.0000
  H   H4094     1.0  0.94609  0.14268  0.59054  1.0000
  H   H4095     1.0  0.51460  0.11011  0.70844  1.0000
  H   H4096     1.0  0.85113  0.22923  0.62535  1.0000
  H   H4097     1.0  0.74519  0.03007  0.58607  1.0000
  H   H4098     1.0  0.73552  0.07532  0.58462  1.0000
  H   H4099     1.0  0.77301  0.19018  0.63013  1.0000
  Fe  Fe460     1.0  0.55095  0.06551  0.73224  1.0000
  S   S911      1.0  0.55807  0.08279  0.71049  1.0000
  H   H4100     1.0  0.58911  0.17431  0.64505  1.0000
  S   S912      1.0  0.51937  0.14951  0.66220  1.0000
  C   C3442     1.0  0.52338  0.01364  0.76380  1.0000
  H   H4101     1.0  0.68299  0.21296  0.64770  1.0000
  H   H4102     1.0  0.71735  0.11658  0.71970  1.0000
  H   H4103     1.0  0.71900  0.01751  0.60225  1.0000
  H   H4104     1.0  0.86927  0.17843  0.58939  1.0000
  C   C3443     1.0  0.57314  0.15557  0.62151  1.0000
  N   N225      1.0  0.82048  0.13951  0.62625  1.0000
  C   C3444     1.0  0.81455  0.12519  0.63440  1.0000
  C   C3445     1.0  0.82694  0.13904  0.60966  1.0000
  C   C3446     1.0  0.83361  0.13915  0.63300  1.0000
  C   C3447     1.0  0.80757  0.15344  0.62754  1.0000
  N   N226      1.0  0.68319  0.13601  0.68531  1.0000
  C   C3448     1.0  0.80822  0.16573  0.63376  1.0000
  H   H4105     1.0  0.95598  0.22404  0.57626  1.0000
  C   C3449     1.0  0.50853  0.01027  0.76943  1.0000
  H   H4106     1.0  0.65541  0.12182  0.61582  1.0000
  H   H4107     1.0  0.80876  0.12551  0.64671  1.0000
  H   H4108     1.0  0.80593  0.12349  0.62892  1.0000
  C   C3450     1.0  0.51828  0.10621  0.77024  1.0000
  H   H4109     1.0  0.83709  0.12906  0.60818  1.0000
  H   H4110     1.0  0.83110  0.14981  0.60300  1.0000
  H   H4111     1.0  0.81822  0.13772  0.60405  1.0000
  C   C3451     1.0  0.73658  0.21206  0.62168  1.0000
  H   H4112     1.0  0.83911  0.14923  0.62696  1.0000
  H   H4113     1.0  0.82972  0.13923  0.64558  1.0000
  H   H4114     1.0  0.67954  0.11388  0.68539  1.0000
  H   H4115     1.0  0.81811  0.16553  0.63813  1.0000
  H   H4116     1.0  0.67205  0.14670  0.70494  1.0000
  S   S913      1.0  0.60805  0.14433  0.58297  1.0000
  S   S914      1.0  0.57473  0.16146  0.70525  1.0000
  C   C3452     1.0  0.82863  0.23070  0.59320  1.0000
  S   S915      1.0  0.56967  0.04653  0.74155  1.0000
  C   C3453     1.0  0.64443  0.17753  0.69915  1.0000
  H   H4117     1.0  0.83372  0.18966  0.62028  1.0000
  C   C3454     1.0  0.83412  0.21406  0.65459  1.0000
  H   H4118     1.0  0.50585  0.07409  0.74080  1.0000
  C   C3455     1.0  0.96994  0.13937  0.67556  1.0000
  H   H4119     1.0  0.64199  0.13478  0.60421  1.0000
  S   S916      1.0  0.57584  0.19728  0.76416  1.0000
  H   H4120     1.0  0.57398  0.18261  0.66869  1.0000
  C   C3456     1.0  0.74645  0.14927  0.58911  1.0000
  S   S917      1.0  0.57342  0.16158  0.74991  1.0000
  H   H4121     1.0  0.56050  0.15741  0.62199  1.0000
  H   H4122     1.0  0.53977  0.18565  0.59360  1.0000
  C   C3457     1.0  0.63297  0.18958  0.59221  1.0000
  C   C3458     1.0  0.56755  0.11458  0.74736  1.0000
  H   H4123     1.0  0.55455  0.10887  0.68531  1.0000
  H   H4124     1.0  0.65876  0.14405  0.69557  1.0000
  C   C3459     1.0  0.59482  0.10338  0.73795  1.0000
  C   C3460     1.0  0.95963  0.16731  0.58582  1.0000
  C   C3461     1.0  0.74679  0.22230  0.61548  1.0000
  H   H4125     1.0  0.96725  0.11167  0.67654  1.0000
  C   C3462     1.0  0.54581  0.10243  0.68666  1.0000
  C   C3463     1.0  0.69050  0.01696  0.57815  1.0000
  H   H4126     1.0  0.56268  0.15101  0.68558  1.0000
  C   C3464     1.0  0.54566  0.14089  0.60736  1.0000
  H   H4127     1.0  0.53589  0.15338  0.68287  1.0000
  H   H4128     1.0  0.74037  0.11123  0.69851  1.0000
  H   H4129     1.0  0.52698  0.14545  0.62697  1.0000
  C   C3465     1.0  0.54531  0.08862  0.69790  1.0000
  H   H4130     1.0  0.71140  0.12818  0.66554  1.0000
  H   H4131     1.0  0.87081  0.21734  0.60539  1.0000
  H   H4132     1.0  0.53533  0.11874  0.66862  1.0000
  C   C3466     1.0  0.50090  0.18211  0.58712  1.0000
  H   H4133     1.0  0.85875  0.21223  0.65196  1.0000
  C   C3467     1.0  0.53419  0.15054  0.61629  1.0000
  C   C3468     1.0  0.53480  0.10815  0.67735  1.0000
  H   H4134     1.0  0.57940  0.15113  0.61081  1.0000
  C   C3469     1.0  0.60466  0.19812  0.76764  1.0000
  H   H4135     1.0  0.93336  0.15246  0.57771  1.0000
  C   C3470     1.0  0.83225  0.20116  0.61274  1.0000
  H   H4136     1.0  0.59830  0.11401  0.73807  1.0000
  C   C3471     1.0  0.63547  0.19293  0.67585  1.0000
  C   C3472     1.0  0.71102  0.01735  0.59551  1.0000
  Fe  Fe461     1.0  0.58396  0.16484  0.72436  1.0000
  C   C3473     1.0  0.66383  0.14524  0.58012  1.0000
  C   C3474     1.0  0.78160  0.16827  0.62316  1.0000
  C   C3475     1.0  0.67023  0.13860  0.69895  1.0000
  H   H4137     1.0  0.65547  0.11869  0.59749  1.0000
  H   H4138     1.0  0.58766  0.11155  0.71008  1.0000
  H   H4139     1.0  0.97955  0.20243  0.60606  1.0000
  H   H4140     1.0  0.60369  0.09777  0.72896  1.0000
  C   C3476     1.0  0.53415  0.08020  0.69947  1.0000
  C   C3477     1.0  0.53755  0.15754  0.69201  1.0000
  C   C3478     1.0  0.55277  0.15616  0.69361  1.0000
  H   H4141     1.0  0.78545  0.99509  0.61818  1.0000
  C   C3479     1.0  0.50590  0.99673  0.76751  1.0000
  C   C3480     1.0  0.49676  0.02171  0.73027  1.0000
  H   H4142     1.0  0.73611  0.14763  0.59880  1.0000
  C   C3481     1.0  0.54647  0.12796  0.77176  1.0000
  C   C3482     1.0  0.68183  0.12788  0.59571  1.0000
  S   S918      1.0  0.69826  0.18211  0.64046  1.0000
  S   S919      1.0  0.67318  0.17495  0.62468  1.0000
  Fe  Fe462     1.0  0.58667  0.17898  0.74980  1.0000
  S   S920      1.0  0.70936  0.17566  0.60517  1.0000
  H   H4143     1.0  0.85400  0.05139  0.58670  1.0000
  H   H4144     1.0  0.53117  0.18645  0.65597  1.0000
  C   C3483     1.0  0.51479  0.99767  0.72412  1.0000
  H   H4145     1.0  0.66751  0.13040  0.67506  1.0000
  H   H4146     1.0  0.69198  0.15022  0.66313  1.0000
  H   H4147     1.0  0.53194  0.11578  0.74887  1.0000
  H   H4148     1.0  0.69557  0.03890  0.59986  1.0000
  C   C3484     1.0  0.55527  0.16199  0.70505  1.0000
  C   C3485     1.0  0.65946  0.18015  0.69206  1.0000
  H   H4149     1.0  0.66867  0.17551  0.69843  1.0000
  C   C3486     1.0  0.94451  0.15248  0.58036  1.0000
  S   S921      1.0  0.53349  0.05053  0.73869  1.0000
  C   C3487     1.0  0.52333  0.10004  0.67921  1.0000
  C   C3488     1.0  0.52317  0.08589  0.69005  1.0000
  S   S922      1.0  0.59520  0.18406  0.72379  1.0000
  C   C3489     1.0  0.57934  0.11747  0.71916  1.0000
  H   H4150     1.0  0.84315  0.12855  0.63192  1.0000
  C   C3490     1.0  0.70750  0.12065  0.60244  1.0000
  C   C3491     1.0  0.55170  0.18538  0.66359  1.0000
  H   H4151     1.0  0.68763  0.12436  0.66656  1.0000
  C   C3492     1.0  0.52809  0.12302  0.72121  1.0000
  Fe  Fe463     1.0  0.52587  0.05839  0.76111  1.0000
  S   S923      1.0  0.51761  0.17888  0.62222  1.0000
  H   H4152     1.0  0.65009  0.15736  0.60471  1.0000
  H   H4153     1.0  0.88875  0.05515  0.63424  1.0000
  C   C3493     1.0  0.57334  0.18214  0.60787  1.0000
  H   H4154     1.0  0.79253  0.14632  0.61733  1.0000
  C   C3494     1.0  0.56519  0.10602  0.76298  1.0000
  N   N227      1.0  0.94420  0.16761  0.58338  1.0000
  H   H4155     1.0  0.62352  0.19157  0.60209  1.0000
  C   C3495     1.0  0.75357  0.22658  0.62518  1.0000
  H   H4156     1.0  0.93324  0.16009  0.60752  1.0000
  H   H4157     1.0  0.57895  0.00157  0.77271  1.0000
  S   S924      1.0  0.59429  0.12052  0.76773  1.0000
  S   S925      1.0  0.56974  0.13501  0.58291  1.0000
  H   H4158     1.0  0.86421  0.02380  0.62223  1.0000
  H   H4159     1.0  0.65037  0.19271  0.60218  1.0000
  C   C3496     1.0  0.97674  0.11154  0.68204  1.0000
  H   H4160     1.0  0.75864  0.11306  0.58212  1.0000
  H   H4161     1.0  0.59899  0.17704  0.61838  1.0000
  H   H4162     1.0  0.82055  0.22577  0.71438  1.0000
  C   C3497     1.0  0.70209  0.10596  0.58739  1.0000
  Fe  Fe464     1.0  0.70818  0.19475  0.61650  1.0000
  H   H4163     1.0  0.50332  0.18591  0.59648  1.0000
  C   C3498     1.0  0.72701  0.11944  0.68079  1.0000
  C   C3499     1.0  0.84198  0.21093  0.61166  1.0000
  C   C3500     1.0  0.72884  0.11612  0.69598  1.0000
  C   C3501     1.0  0.54237  0.16855  0.71541  1.0000
  H   H4164     1.0  0.72600  0.19758  0.64253  1.0000
  H   H4165     1.0  0.52029  0.09560  0.72482  1.0000
  H   H4166     1.0  0.75419  0.03912  0.60651  1.0000
  Fe  Fe465     1.0  0.68511  0.18761  0.60191  1.0000
  H   H4167     1.0  0.59885  0.15708  0.62886  1.0000
  H   H4168     1.0  0.54563  0.17798  0.63211  1.0000
  C   C3502     1.0  0.78259  0.18005  0.62935  1.0000
  H   H4169     1.0  0.86608  0.11533  0.57741  1.0000
  S   S926      1.0  0.61108  0.18473  0.57989  1.0000
  H   H4170     1.0  0.71536  0.12268  0.60816  1.0000
  H   H4171     1.0  0.84412  0.04159  0.63629  1.0000
  N   N228      1.0  0.66582  0.13765  0.59616  1.0000
  H   H4172     1.0  0.83556  0.04862  0.59875  1.0000
  H   H4173     1.0  0.84130  0.06638  0.59643  1.0000
  C   C3503     1.0  0.96573  0.15604  0.59801  1.0000
  H   H4174     1.0  0.74430  0.16150  0.58236  1.0000
  H   H4175     1.0  0.51716  0.17542  0.72156  1.0000
  N   N229      1.0  0.97569  0.22644  0.59394  1.0000
  C   C3504     1.0  0.54149  0.17316  0.59752  1.0000
  S   S927      1.0  0.54258  0.03938  0.77321  1.0000
  H   H4176     1.0  0.75906  0.00572  0.57840  1.0000
  H   H4177     1.0  0.67200  0.15723  0.67150  1.0000
  H   H4178     1.0  0.67019  0.15827  0.59940  1.0000
  H   H4179     1.0  0.95347  0.21970  0.60275  1.0000
  H   H4180     1.0  0.93230  0.18060  0.60111  1.0000
  C   C3505     1.0  0.54387  0.18389  0.65331  1.0000
  H   H4181     1.0  0.88838  0.07956  0.58728  1.0000
  H   H4182     1.0  0.68723  0.15912  0.67928  1.0000
  H   H4183     1.0  0.54196  0.14863  0.75408  1.0000
  H   H4184     1.0  0.75637  0.14783  0.59459  1.0000
  C   C3506     1.0  0.54832  0.13664  0.75653  1.0000
  H   H4185     1.0  0.56066  0.16852  0.57825  1.0000
  C   C3507     1.0  0.58843  0.20342  0.77152  1.0000
  H   H4186     1.0  0.52503  0.02441  0.76478  1.0000
  C   C3508     1.0  0.86754  0.22812  0.59670  1.0000
  Fe  Fe466     1.0  0.99094  0.18144  0.63900  1.0000
  H   H4187     1.0  0.49391  0.14697  0.60832  1.0000
  C   C3509     1.0  0.61444  0.20311  0.77370  1.0000
  H   H4188     1.0  0.61504  0.07775  0.77121  1.0000
  H   H4189     1.0  0.80795  0.04120  0.57610  1.0000
  S   S928      1.0  0.50087  0.06288  0.77401  1.0000
  H   H4190     1.0  0.62699  0.19911  0.77046  1.0000
  C   C3510     1.0  0.95860  0.22996  0.60063  1.0000
  C   C3511     1.0  0.55488  0.11267  0.77497  1.0000
  H   H4191     1.0  0.49905  0.01835  0.77501  1.0000
  S   S929      1.0  0.57521  0.05982  0.77513  1.0000
  C   C3512     1.0  0.54102  0.99780  0.90707  1.0000
  Fe  Fe467     1.0  0.56169  0.07400  0.85146  1.0000
  S   S930      1.0  0.58635  0.06327  0.84095  1.0000
  S   S931      1.0  0.54207  0.07653  0.83993  1.0000
  Fe  Fe468     1.0  0.57088  0.07661  0.87983  1.0000
  S   S932      1.0  0.59609  0.06560  0.87170  1.0000
  S   S933      1.0  0.56181  0.08511  0.90212  1.0000
  Fe  Fe469     1.0  0.59296  0.08125  0.84863  1.0000
  C   C3513     1.0  0.58135  0.17023  0.84988  1.0000
  Fe  Fe470     1.0  0.58676  0.04877  0.86490  1.0000
  S   S934      1.0  0.59611  0.02269  0.86857  1.0000
  S   S935      1.0  0.56820  0.09322  0.85716  1.0000
  S   S936      1.0  0.56175  0.05846  0.87510  1.0000
  Fe  Fe471     1.0  0.55065  0.15848  0.94565  1.0000
  S   S937      1.0  0.55829  0.17305  0.95668  1.0000
  S   S938      1.0  0.52571  0.15832  0.94798  1.0000
  Fe  Fe472     1.0  0.58342  0.14421  0.93045  1.0000
  S   S939      1.0  0.59437  0.15713  0.94048  1.0000
  S   S940      1.0  0.59696  0.13078  0.91193  1.0000
  Fe  Fe473     1.0  0.57647  0.15151  0.96242  1.0000
  C   C3514     1.0  0.61811  0.14837  0.85629  1.0000
  Fe  Fe474     1.0  0.57535  0.17760  0.93405  1.0000
  S   S941      1.0  0.58140  0.20096  0.92386  1.0000
  S   S942      1.0  0.56740  0.13643  0.95310  1.0000
  S   S943      1.0  0.56580  0.16525  0.92226  1.0000
  H   H4192     1.0  0.57223  0.14335  0.82585  1.0000
  C   C3515     1.0  0.59161  0.10238  0.81323  1.0000
  H   H4193     1.0  0.50406  0.19232  0.96067  1.0000
  C   C3516     1.0  0.58595  0.16788  0.82291  1.0000
  H   H4194     1.0  0.57824  0.10506  0.79642  1.0000
  C   C3517     1.0  0.51792  0.17458  0.93503  1.0000
  C   C3518     1.0  0.50439  0.17502  0.93050  1.0000
  H   H4195     1.0  0.50652  0.20918  0.96489  1.0000
  C   C3519     1.0  0.50522  0.20084  0.91459  1.0000
  C   C3520     1.0  0.51872  0.20041  0.91916  1.0000
  C   C3521     1.0  0.52521  0.18718  0.92922  1.0000
  H   H4196     1.0  0.61814  0.12590  0.77975  1.0000
  C   C3522     1.0  0.50458  0.10112  0.77808  1.0000
  H   H4197     1.0  0.52427  0.21023  0.91478  1.0000
  H   H4198     1.0  0.53565  0.18687  0.93272  1.0000
  C   C3523     1.0  0.57734  0.20927  0.90545  1.0000
  C   C3524     1.0  0.58651  0.21912  0.89469  1.0000
  N   N230      1.0  0.61078  0.03286  0.81020  1.0000
  C   C3525     1.0  0.49813  0.18811  0.92011  1.0000
  C   C3526     1.0  0.56329  0.21123  0.88600  1.0000
  C   C3527     1.0  0.56553  0.20556  0.90119  1.0000
  C   C3528     1.0  0.58442  0.22462  0.87942  1.0000
  H   H4199     1.0  0.60826  0.05242  0.78182  1.0000
  H   H4200     1.0  0.55423  0.20827  0.88266  1.0000
  H   H4201     1.0  0.55810  0.19836  0.90959  1.0000
  H   H4202     1.0  0.57555  0.21649  0.96522  1.0000
  H   H4203     1.0  0.56607  0.03109  0.80500  1.0000
  H   H4204     1.0  0.59310  0.13597  0.82433  1.0000
  H   H4205     1.0  0.62242  0.18981  0.85366  1.0000
  C   C3529     1.0  0.57292  0.22052  0.87505  1.0000
  H   H4206     1.0  0.58771  0.17419  0.97150  1.0000
  H   H4207     1.0  0.50724  0.00925  0.81231  1.0000
  H   H4208     1.0  0.59383  0.16288  0.89504  1.0000
  C   C3530     1.0  0.58742  0.19178  0.82895  1.0000
  H   H4209     1.0  0.60719  0.03217  0.83457  1.0000
  C   C3531     1.0  0.60199  0.15820  0.80018  1.0000
  H   H4210     1.0  0.61164  0.15234  0.80641  1.0000
  C   C3532     1.0  0.59186  0.21865  0.78771  1.0000
  S   S944      1.0  0.57117  0.98625  0.83475  1.0000
  H   H4211     1.0  0.58418  0.09600  0.82259  1.0000
  C   C3533     1.0  0.57286  0.09632  0.90539  1.0000
  C   C3534     1.0  0.58571  0.10072  0.89414  1.0000
  C   C3535     1.0  0.59340  0.11089  0.89647  1.0000
  C   C3536     1.0  0.58818  0.11684  0.90995  1.0000
  C   C3537     1.0  0.57556  0.11218  0.92131  1.0000
  C   C3538     1.0  0.56799  0.10188  0.91907  1.0000
  H   H4212     1.0  0.58956  0.09648  0.88355  1.0000
  H   H4213     1.0  0.60323  0.11436  0.88768  1.0000
  H   H4214     1.0  0.57157  0.11652  0.93181  1.0000
  H   H4215     1.0  0.55815  0.09841  0.92786  1.0000
  C   C3539     1.0  0.55004  0.07355  0.82105  1.0000
  C   C3540     1.0  0.56460  0.07682  0.81335  1.0000
  H   H4216     1.0  0.63612  0.15999  0.88936  1.0000
  H   H4217     1.0  0.54836  0.21484  0.94113  1.0000
  C   C3541     1.0  0.54973  0.06364  0.79933  1.0000
  C   C3542     1.0  0.54234  0.06733  0.81385  1.0000
  H   H4218     1.0  0.57014  0.08227  0.81854  1.0000
  H   H4219     1.0  0.53095  0.06492  0.81971  1.0000
  C   C3543     1.0  0.60811  0.21342  0.78372  1.0000
  C   C3544     1.0  0.57164  0.01205  0.84374  1.0000
  C   C3545     1.0  0.57704  0.02029  0.85118  1.0000
  C   C3546     1.0  0.58847  0.01254  0.85981  1.0000
  H   H4220     1.0  0.53386  0.12890  0.88629  1.0000
  C   C3547     1.0  0.58858  0.98816  0.85402  1.0000
  C   C3548     1.0  0.55039  0.01637  0.80811  1.0000
  H   H4221     1.0  0.57249  0.03268  0.85007  1.0000
  C   C3549     1.0  0.61518  0.04811  0.80382  1.0000
  H   H4222     1.0  0.53864  0.13314  0.78112  1.0000
  H   H4223     1.0  0.56231  0.12796  0.89468  1.0000
  H   H4224     1.0  0.56953  0.21786  0.78463  1.0000
  H   H4225     1.0  0.58337  0.07560  0.79327  1.0000
  H   H4226     1.0  0.60329  0.99044  0.86755  1.0000
  C   C3550     1.0  0.59426  0.99647  0.86113  1.0000
  H   H4227     1.0  0.54306  0.14935  0.91832  1.0000
  C   C3551     1.0  0.54681  0.00494  0.80284  1.0000
  C   C3552     1.0  0.57430  0.01663  0.78836  1.0000
  H   H4228     1.0  0.59561  0.22205  0.89801  1.0000
  C   C3553     1.0  0.61950  0.02214  0.79970  1.0000
  H   H4229     1.0  0.55572  0.99136  0.78472  1.0000
  H   H4230     1.0  0.62691  0.18078  0.83019  1.0000
  C   C3554     1.0  0.53007  0.15738  0.89320  1.0000
  C   C3555     1.0  0.51627  0.15946  0.88787  1.0000
  H   H4231     1.0  0.54503  0.17039  0.89664  1.0000
  N   N231      1.0  0.53898  0.14191  0.89977  1.0000
  C   C3556     1.0  0.51863  0.01285  0.80739  1.0000
  C   C3557     1.0  0.53505  0.17100  0.89220  1.0000
  H   H4232     1.0  0.59051  0.03982  0.80009  1.0000
  H   H4233     1.0  0.59785  0.99421  0.89876  1.0000
  H   H4234     1.0  0.62590  0.08886  0.78624  1.0000
  C   C3558     1.0  0.52698  0.18574  0.88587  1.0000
  H   H4235     1.0  0.54397  0.05842  0.79399  1.0000
  C   C3559     1.0  0.53331  0.12872  0.89857  1.0000
  C   C3560     1.0  0.57202  0.07309  0.79899  1.0000
  C   C3561     1.0  0.56479  0.06612  0.79215  1.0000
  H   H4236     1.0  0.62445  0.15432  0.83136  1.0000
  C   C3562     1.0  0.62508  0.06952  0.80587  1.0000
  H   H4237     1.0  0.63235  0.02091  0.79777  1.0000
  H   H4238     1.0  0.62274  0.04968  0.82393  1.0000
  H   H4239     1.0  0.54259  0.02127  0.81760  1.0000
  H   H4240     1.0  0.52118  0.12866  0.90549  1.0000
  C   C3563     1.0  0.61060  0.11955  0.78916  1.0000
  H   H4241     1.0  0.51141  0.14983  0.88844  1.0000
  H   H4242     1.0  0.58431  0.13745  0.80878  1.0000
  H   H4243     1.0  0.61697  0.13679  0.85678  1.0000
  C   C3564     1.0  0.61426  0.11382  0.80390  1.0000
  H   H4244     1.0  0.56183  0.14736  0.89438  1.0000
  C   C3565     1.0  0.59775  0.11610  0.78640  1.0000
  H   H4245     1.0  0.56239  0.16929  0.81003  1.0000
  S   S945      1.0  0.61464  0.22444  0.83318  1.0000
  C   C3566     1.0  0.58249  0.16152  0.83917  1.0000
  H   H4246     1.0  0.61072  0.01366  0.83025  1.0000
  H   H4247     1.0  0.62931  0.07477  0.81264  1.0000
  C   C3567     1.0  0.53077  0.99400  0.82719  1.0000
  C   C3568     1.0  0.59382  0.03494  0.81149  1.0000
  H   H4248     1.0  0.53850  0.99976  0.87813  1.0000
  H   H4249     1.0  0.61636  0.02621  0.78817  1.0000
  H   H4250     1.0  0.55627  0.00494  0.87719  1.0000
  C   C3569     1.0  0.61406  0.02514  0.82583  1.0000
  C   C3570     1.0  0.61324  0.05666  0.78874  1.0000
  H   H4251     1.0  0.61696  0.01033  0.80454  1.0000
  H   H4252     1.0  0.52849  0.00168  0.90635  1.0000
  H   H4253     1.0  0.49878  0.16526  0.93500  1.0000
  H   H4254     1.0  0.59007  0.02370  0.81627  1.0000
  C   C3571     1.0  0.50814  0.17430  0.88180  1.0000
  C   C3572     1.0  0.56393  0.02206  0.80098  1.0000
  H   H4255     1.0  0.51817  0.02254  0.81260  1.0000
  H   H4256     1.0  0.56299  0.01818  0.83687  1.0000
  H   H4257     1.0  0.58683  0.22649  0.79546  1.0000
  H   H4258     1.0  0.58940  0.18282  0.88485  1.0000
  H   H4259     1.0  0.53078  0.19603  0.88551  1.0000
  C   C3573     1.0  0.51351  0.18739  0.88077  1.0000
  C   C3574     1.0  0.61709  0.07119  0.78253  1.0000
  H   H4260     1.0  0.56112  0.20785  0.95422  1.0000
  C   C3575     1.0  0.57740  0.99597  0.84512  1.0000
  C   C3576     1.0  0.59711  0.17427  0.89229  1.0000
  H   H4261     1.0  0.59137  0.18872  0.80604  1.0000
  H   H4262     1.0  0.55685  0.14284  0.87872  1.0000
  H   H4263     1.0  0.54058  0.11725  0.90324  1.0000
  H   H4264     1.0  0.62668  0.02301  0.82575  1.0000
  H   H4265     1.0  0.59432  0.17791  0.90349  1.0000
  H   H4266     1.0  0.50696  0.19891  0.87647  1.0000
  S   S946      1.0  0.60984  0.09639  0.83388  1.0000
  H   H4267     1.0  0.57434  0.16210  0.79320  1.0000
  C   C3577     1.0  0.62111  0.17815  0.85504  1.0000
  H   H4268     1.0  0.57583  0.17992  0.79603  1.0000
  H   H4269     1.0  0.52542  0.14264  0.92294  1.0000
  H   H4270     1.0  0.62965  0.18893  0.87685  1.0000
  H   H4271     1.0  0.58934  0.20353  0.82500  1.0000
  H   H4272     1.0  0.49747  0.17569  0.87808  1.0000
  H   H4273     1.0  0.58676  0.04302  0.81921  1.0000
  H   H4274     1.0  0.62456  0.11583  0.80592  1.0000
  C   C3578     1.0  0.57425  0.16803  0.80227  1.0000
  H   H4275     1.0  0.61196  0.14533  0.88082  1.0000
  H   H4276     1.0  0.61483  0.19212  0.89386  1.0000
  C   C3579     1.0  0.61718  0.18880  0.88252  1.0000
  C   C3580     1.0  0.61535  0.15335  0.87002  1.0000
  C   C3581     1.0  0.58393  0.14339  0.81793  1.0000
  H   H4277     1.0  0.57871  0.16520  0.86222  1.0000
  C   C3582     1.0  0.60488  0.10492  0.81584  1.0000
  H   H4278     1.0  0.60959  0.19819  0.87554  1.0000
  C   C3583     1.0  0.58207  0.21371  0.78158  1.0000
  C   C3584     1.0  0.58820  0.10768  0.79850  1.0000
  C   C3585     1.0  0.55566  0.14005  0.89151  1.0000
  H   H4279     1.0  0.54395  0.12906  0.92207  1.0000
  C   C3586     1.0  0.61693  0.16834  0.86985  1.0000
  H   H4280     1.0  0.62204  0.16584  0.90596  1.0000
  H   H4281     1.0  0.54055  0.21389  0.96161  1.0000
  C   C3587     1.0  0.58369  0.18536  0.84478  1.0000
  C   C3588     1.0  0.62234  0.15821  0.84198  1.0000
  H   H4282     1.0  0.58269  0.19215  0.85307  1.0000
  C   C3589     1.0  0.62120  0.05503  0.81225  1.0000
  H   H4283     1.0  0.58061  0.14987  0.84392  1.0000
  N   N232      1.0  0.61382  0.17335  0.88459  1.0000
  C   C3590     1.0  0.58856  0.18320  0.81818  1.0000
  S   S947      1.0  0.49695  0.21754  0.90242  1.0000
  C   C3591     1.0  0.53783  0.14068  0.91644  1.0000
  C   C3592     1.0  0.62377  0.17308  0.84136  1.0000
  H   H4284     1.0  0.62021  0.15043  0.89910  1.0000
  C   C3593     1.0  0.62349  0.16192  0.89513  1.0000
  N   N233      1.0  0.58652  0.15941  0.81116  1.0000
  H   H4285     1.0  0.53017  0.00324  0.83304  1.0000
  H   H4286     1.0  0.50279  0.09593  0.79040  1.0000
  H   H4287     1.0  0.57129  0.00367  0.89496  1.0000
  S   S948      1.0  0.62092  0.21977  0.79060  1.0000
  N   N234      1.0  0.53201  0.99965  0.81021  1.0000
  C   C3594     1.0  0.55760  0.99966  0.78990  1.0000
  H   H4288     1.0  0.51943  0.01771  0.79473  1.0000
  C   C3595     1.0  0.51123  0.19645  0.96603  1.0000
  H   H4289     1.0  0.55698  0.98703  0.87260  1.0000
  H   H4290     1.0  0.52337  0.19464  0.95890  1.0000
  H   H4291     1.0  0.57678  0.22689  0.93937  1.0000
  H   H4292     1.0  0.60420  0.16973  0.79325  1.0000
  H   H4293     1.0  0.60294  0.15142  0.79154  1.0000
  C   C3596     1.0  0.55041  0.21667  0.95180  1.0000
  C   C3597     1.0  0.55042  0.99501  0.88054  1.0000
  S   S949      1.0  0.57077  0.22642  0.85586  1.0000
  C   C3598     1.0  0.56716  0.22531  0.97078  1.0000
  C   C3599     1.0  0.62309  0.07754  0.79103  1.0000
  C   C3600     1.0  0.53059  0.98679  0.80424  1.0000
  H   H4294     1.0  0.53019  0.99047  0.79173  1.0000
  C   C3601     1.0  0.59088  0.98589  0.90013  1.0000
  C   C3602     1.0  0.57553  0.99122  0.89805  1.0000
  H   H4295     1.0  0.54552  0.00860  0.90380  1.0000
  C   C3603     1.0  0.57113  0.00546  0.78284  1.0000
  H   H4296     1.0  0.55363  0.10595  0.78685  1.0000
  H   H4297     1.0  0.54152  0.99236  0.91942  1.0000
  H   H4298     1.0  0.52008  0.98931  0.83302  1.0000
  H   H4299     1.0  0.51962  0.98270  0.81042  1.0000
  H   H4300     1.0  0.54105  0.98457  0.82969  1.0000
  H   H4301     1.0  0.58452  0.02144  0.78256  1.0000
  N   N235      1.0  0.54996  0.98676  0.89694  1.0000
  H   H4302     1.0  0.52704  0.10495  0.77662  1.0000
  Fe  Fe475     1.0  0.58207  0.27553  0.12939  1.0000
  S   S950      1.0  0.60423  0.27711  0.11146  1.0000
  S   S951      1.0  0.55998  0.28285  0.12048  1.0000
  Fe  Fe476     1.0  0.61198  0.28447  0.12882  1.0000
  S   S952      1.0  0.62043  0.30678  0.12244  1.0000
  H   H4303     1.0  0.55306  0.31179  0.07724  1.0000
  S   S953      1.0  0.58893  0.28487  0.14587  1.0000
  C   C3604     1.0  0.76108  0.40084  0.99035  1.0000
  H   H4304     1.0  0.97049  0.36848  0.07430  1.0000
  Fe  Fe477     1.0  0.70938  0.43913  0.01053  1.0000
  S   S954      1.0  0.71438  0.45375  0.02361  1.0000
  S   S955      1.0  0.72260  0.43371  0.98755  1.0000
  Fe  Fe478     1.0  0.67987  0.43346  0.03353  1.0000
  S   S956      1.0  0.68175  0.44731  0.04900  1.0000
  S   S957      1.0  0.65975  0.42199  0.04032  1.0000
  Fe  Fe479     1.0  0.68862  0.46433  0.02707  1.0000
  C   C3605     1.0  0.54996  0.24770  0.12002  1.0000
  Fe  Fe480     1.0  0.70702  0.43566  0.04470  1.0000
  S   S958      1.0  0.71765  0.42420  0.06530  1.0000
  S   S959      1.0  0.68436  0.45156  0.01179  1.0000
  S   S960      1.0  0.70454  0.42005  0.03130  1.0000
  H   H4305     1.0  0.51833  0.25944  0.10413  1.0000
  H   H4306     1.0  0.61909  0.27623  0.07676  1.0000
  S   S961      1.0  0.92021  0.36379  0.11688  1.0000
  C   C3606     1.0  0.98799  0.35667  0.08772  1.0000
  Fe  Fe481     1.0  0.50134  0.27443  0.05979  1.0000
  H   H4307     1.0  0.52182  0.45395  0.08965  1.0000
  Fe  Fe482     1.0  0.77977  0.34434  0.06500  1.0000
  S   S962      1.0  0.79119  0.35940  0.07161  1.0000
  S   S963      1.0  0.75935  0.33428  0.07991  1.0000
  Fe  Fe483     1.0  0.80200  0.34401  0.03370  1.0000
  S   S964      1.0  0.81599  0.35855  0.03763  1.0000
  S   S965      1.0  0.80806  0.33734  0.01062  1.0000
  Fe  Fe484     1.0  0.81365  0.34411  0.06195  1.0000
  S   S966      1.0  0.83394  0.33586  0.07392  1.0000
  Fe  Fe485     1.0  0.79272  0.37257  0.04689  1.0000
  S   S967      1.0  0.78844  0.39829  0.03819  1.0000
  S   S968      1.0  0.80212  0.32786  0.05710  1.0000
  S   S969      1.0  0.77882  0.35924  0.04123  1.0000
  H   H4308     1.0  0.72313  0.37421  0.15092  1.0000
  S   S970      1.0  0.50959  0.25386  0.04875  1.0000
  H   H4309     1.0  0.66883  0.28247  0.14151  1.0000
  C   C3607     1.0  0.79723  0.37049  0.13925  1.0000
  H   H4310     1.0  0.67241  0.39191  0.11555  1.0000
  C   C3608     1.0  0.65845  0.44534  0.98504  1.0000
  H   H4311     1.0  0.73591  0.39761  0.98159  1.0000
  S   S971      1.0  0.51410  0.28038  0.07411  1.0000
  C   C3609     1.0  0.54628  0.24746  0.98645  1.0000
  H   H4312     1.0  0.96478  0.41691  0.16064  1.0000
  Fe  Fe486     1.0  0.59955  0.26003  0.15550  1.0000
  H   H4313     1.0  0.62101  0.46469  0.99612  1.0000
  C   C3610     1.0  0.60410  0.26189  0.05537  1.0000
  H   H4314     1.0  0.72889  0.35206  0.05710  1.0000
  H   H4315     1.0  0.53499  0.24727  0.07281  1.0000
  C   C3611     1.0  0.78330  0.37876  0.13462  1.0000
  Fe  Fe487     1.0  0.86349  0.38305  0.11334  1.0000
  S   S972      1.0  0.87567  0.35944  0.12450  1.0000
  S   S973      1.0  0.84886  0.38844  0.09563  1.0000
  H   H4316     1.0  0.50056  0.41515  0.07568  1.0000
  H   H4317     1.0  0.67750  0.43444  0.11665  1.0000
  S   S974      1.0  0.85008  0.38999  0.13567  1.0000
  S   S975      1.0  0.88301  0.39444  0.11099  1.0000
  C   C3612     1.0  0.90702  0.40076  0.15901  1.0000
  C   C3613     1.0  0.58882  0.27084  0.05760  1.0000
  H   H4318     1.0  0.65261  0.41750  0.13096  1.0000
  Fe  Fe488     1.0  0.52074  0.39029  0.07929  1.0000
  S   S976      1.0  0.50148  0.38775  0.10058  1.0000
  S   S977      1.0  0.53377  0.40974  0.07101  1.0000
  Fe  Fe489     1.0  0.51355  0.36251  0.10424  1.0000
  S   S978      1.0  0.52024  0.34991  0.12691  1.0000
  Fe  Fe490     1.0  0.69190  0.35942  0.14073  1.0000
  S   S979      1.0  0.53364  0.36545  0.08386  1.0000
  N   N236      1.0  0.64438  0.45793  0.98296  1.0000
  C   C3614     1.0  0.93193  0.40752  0.15781  1.0000
  C   C3615     1.0  0.78862  0.36321  0.11580  1.0000
  C   C3616     1.0  0.94382  0.37044  0.12504  1.0000
  C   C3617     1.0  0.61308  0.28805  0.16799  1.0000
  H   H4319     1.0  0.96322  0.37422  0.13134  1.0000
  H   H4320     1.0  0.94778  0.37504  0.11279  1.0000
  C   C3618     1.0  0.51692  0.29939  0.06782  1.0000
  C   C3619     1.0  0.51947  0.30659  0.05205  1.0000
  C   C3620     1.0  0.52261  0.32152  0.04720  1.0000
  C   C3621     1.0  0.52304  0.32926  0.05813  1.0000
  C   C3622     1.0  0.52024  0.32213  0.07388  1.0000
  C   C3623     1.0  0.51723  0.30719  0.07873  1.0000
  C   C3624     1.0  0.98006  0.33794  0.11178  1.0000
  H   H4321     1.0  0.50871  0.25119  0.08937  1.0000
  H   H4322     1.0  0.52075  0.32800  0.08229  1.0000
  H   H4323     1.0  0.51532  0.30162  0.09094  1.0000
  H   H4324     1.0  0.54191  0.32802  0.14444  1.0000
  S   S980      1.0  0.59029  0.25066  0.14073  1.0000
  C   C3625     1.0  0.84462  0.37277  0.09142  1.0000
  C   C3626     1.0  0.85622  0.35959  0.08865  1.0000
  C   C3627     1.0  0.85281  0.34810  0.08357  1.0000
  C   C3628     1.0  0.83783  0.34981  0.08119  1.0000
  C   C3629     1.0  0.82611  0.36262  0.08470  1.0000
  C   C3630     1.0  0.82947  0.37400  0.08990  1.0000
  H   H4325     1.0  0.86795  0.35852  0.08988  1.0000
  H   H4326     1.0  0.86189  0.33809  0.08102  1.0000
  H   H4327     1.0  0.81447  0.36389  0.08329  1.0000
  H   H4328     1.0  0.82030  0.38382  0.09261  1.0000
  H   H4329     1.0  0.78915  0.38645  0.01158  1.0000
  H   H4330     1.0  0.82662  0.36951  0.14328  1.0000
  C   C3631     1.0  0.79721  0.33977  0.98512  1.0000
  C   C3632     1.0  0.79306  0.33987  0.00093  1.0000
  C   C3633     1.0  0.77729  0.34158  0.00860  1.0000
  C   C3634     1.0  0.76582  0.34300  0.00044  1.0000
  C   C3635     1.0  0.95183  0.40871  0.13340  1.0000
  H   H4331     1.0  0.66600  0.47678  0.11652  1.0000
  H   H4332     1.0  0.77399  0.34142  0.02086  1.0000
  C   C3636     1.0  0.72159  0.36350  0.11075  1.0000
  C   C3637     1.0  0.73458  0.36935  0.10145  1.0000
  C   C3638     1.0  0.74631  0.36047  0.09189  1.0000
  C   C3639     1.0  0.74501  0.34572  0.09170  1.0000
  C   C3640     1.0  0.73195  0.33997  0.10093  1.0000
  C   C3641     1.0  0.72025  0.34883  0.11045  1.0000
  H   H4333     1.0  0.73564  0.38065  0.10182  1.0000
  H   H4334     1.0  0.75632  0.36500  0.08470  1.0000
  H   H4335     1.0  0.73090  0.32858  0.10077  1.0000
  C   C3642     1.0  0.53481  0.41015  0.10059  1.0000
  C   C3643     1.0  0.53991  0.41553  0.08463  1.0000
  C   C3644     1.0  0.54982  0.42605  0.07934  1.0000
  C   C3645     1.0  0.55450  0.43130  0.08993  1.0000
  H   H4336     1.0  0.52704  0.40218  0.10478  1.0000
  H   H4337     1.0  0.55382  0.43023  0.06701  1.0000
  H   H4338     1.0  0.56202  0.43952  0.08574  1.0000
  C   C3646     1.0  0.73771  0.41790  0.05852  1.0000
  C   C3647     1.0  0.74617  0.40497  0.06727  1.0000
  C   C3648     1.0  0.76192  0.39901  0.06115  1.0000
  C   C3649     1.0  0.76925  0.40628  0.04646  1.0000
  C   C3650     1.0  0.76098  0.41958  0.03801  1.0000
  C   C3651     1.0  0.74515  0.42526  0.04396  1.0000
  H   H4339     1.0  0.74041  0.39932  0.07853  1.0000
  H   H4340     1.0  0.76834  0.38879  0.06776  1.0000
  H   H4341     1.0  0.76667  0.42526  0.02669  1.0000
  H   H4342     1.0  0.73878  0.43542  0.03730  1.0000
  C   C3652     1.0  0.64311  0.43656  0.04431  1.0000
  C   C3653     1.0  0.62901  0.43270  0.05313  1.0000
  C   C3654     1.0  0.61606  0.44445  0.05719  1.0000
  C   C3655     1.0  0.61717  0.46003  0.05220  1.0000
  C   C3656     1.0  0.63112  0.46390  0.04294  1.0000
  C   C3657     1.0  0.64412  0.45216  0.03917  1.0000
  H   H4343     1.0  0.62816  0.42065  0.05709  1.0000
  H   H4344     1.0  0.60517  0.44146  0.06411  1.0000
  S   S981      1.0  0.60207  0.47357  0.09884  1.0000
  H   H4345     1.0  0.65496  0.45525  0.03245  1.0000
  Fe  Fe491     1.0  0.51843  0.36127  0.07083  1.0000
  H   H4346     1.0  0.78820  0.41639  0.10588  1.0000
  H   H4347     1.0  0.74157  0.34893  0.13383  1.0000
  C   C3658     1.0  0.95699  0.41396  0.15547  1.0000
  C   C3659     1.0  0.55670  0.23365  0.11546  1.0000
  H   H4348     1.0  0.67346  0.41182  0.10868  1.0000
  H   H4349     1.0  0.56114  0.28859  0.04924  1.0000
  S   S982      1.0  0.56711  0.47324  0.09634  1.0000
  H   H4350     1.0  0.71208  0.37490  0.06754  1.0000
  H   H4351     1.0  0.63512  0.33453  0.16126  1.0000
  C   C3660     1.0  0.74791  0.35323  0.13995  1.0000
  C   C3661     1.0  0.68793  0.41429  0.98784  1.0000
  C   C3662     1.0  0.69843  0.41950  0.99263  1.0000
  H   H4352     1.0  0.98552  0.30724  0.11605  1.0000
  H   H4353     1.0  0.57111  0.30413  0.04529  1.0000
  H   H4354     1.0  0.63502  0.47147  0.10500  1.0000
  H   H4355     1.0  0.67809  0.41037  0.99625  1.0000
  H   H4356     1.0  0.69666  0.41932  0.00472  1.0000
  H   H4357     1.0  0.65633  0.43376  0.98579  1.0000
  H   H4358     1.0  0.71623  0.36081  0.16857  1.0000
  C   C3663     1.0  0.63765  0.30674  0.12749  1.0000
  C   C3664     1.0  0.64092  0.32096  0.12681  1.0000
  C   C3665     1.0  0.64779  0.29285  0.13272  1.0000
  H   H4359     1.0  0.63327  0.33174  0.12255  1.0000
  H   H4360     1.0  0.64548  0.28184  0.13307  1.0000
  C   C3666     1.0  0.53088  0.33104  0.12563  1.0000
  C   C3667     1.0  0.52956  0.32427  0.11438  1.0000
  C   C3668     1.0  0.53827  0.30930  0.11313  1.0000
  C   C3669     1.0  0.54875  0.30128  0.12277  1.0000
  C   C3670     1.0  0.55011  0.30806  0.13403  1.0000
  C   C3671     1.0  0.54100  0.32286  0.13561  1.0000
  H   H4361     1.0  0.52162  0.33048  0.10683  1.0000
  H   H4362     1.0  0.53697  0.30399  0.10461  1.0000
  H   H4363     1.0  0.55793  0.30180  0.14172  1.0000
  H   H4364     1.0  0.83521  0.34420  0.11503  1.0000
  S   S983      1.0  0.67939  0.36696  0.16299  1.0000
  C   C3672     1.0  0.96505  0.34175  0.10830  1.0000
  N   N237      1.0  0.73982  0.35264  0.15646  1.0000
  C   C3673     1.0  0.78307  0.38804  0.00249  1.0000
  C   C3674     1.0  0.78940  0.37922  0.99125  1.0000
  Fe  Fe492     1.0  0.60335  0.44951  0.11344  1.0000
  H   H4365     1.0  0.65339  0.44969  0.10867  1.0000
  H   H4366     1.0  0.73205  0.33167  0.15928  1.0000
  S   S984      1.0  0.70724  0.37441  0.12299  1.0000
  N   N238      1.0  0.64989  0.47193  0.08194  1.0000
  H   H4367     1.0  0.63878  0.45233  0.08985  1.0000
  C   C3675     1.0  0.94749  0.36408  0.15138  1.0000
  S   S985      1.0  0.62319  0.26008  0.13954  1.0000
  C   C3676     1.0  0.78171  0.38120  0.97942  1.0000
  C   C3677     1.0  0.53551  0.23459  0.07749  1.0000
  H   H4368     1.0  0.49318  0.34677  0.06494  1.0000
  C   C3678     1.0  0.61498  0.26390  0.06221  1.0000
  C   C3679     1.0  0.66463  0.46305  0.08685  1.0000
  C   C3680     1.0  0.66431  0.45180  0.10106  1.0000
  C   C3681     1.0  0.97925  0.31166  0.12675  1.0000
  C   C3682     1.0  0.67808  0.44294  0.10570  1.0000
  H   H4369     1.0  0.78575  0.29627  0.99874  1.0000
  C   C3683     1.0  0.69257  0.44483  0.09621  1.0000
  S   S986      1.0  0.57803  0.23405  0.07013  1.0000
  H   H4370     1.0  0.58063  0.26815  0.05281  1.0000
  Fe  Fe493     1.0  0.57780  0.47923  0.11256  1.0000
  C   C3684     1.0  0.58404  0.28235  0.06655  1.0000
  H   H4371     1.0  0.65500  0.46717  0.00322  1.0000
  H   H4372     1.0  0.84358  0.33311  0.13113  1.0000
  C   C3685     1.0  0.71078  0.42528  0.98177  1.0000
  C   C3686     1.0  0.64466  0.39686  0.14465  1.0000
  C   C3687     1.0  0.77909  0.37524  0.12280  1.0000
  S   S987      1.0  0.60166  0.47465  0.05845  1.0000
  N   N239      1.0  0.56766  0.29139  0.06907  1.0000
  H   H4373     1.0  0.56103  0.23925  0.00302  1.0000
  H   H4374     1.0  0.70327  0.43764  0.09954  1.0000
  N   N240      1.0  0.66994  0.40159  0.09184  1.0000
  C   C3688     1.0  0.65271  0.40681  0.09662  1.0000
  C   C3689     1.0  0.67601  0.41363  0.07877  1.0000
  C   C3690     1.0  0.67379  0.38672  0.08687  1.0000
  C   C3691     1.0  0.68310  0.37285  0.09414  1.0000
  C   C3692     1.0  0.66809  0.38579  0.07438  1.0000
  C   C3693     1.0  0.68626  0.35895  0.08930  1.0000
  C   C3694     1.0  0.67131  0.37183  0.06963  1.0000
  C   C3695     1.0  0.68035  0.35842  0.07710  1.0000
  H   H4375     1.0  0.64764  0.39792  0.10627  1.0000
  H   H4376     1.0  0.64937  0.41780  0.10078  1.0000
  H   H4377     1.0  0.64671  0.40916  0.08697  1.0000
  H   H4378     1.0  0.67388  0.42483  0.08226  1.0000
  H   H4379     1.0  0.68887  0.40992  0.07449  1.0000
  H   H4380     1.0  0.68796  0.37232  0.10374  1.0000
  H   H4381     1.0  0.66095  0.39585  0.06825  1.0000
  H   H4382     1.0  0.69315  0.34844  0.09524  1.0000
  H   H4383     1.0  0.66663  0.37138  0.06020  1.0000
  H   H4384     1.0  0.68265  0.34755  0.07357  1.0000
  C   C3696     1.0  0.74838  0.35846  0.16433  1.0000
  S   S988      1.0  0.50588  0.27143  0.00460  1.0000
  H   H4385     1.0  0.83061  0.33570  0.15706  1.0000
  N   N241      1.0  0.56494  0.36626  0.11493  1.0000
  C   C3697     1.0  0.54935  0.37161  0.12459  1.0000
  C   C3698     1.0  0.56670  0.37728  0.09958  1.0000
  C   C3699     1.0  0.56519  0.35096  0.11230  1.0000
  C   C3700     1.0  0.57733  0.36577  0.12268  1.0000
  C   C3701     1.0  0.57880  0.37958  0.12569  1.0000
  C   C3702     1.0  0.58816  0.35184  0.12751  1.0000
  C   C3703     1.0  0.59037  0.37945  0.13300  1.0000
  C   C3704     1.0  0.59961  0.35184  0.13492  1.0000
  C   C3705     1.0  0.60074  0.36561  0.13764  1.0000
  H   H4386     1.0  0.54785  0.38329  0.12670  1.0000
  H   H4387     1.0  0.53973  0.37241  0.11897  1.0000
  H   H4388     1.0  0.54736  0.36343  0.13610  1.0000
  H   H4389     1.0  0.56525  0.38941  0.10054  1.0000
  H   H4390     1.0  0.55776  0.37773  0.09325  1.0000
  H   H4391     1.0  0.57845  0.37393  0.09211  1.0000
  H   H4392     1.0  0.56337  0.34221  0.12342  1.0000
  H   H4393     1.0  0.55559  0.35169  0.10668  1.0000
  H   H4394     1.0  0.57639  0.34640  0.10464  1.0000
  H   H4395     1.0  0.57099  0.39065  0.12242  1.0000
  H   H4396     1.0  0.58812  0.34074  0.12568  1.0000
  H   H4397     1.0  0.59126  0.39018  0.13509  1.0000
  H   H4398     1.0  0.60768  0.34106  0.13855  1.0000
  H   H4399     1.0  0.60969  0.36556  0.14334  1.0000
  N   N242      1.0  0.82244  0.35034  0.13679  1.0000
  C   C3706     1.0  0.83173  0.36191  0.13480  1.0000
  C   C3707     1.0  0.81946  0.34215  0.15334  1.0000
  C   C3708     1.0  0.83222  0.33870  0.12758  1.0000
  C   C3709     1.0  0.80742  0.35840  0.13213  1.0000
  C   C3710     1.0  0.80256  0.35482  0.12038  1.0000
  C   C3711     1.0  0.85954  0.40748  0.16925  1.0000
  H   H4400     1.0  0.97548  0.32437  0.15093  1.0000
  H   H4401     1.0  0.91296  0.38998  0.15463  1.0000
  C   C3712     1.0  0.79719  0.29857  0.99300  1.0000
  H   H4402     1.0  0.83282  0.36954  0.12298  1.0000
  H   H4403     1.0  0.80937  0.33842  0.97912  1.0000
  H   H4404     1.0  0.84375  0.35623  0.13656  1.0000
  H   H4405     1.0  0.81361  0.35031  0.16120  1.0000
  H   H4406     1.0  0.77154  0.30732  0.98062  1.0000
  H   H4407     1.0  0.81209  0.33365  0.15552  1.0000
  C   C3713     1.0  0.86772  0.43132  0.16568  1.0000
  C   C3714     1.0  0.76729  0.39219  0.97856  1.0000
  H   H4408     1.0  0.51447  0.44457  0.11799  1.0000
  H   H4409     1.0  0.80950  0.34585  0.11424  1.0000
  C   C3715     1.0  0.82679  0.30497  0.97964  1.0000
  N   N243      1.0  0.91666  0.40452  0.16750  1.0000
  H   H4410     1.0  0.95007  0.35541  0.09266  1.0000
  S   S989      1.0  0.62383  0.23339  0.11089  1.0000
  C   C3716     1.0  0.67670  0.40056  0.10510  1.0000
  S   S990      1.0  0.59530  0.44113  0.09706  1.0000
  N   N244      1.0  0.72952  0.37597  0.04605  1.0000
  C   C3717     1.0  0.74155  0.38522  0.03776  1.0000
  C   C3718     1.0  0.53941  0.41548  0.11116  1.0000
  C   C3719     1.0  0.73747  0.35951  0.05090  1.0000
  C   C3720     1.0  0.71935  0.37712  0.03557  1.0000
  C   C3721     1.0  0.72588  0.37217  0.02136  1.0000
  C   C3722     1.0  0.70293  0.38322  0.03894  1.0000
  C   C3723     1.0  0.71659  0.37334  0.01115  1.0000
  C   C3724     1.0  0.69379  0.38463  0.02849  1.0000
  C   C3725     1.0  0.70059  0.37967  0.01466  1.0000
  H   H4411     1.0  0.73608  0.39760  0.03346  1.0000
  H   H4412     1.0  0.74912  0.38502  0.04544  1.0000
  H   H4413     1.0  0.74956  0.38071  0.02767  1.0000
  C   C3726     1.0  0.54916  0.42614  0.10587  1.0000
  H   H4414     1.0  0.52476  0.32706  0.03498  1.0000
  H   H4415     1.0  0.74522  0.35450  0.04100  1.0000
  H   H4416     1.0  0.74508  0.35827  0.05890  1.0000
  C   C3727     1.0  0.95254  0.37004  0.13554  1.0000
  H   H4417     1.0  0.73827  0.36735  0.01803  1.0000
  H   H4418     1.0  0.69691  0.38737  0.04938  1.0000
  H   H4419     1.0  0.72180  0.36932  0.00044  1.0000
  H   H4420     1.0  0.68135  0.38980  0.03107  1.0000
  H   H4421     1.0  0.69345  0.38078  0.00660  1.0000
  H   H4422     1.0  0.51939  0.30054  0.04357  1.0000
  C   C3728     1.0  0.77004  0.34282  0.98459  1.0000
  H   H4423     1.0  0.56719  0.30081  0.08828  1.0000
  C   C3729     1.0  0.65358  0.47595  0.99279  1.0000
  H   H4424     1.0  0.66214  0.44420  0.99589  1.0000
  H   H4425     1.0  0.97318  0.41433  0.13340  1.0000
  H   H4426     1.0  0.53816  0.25602  0.99262  1.0000
  H   H4427     1.0  0.96080  0.33513  0.14019  1.0000
  H   H4428     1.0  0.82631  0.32916  0.12903  1.0000
  H   H4429     1.0  0.78449  0.35056  0.17293  1.0000
  C   C3730     1.0  0.97319  0.35997  0.08458  1.0000
  H   H4430     1.0  0.50363  0.43238  0.06160  1.0000
  C   C3731     1.0  0.72354  0.36174  0.15661  1.0000
  S   S991      1.0  0.88298  0.37677  0.14785  1.0000
  S   S992      1.0  0.63408  0.37114  0.16301  1.0000
  C   C3732     1.0  0.96174  0.41253  0.14010  1.0000
  C   C3733     1.0  0.50416  0.44563  0.08490  1.0000
  C   C3734     1.0  0.55739  0.28100  0.07949  1.0000
  H   H4431     1.0  0.60727  0.25283  0.04893  1.0000
  C   C3735     1.0  0.62816  0.31254  0.17011  1.0000
  H   H4432     1.0  0.80034  0.37070  0.99177  1.0000
  C   C3736     1.0  0.56527  0.30473  0.07623  1.0000
  C   C3737     1.0  0.59101  0.23327  0.08144  1.0000
  H   H4433     1.0  0.98240  0.30245  0.13690  1.0000
  S   S993      1.0  0.52717  0.34778  0.05201  1.0000
  C   C3738     1.0  0.77247  0.35631  0.17252  1.0000
  C   C3739     1.0  0.61533  0.41300  0.13841  1.0000
  H   H4434     1.0  0.63206  0.47589  0.03916  1.0000
  H   H4435     1.0  0.76845  0.38187  0.11900  1.0000
  C   C3740     1.0  0.53618  0.25681  0.11576  1.0000
  C   C3741     1.0  0.56262  0.29774  0.05408  1.0000
  H   H4436     1.0  0.85753  0.39902  0.16440  1.0000
  C   C3742     1.0  0.82062  0.30419  0.99542  1.0000
  Fe  Fe494     1.0  0.98356  0.36526  0.15529  1.0000
  N   N245      1.0  0.98324  0.32643  0.12611  1.0000
  C   C3743     1.0  0.52880  0.25169  0.10731  1.0000
  H   H4437     1.0  0.68101  0.47312  0.06672  1.0000
  H   H4438     1.0  0.76413  0.40575  0.01078  1.0000
  H   H4439     1.0  0.95563  0.40745  0.12147  1.0000
  C   C3744     1.0  0.59544  0.28409  0.07339  1.0000
  C   C3745     1.0  0.50097  0.26439  0.97970  1.0000
  Fe  Fe495     1.0  0.86336  0.36704  0.14689  1.0000
  H   H4440     1.0  0.64981  0.45469  0.07025  1.0000
  H   H4441     1.0  0.63533  0.30831  0.16004  1.0000
  H   H4442     1.0  0.57314  0.31268  0.06920  1.0000
  C   C3746     1.0  0.55914  0.23806  0.99233  1.0000
  C   C3747     1.0  0.61067  0.27498  0.07116  1.0000
  C   C3748     1.0  0.49602  0.43480  0.11696  1.0000
  H   H4443     1.0  0.65598  0.39072  0.14707  1.0000
  S   S994      1.0  0.50729  0.38647  0.06418  1.0000
  C   C3749     1.0  0.61714  0.39800  0.14801  1.0000
  H   H4444     1.0  0.61298  0.27630  0.16697  1.0000
  S   S995      1.0  0.55395  0.43320  0.11950  1.0000
  H   H4445     1.0  0.87203  0.44128  0.15804  1.0000
  H   H4446     1.0  0.78385  0.27882  0.98574  1.0000
  C   C3750     1.0  0.62815  0.42002  0.13225  1.0000
  H   H4447     1.0  0.74854  0.36535  0.13362  1.0000
  H   H4448     1.0  0.56037  0.27654  0.09110  1.0000
  Fe  Fe496     1.0  0.59185  0.46594  0.08372  1.0000
  S   S996      1.0  0.86994  0.42187  0.13940  1.0000
  H   H4449     1.0  0.77580  0.38803  0.14017  1.0000
  C   C3751     1.0  0.93007  0.36481  0.13030  1.0000
  C   C3752     1.0  0.49440  0.42631  0.06937  1.0000
  H   H4450     1.0  0.75010  0.40928  0.99057  1.0000
  H   H4451     1.0  0.55836  0.27077  0.07478  1.0000
  N   N246      1.0  0.82699  0.40733  0.05121  1.0000
  C   C3753     1.0  0.84317  0.40896  0.04943  1.0000
  C   C3754     1.0  0.82821  0.39150  0.04925  1.0000
  C   C3755     1.0  0.82038  0.41889  0.03849  1.0000
  C   C3756     1.0  0.81659  0.40978  0.06631  1.0000
  C   C3757     1.0  0.80097  0.40782  0.07019  1.0000
  C   C3758     1.0  0.82129  0.41471  0.07729  1.0000
  C   C3759     1.0  0.79087  0.41019  0.08427  1.0000
  C   C3760     1.0  0.81114  0.41695  0.09141  1.0000
  C   C3761     1.0  0.79598  0.41467  0.09491  1.0000
  H   H4452     1.0  0.84869  0.40061  0.05887  1.0000
  H   H4453     1.0  0.85087  0.40647  0.03826  1.0000
  H   H4454     1.0  0.84343  0.42095  0.04957  1.0000
  H   H4455     1.0  0.81670  0.38901  0.05036  1.0000
  H   H4456     1.0  0.83405  0.38244  0.05793  1.0000
  H   H4457     1.0  0.83523  0.38972  0.03761  1.0000
  H   H4458     1.0  0.82806  0.41786  0.02690  1.0000
  H   H4459     1.0  0.80880  0.41737  0.03822  1.0000
  H   H4460     1.0  0.81871  0.43095  0.03981  1.0000
  H   H4461     1.0  0.79639  0.40451  0.06231  1.0000
  H   H4462     1.0  0.83292  0.41647  0.07555  1.0000
  H   H4463     1.0  0.54490  0.28712  0.08139  1.0000
  H   H4464     1.0  0.81524  0.42021  0.09977  1.0000
  C   C3762     1.0  0.94233  0.41152  0.16423  1.0000
  C   C3763     1.0  0.65392  0.32132  0.13188  1.0000
  Fe  Fe497     1.0  0.61299  0.25272  0.12378  1.0000
  S   S997      1.0  0.67983  0.30752  0.14454  1.0000
  S   S998      1.0  0.66652  0.33459  0.17382  1.0000
  C   C3764     1.0  0.74117  0.37067  0.17241  1.0000
  H   H4465     1.0  0.65614  0.33233  0.13160  1.0000
  C   C3765     1.0  0.86524  0.42024  0.15943  1.0000
  H   H4466     1.0  0.75370  0.34400  0.00647  1.0000
  H   H4467     1.0  0.75083  0.32836  0.16339  1.0000
  C   C3766     1.0  0.64794  0.47319  0.98115  1.0000
  C   C3767     1.0  0.80586  0.30102  0.00208  1.0000
  Fe  Fe498     1.0  0.68783  0.34205  0.17431  1.0000
  C   C3768     1.0  0.69331  0.45586  0.08226  1.0000
  C   C3769     1.0  0.59688  0.24380  0.10004  1.0000
  H   H4468     1.0  0.61987  0.29354  0.15675  1.0000
  H   H4469     1.0  0.50426  0.23767  0.10768  1.0000
  H   H4470     1.0  0.71032  0.46890  0.98000  1.0000
  C   C3770     1.0  0.96176  0.35250  0.09485  1.0000
  H   H4471     1.0  0.97634  0.34363  0.13981  1.0000
  H   H4472     1.0  0.55105  0.30598  0.05537  1.0000
  C   C3771     1.0  0.58684  0.24379  0.09104  1.0000
  S   S999      1.0  0.57965  0.45562  0.12870  1.0000
  H   H4473     1.0  0.71763  0.35744  0.15020  1.0000
  H   H4474     1.0  0.62665  0.25654  0.06093  1.0000
  H   H4475     1.0  0.77902  0.40858  0.08686  1.0000
  Fe  Fe499     1.0  0.67954  0.32979  0.15049  1.0000
  C   C3772     1.0  0.63929  0.47982  0.09428  1.0000
  C   C3773     1.0  0.64210  0.46112  0.07920  1.0000
  H   H4476     1.0  0.95553  0.33681  0.11616  1.0000
  H   H4477     1.0  0.62832  0.44401  0.99836  1.0000
  H   H4478     1.0  0.72903  0.38055  0.06799  1.0000
  C   C3774     1.0  0.72099  0.38169  0.06040  1.0000
  H   H4479     1.0  0.71529  0.39425  0.05772  1.0000
  H   H4480     1.0  0.71020  0.34428  0.11752  1.0000
  H   H4481     1.0  0.53509  0.41163  0.12350  1.0000
  H   H4482     1.0  0.67039  0.41624  0.06880  1.0000
  S   S1000     1.0  0.95874  0.36224  0.16472  1.0000
  H   H4483     1.0  0.89557  0.39873  0.16657  1.0000
  S   S1001     1.0  0.62643  0.43875  0.12031  1.0000
  H   H4484     1.0  0.59280  0.29215  0.08078  1.0000
  H   H4485     1.0  0.80012  0.37376  0.14834  1.0000
  H   H4486     1.0  0.75995  0.34590  0.13853  1.0000
  C   C3775     1.0  0.51063  0.23875  0.09534  1.0000
  H   H4487     1.0  0.78536  0.36048  0.10657  1.0000
  C   C3776     1.0  0.66394  0.30745  0.13733  1.0000
  C   C3777     1.0  0.61144  0.23346  0.09927  1.0000
  C   C3778     1.0  0.66101  0.29323  0.13746  1.0000
  S   S1002     1.0  0.70155  0.33492  0.15210  1.0000
  H   H4488     1.0  0.91431  0.35468  0.15031  1.0000
  H   H4489     1.0  0.55571  0.25177  0.12645  1.0000
  H   H4490     1.0  0.68972  0.39740  0.10207  1.0000
  H   H4491     1.0  0.63113  0.46734  0.07510  1.0000
  C   C3779     1.0  0.76429  0.35140  0.16468  1.0000
  S   S1003     1.0  0.67123  0.35371  0.13685  1.0000
  H   H4492     1.0  0.84094  0.38285  0.16887  1.0000
  H   H4493     1.0  0.50811  0.44961  0.07255  1.0000
  H   H4494     1.0  0.62682  0.23611  0.16841  1.0000
  C   C3780     1.0  0.64276  0.41199  0.13547  1.0000
  C   C3781     1.0  0.67959  0.46494  0.07768  1.0000
  C   C3782     1.0  0.63182  0.38990  0.15108  1.0000
  H   H4495     1.0  0.60717  0.39268  0.15308  1.0000
  C   C3783     1.0  0.53511  0.23715  0.10291  1.0000
  Fe  Fe500     1.0  0.57122  0.44892  0.11110  1.0000
  C   C3784     1.0  0.76895  0.39885  0.00204  1.0000
  Fe  Fe501     1.0  0.87079  0.39908  0.13445  1.0000
  C   C3785     1.0  0.63166  0.45519  0.99689  1.0000
  H   H4496     1.0  0.60399  0.41920  0.13600  1.0000
  H   H4497     1.0  0.57573  0.25193  0.09160  1.0000
  H   H4498     1.0  0.64334  0.28270  0.16754  1.0000
  Fe  Fe502     1.0  0.65941  0.35891  0.16025  1.0000
  H   H4499     1.0  0.80095  0.30094  0.01429  1.0000
  C   C3786     1.0  0.93351  0.35886  0.15670  1.0000
  H   H4500     1.0  0.70463  0.45715  0.07479  1.0000
  Fe  Fe503     1.0  0.89408  0.37145  0.12437  1.0000
  C   C3787     1.0  0.92481  0.35923  0.14619  1.0000
  C   C3788     1.0  0.93712  0.40623  0.14204  1.0000
  H   H4501     1.0  0.59331  0.25196  0.10746  1.0000
  H   H4502     1.0  0.63510  0.45444  0.00781  1.0000
  S   S1004     1.0  0.85033  0.35094  0.16639  1.0000
  H   H4503     1.0  0.82708  0.30653  0.00245  1.0000
  H   H4504     1.0  0.92960  0.35412  0.16894  1.0000
  H   H4505     1.0  0.96652  0.31297  0.12792  1.0000
  H   H4506     1.0  0.93017  0.40306  0.13616  1.0000
  C   C3789     1.0  0.97353  0.33260  0.13983  1.0000
  H   H4507     1.0  0.74497  0.37798  0.97957  1.0000
  H   H4508     1.0  0.53136  0.26804  0.11886  1.0000
  C   C3790     1.0  0.50797  0.44289  0.11058  1.0000
  C   C3791     1.0  0.73909  0.33630  0.16430  1.0000
  C   C3792     1.0  0.49830  0.26128  0.99590  1.0000
  H   H4509     1.0  0.70290  0.47560  0.04204  1.0000
  H   H4510     1.0  0.90421  0.41045  0.14905  1.0000
  H   H4511     1.0  0.77043  0.34181  0.15914  1.0000
  S   S1005     1.0  0.49928  0.35604  0.09166  1.0000
  C   C3793     1.0  0.51208  0.44822  0.09459  1.0000
  Fe  Fe504     1.0  0.49678  0.26926  0.03037  1.0000
  C   C3794     1.0  0.62802  0.32761  0.17066  1.0000
  H   H4512     1.0  0.72899  0.37644  0.17332  1.0000
  H   H4513     1.0  0.50488  0.23343  0.08958  1.0000
  H   H4514     1.0  0.90508  0.42871  0.16406  1.0000
  H   H4515     1.0  0.60083  0.29500  0.16924  1.0000
  C   C3795     1.0  0.90733  0.41840  0.17365  1.0000
  H   H4516     1.0  0.49318  0.43031  0.12940  1.0000
  C   C3796     1.0  0.99145  0.34583  0.10109  1.0000
  C   C3797     1.0  0.80308  0.29931  0.97685  1.0000
  C   C3798     1.0  0.78580  0.34122  0.97702  1.0000
  H   H4517     1.0  0.65916  0.47888  0.05735  1.0000
  C   C3799     1.0  0.70511  0.48120  0.97766  1.0000
  N   N247      1.0  0.76456  0.37428  0.35707  1.0000
  S   S1006     1.0  0.80004  0.41643  0.32082  1.0000
  H   H4518     1.0  0.97859  0.40500  0.20501  1.0000
  S   S1007     1.0  0.86203  0.43071  0.24267  1.0000
  N   N248      1.0  0.61965  0.28716  0.18129  1.0000
  H   H4519     1.0  0.94543  0.46540  0.26240  1.0000
  S   S1008     1.0  0.81096  0.44719  0.29667  1.0000
  H   H4520     1.0  0.84320  0.45166  0.28994  1.0000
  C   C3800     1.0  0.96190  0.43774  0.21011  1.0000
  H   H4521     1.0  0.76120  0.34311  0.36561  1.0000
  C   C3801     1.0  0.76102  0.37125  0.33200  1.0000
  C   C3802     1.0  0.81037  0.35009  0.29554  1.0000
  H   H4522     1.0  0.79136  0.41139  0.25550  1.0000
  H   H4523     1.0  0.86211  0.43598  0.33628  1.0000
  H   H4524     1.0  0.86706  0.43782  0.18657  1.0000
  H   H4525     1.0  0.79849  0.42121  0.19306  1.0000
  H   H4526     1.0  0.99145  0.41073  0.21288  1.0000
  Fe  Fe505     1.0  0.79338  0.43329  0.29954  1.0000
  H   H4527     1.0  0.89508  0.47761  0.26259  1.0000
  H   H4528     1.0  0.76207  0.38310  0.32659  1.0000
  S   S1009     1.0  0.76544  0.42431  0.35530  1.0000
  S   S1010     1.0  0.70095  0.33378  0.19380  1.0000
  H   H4529     1.0  0.87372  0.45917  0.32796  1.0000
  C   C3803     1.0  0.78624  0.35459  0.28753  1.0000
  C   C3804     1.0  0.79272  0.42756  0.21507  1.0000
  C   C3805     1.0  0.61055  0.27836  0.19539  1.0000
  H   H4530     1.0  0.60250  0.30365  0.20467  1.0000
  Fe  Fe506     1.0  0.79345  0.25663  0.33216  1.0000
  C   C3806     1.0  0.77971  0.37901  0.34997  1.0000
  S   S1011     1.0  0.89212  0.40467  0.26781  1.0000
  H   H4531     1.0  0.83504  0.43756  0.35151  1.0000
  C   C3807     1.0  0.84006  0.44776  0.34807  1.0000
  Fe  Fe507     1.0  0.87092  0.42514  0.21920  1.0000
  S   S1012     1.0  0.85706  0.41307  0.21178  1.0000
  S   S1013     1.0  0.89484  0.41250  0.22293  1.0000
  C   C3808     1.0  0.81298  0.33416  0.29624  1.0000
  H   H4532     1.0  0.64176  0.27788  0.18809  1.0000
  H   H4533     1.0  0.92708  0.38079  0.17661  1.0000
  S   S1014     1.0  0.97155  0.42687  0.23775  1.0000
  C   C3809     1.0  0.75831  0.36268  0.32302  1.0000
  H   H4534     1.0  0.85976  0.45971  0.27955  1.0000
  C   C3810     1.0  0.98668  0.40075  0.21313  1.0000
  Fe  Fe508     1.0  0.76380  0.34658  0.24651  1.0000
  S   S1015     1.0  0.73997  0.36036  0.25512  1.0000
  S   S1016     1.0  0.77030  0.32074  0.25527  1.0000
  Fe  Fe509     1.0  0.77537  0.37501  0.22615  1.0000
  S   S1017     1.0  0.75254  0.39108  0.23344  1.0000
  S   S1018     1.0  0.79411  0.38699  0.21018  1.0000
  Fe  Fe510     1.0  0.75316  0.37657  0.25739  1.0000
  S   S1019     1.0  0.74799  0.38507  0.27940  1.0000
  Fe  Fe511     1.0  0.74182  0.37326  0.23029  1.0000
  S   S1020     1.0  0.72183  0.38134  0.21795  1.0000
  S   S1021     1.0  0.77692  0.36187  0.25038  1.0000
  S   S1022     1.0  0.76473  0.35813  0.22132  1.0000
  C   C3811     1.0  0.63604  0.27801  0.17884  1.0000
  C   C3812     1.0  0.81617  0.43107  0.19562  1.0000
  H   H4535     1.0  0.77985  0.38678  0.33825  1.0000
  C   C3813     1.0  0.82662  0.23634  0.31343  1.0000
  H   H4536     1.0  0.59783  0.28384  0.19727  1.0000
  C   C3814     1.0  0.75804  0.34056  0.34464  1.0000
  Fe  Fe512     1.0  0.76073  0.27641  0.33809  1.0000
  H   H4537     1.0  0.97240  0.44216  0.20528  1.0000
  S   S1023     1.0  0.74549  0.29845  0.32740  1.0000
  H   H4538     1.0  0.81387  0.42324  0.24885  1.0000
  Fe  Fe513     1.0  0.90060  0.43594  0.21313  1.0000
  H   H4539     1.0  0.75711  0.36802  0.31116  1.0000
  S   S1024     1.0  0.77109  0.25573  0.32728  1.0000
  H   H4540     1.0  0.95078  0.46755  0.22641  1.0000
  C   C3815     1.0  0.76060  0.34908  0.35379  1.0000
  C   C3816     1.0  0.60782  0.23397  0.18842  1.0000
  H   H4541     1.0  0.76190  0.29257  0.37332  1.0000
  S   S1025     1.0  0.78978  0.24102  0.35572  1.0000
  C   C3817     1.0  0.85096  0.45868  0.29073  1.0000
  H   H4542     1.0  0.85847  0.41336  0.27254  1.0000
  C   C3818     1.0  0.76249  0.31454  0.27513  1.0000
  C   C3819     1.0  0.75344  0.32524  0.28414  1.0000
  C   C3820     1.0  0.74764  0.32011  0.30007  1.0000
  C   C3821     1.0  0.75129  0.30432  0.30716  1.0000
  C   C3822     1.0  0.76029  0.29362  0.29813  1.0000
  C   C3823     1.0  0.76579  0.29871  0.28213  1.0000
  H   H4543     1.0  0.75116  0.33750  0.27900  1.0000
  H   H4544     1.0  0.74078  0.32846  0.30702  1.0000
  H   H4545     1.0  0.76303  0.28142  0.30345  1.0000
  H   H4546     1.0  0.77281  0.29037  0.27523  1.0000
  C   C3824     1.0  0.80922  0.37669  0.19787  1.0000
  C   C3825     1.0  0.81102  0.36077  0.19922  1.0000
  C   C3826     1.0  0.82373  0.35281  0.18957  1.0000
  C   C3827     1.0  0.83261  0.37668  0.17722  1.0000
  H   H4547     1.0  0.84096  0.44461  0.21885  1.0000
  C   C3828     1.0  0.82004  0.38460  0.18685  1.0000
  H   H4548     1.0  0.80276  0.35457  0.20779  1.0000
  C   C3829     1.0  0.83078  0.47172  0.30876  1.0000
  H   H4549     1.0  0.83693  0.46580  0.31834  1.0000
  H   H4550     1.0  0.82301  0.24866  0.34452  1.0000
  C   C3830     1.0  0.82701  0.25325  0.35234  1.0000
  C   C3831     1.0  0.85295  0.47396  0.33858  1.0000
  N   N249      1.0  0.81713  0.44399  0.23134  1.0000
  C   C3832     1.0  0.85405  0.41799  0.30892  1.0000
  N   N250      1.0  0.80413  0.31117  0.29366  1.0000
  H   H4551     1.0  0.78987  0.30746  0.31682  1.0000
  C   C3833     1.0  0.79697  0.36026  0.29129  1.0000
  S   S1026     1.0  0.87726  0.44814  0.20745  1.0000
  C   C3834     1.0  0.85969  0.41630  0.19164  1.0000
  H   H4552     1.0  0.90819  0.38803  0.18792  1.0000
  H   H4553     1.0  0.95692  0.26244  0.37040  1.0000
  H   H4554     1.0  0.92973  0.46902  0.19801  1.0000
  H   H4555     1.0  0.79858  0.41383  0.35507  1.0000
  C   C3835     1.0  0.81172  0.43874  0.22031  1.0000
  H   H4556     1.0  0.74364  0.38467  0.18648  1.0000
  H   H4557     1.0  0.60264  0.32990  0.20516  1.0000
  C   C3836     1.0  0.84999  0.41785  0.29542  1.0000
  H   H4558     1.0  0.85216  0.39568  0.19278  1.0000
  C   C3837     1.0  0.93743  0.43468  0.20712  1.0000
  C   C3838     1.0  0.93458  0.42637  0.22249  1.0000
  C   C3839     1.0  0.94519  0.42400  0.23176  1.0000
  C   C3840     1.0  0.95876  0.42982  0.22565  1.0000
  H   H4559     1.0  0.92416  0.42175  0.22733  1.0000
  H   H4560     1.0  0.94281  0.41768  0.24372  1.0000
  S   S1027     1.0  0.83970  0.42434  0.32429  1.0000
  N   N251      1.0  0.83466  0.24050  0.36367  1.0000
  S   S1028     1.0  0.85601  0.47544  0.23658  1.0000
  H   H4561     1.0  0.78986  0.43414  0.23616  1.0000
  H   H4562     1.0  0.79173  0.29294  0.30630  1.0000
  H   H4563     1.0  0.61486  0.27725  0.20590  1.0000
  C   C3841     1.0  0.82095  0.43726  0.20531  1.0000
  C   C3842     1.0  0.76512  0.36846  0.18010  1.0000
  H   H4564     1.0  0.81298  0.39263  0.28270  1.0000
  H   H4565     1.0  0.77582  0.36250  0.28422  1.0000
  C   C3843     1.0  0.70690  0.34722  0.20007  1.0000
  C   C3844     1.0  0.69934  0.36293  0.19775  1.0000
  C   C3845     1.0  0.70417  0.37330  0.20313  1.0000
  C   C3846     1.0  0.71659  0.36807  0.21080  1.0000
  C   C3847     1.0  0.72436  0.35243  0.21286  1.0000
  C   C3848     1.0  0.71944  0.34201  0.20761  1.0000
  C   C3849     1.0  0.95137  0.47803  0.21745  1.0000
  H   H4566     1.0  0.69809  0.38539  0.20155  1.0000
  H   H4567     1.0  0.73401  0.34836  0.21866  1.0000
  H   H4568     1.0  0.72531  0.32988  0.20943  1.0000
  C   C3850     1.0  0.80208  0.42623  0.20049  1.0000
  Fe  Fe514     1.0  0.87065  0.45257  0.23145  1.0000
  C   C3851     1.0  0.82288  0.43019  0.24288  1.0000
  H   H4569     1.0  0.87434  0.46696  0.29295  1.0000
  S   S1029     1.0  0.77376  0.44935  0.31220  1.0000
  H   H4570     1.0  0.97544  0.47563  0.21795  1.0000
  H   H4571     1.0  0.80835  0.45994  0.24681  1.0000
  H   H4572     1.0  0.61148  0.26631  0.19437  1.0000
  H   H4573     1.0  0.88010  0.46401  0.25428  1.0000
  S   S1030     1.0  0.78358  0.27848  0.34092  1.0000
  C   C3852     1.0  0.86168  0.41366  0.28281  1.0000
  C   C3853     1.0  0.87741  0.40942  0.28373  1.0000
  C   C3854     1.0  0.80414  0.45464  0.23968  1.0000
  H   H4574     1.0  0.75197  0.39648  0.34582  1.0000
  Fe  Fe515     1.0  0.88654  0.42002  0.24553  1.0000
  C   C3855     1.0  0.85657  0.40561  0.18534  1.0000
  C   C3856     1.0  0.75683  0.34736  0.32933  1.0000
  Fe  Fe516     1.0  0.77802  0.26292  0.36426  1.0000
  H   H4575     1.0  0.83326  0.42229  0.23733  1.0000
  C   C3857     1.0  0.83731  0.47530  0.34739  1.0000
  C   C3858     1.0  0.79076  0.30557  0.30515  1.0000
  C   C3859     1.0  0.60979  0.32496  0.19539  1.0000
  H   H4576     1.0  0.81877  0.39690  0.18577  1.0000
  Fe  Fe517     1.0  0.76640  0.24177  0.35173  1.0000
  S   S1031     1.0  0.79415  0.42572  0.27802  1.0000
  C   C3860     1.0  0.76208  0.36478  0.34773  1.0000
  C   C3861     1.0  0.79206  0.40850  0.36609  1.0000
  C   C3862     1.0  0.78121  0.41434  0.27888  1.0000
  C   C3863     1.0  0.78250  0.40876  0.26579  1.0000
  C   C3864     1.0  0.77238  0.39973  0.26593  1.0000
  C   C3865     1.0  0.76078  0.39633  0.27915  1.0000
  C   C3866     1.0  0.75953  0.40177  0.29234  1.0000
  C   C3867     1.0  0.76979  0.41072  0.29225  1.0000
  H   H4577     1.0  0.83786  0.42095  0.29468  1.0000
  H   H4578     1.0  0.77340  0.39560  0.25571  1.0000
  H   H4579     1.0  0.75045  0.39927  0.30254  1.0000
  H   H4580     1.0  0.76868  0.41505  0.30237  1.0000
  C   C3868     1.0  0.88141  0.40911  0.29742  1.0000
  C   C3869     1.0  0.86974  0.41352  0.30997  1.0000
  H   H4581     1.0  0.89356  0.40570  0.29820  1.0000
  H   H4582     1.0  0.87290  0.41347  0.32046  1.0000
  H   H4583     1.0  0.81273  0.39475  0.37433  1.0000
  Fe  Fe518     1.0  0.78171  0.43336  0.33344  1.0000
  H   H4584     1.0  0.83323  0.45710  0.23198  1.0000
  H   H4585     1.0  0.74259  0.24066  0.33571  1.0000
  H   H4586     1.0  0.78188  0.42352  0.21889  1.0000
  N   N252      1.0  0.71948  0.31850  0.25864  1.0000
  C   C3870     1.0  0.71983  0.32093  0.27385  1.0000
  C   C3871     1.0  0.71789  0.30225  0.26126  1.0000
  C   C3872     1.0  0.73461  0.32010  0.24775  1.0000
  C   C3873     1.0  0.70680  0.33018  0.25197  1.0000
  C   C3874     1.0  0.69740  0.32632  0.24424  1.0000
  C   C3875     1.0  0.70443  0.34616  0.25185  1.0000
  C   C3876     1.0  0.68610  0.33772  0.23728  1.0000
  C   C3877     1.0  0.69305  0.35744  0.24493  1.0000
  C   C3878     1.0  0.68389  0.35323  0.23768  1.0000
  H   H4587     1.0  0.70811  0.32154  0.28186  1.0000
  H   H4588     1.0  0.72831  0.31142  0.27972  1.0000
  H   H4589     1.0  0.72373  0.33168  0.27273  1.0000
  H   H4590     1.0  0.71983  0.29868  0.25016  1.0000
  H   H4591     1.0  0.70615  0.30071  0.26843  1.0000
  H   H4592     1.0  0.72677  0.29375  0.26743  1.0000
  H   H4593     1.0  0.73711  0.33168  0.24620  1.0000
  H   H4594     1.0  0.74454  0.31120  0.25194  1.0000
  H   H4595     1.0  0.73472  0.31881  0.23605  1.0000
  H   H4596     1.0  0.69880  0.31466  0.24300  1.0000
  H   H4597     1.0  0.71166  0.35023  0.25660  1.0000
  H   H4598     1.0  0.67944  0.33461  0.23098  1.0000
  H   H4599     1.0  0.69184  0.36962  0.24454  1.0000
  H   H4600     1.0  0.67549  0.36208  0.23182  1.0000
  S   S1032     1.0  0.81578  0.25536  0.31396  1.0000
  H   H4601     1.0  0.83912  0.39494  0.28314  1.0000
  H   H4602     1.0  0.82656  0.47416  0.27968  1.0000
  H   H4603     1.0  0.85687  0.45158  0.30031  1.0000
  Fe  Fe519     1.0  0.79209  0.46182  0.31136  1.0000
  H   H4604     1.0  0.81929  0.46154  0.35861  1.0000
  H   H4605     1.0  0.82350  0.32692  0.29977  1.0000
  H   H4606     1.0  0.77946  0.31165  0.30188  1.0000
  H   H4607     1.0  0.77999  0.33501  0.28508  1.0000
  H   H4608     1.0  0.81881  0.30217  0.31037  1.0000
  H   H4609     1.0  0.86141  0.39039  0.26107  1.0000
  H   H4610     1.0  0.81422  0.31292  0.26926  1.0000
  H   H4611     1.0  0.82667  0.46235  0.21417  1.0000
  H   H4612     1.0  0.92430  0.47154  0.23915  1.0000
  H   H4613     1.0  0.81631  0.26063  0.35823  1.0000
  H   H4614     1.0  0.73352  0.33528  0.17686  1.0000
  H   H4615     1.0  0.75676  0.32865  0.34955  1.0000
  C   C3879     1.0  0.86498  0.42932  0.18181  1.0000
  H   H4616     1.0  0.91009  0.46669  0.23256  1.0000
  H   H4617     1.0  0.80609  0.29601  0.27871  1.0000
  H   H4618     1.0  0.79480  0.37256  0.29097  1.0000
  H   H4619     1.0  0.82929  0.30453  0.29020  1.0000
  H   H4620     1.0  0.81873  0.35457  0.29843  1.0000
  H   H4621     1.0  0.81962  0.28879  0.29929  1.0000
  H   H4622     1.0  0.97229  0.46978  0.25304  1.0000
  C   C3880     1.0  0.77570  0.41209  0.36934  1.0000
  C   C3881     1.0  0.86180  0.45992  0.33469  1.0000
  C   C3882     1.0  0.80212  0.32799  0.29261  1.0000
  C   C3883     1.0  0.78875  0.33876  0.28809  1.0000
  Fe  Fe520     1.0  0.81580  0.43188  0.31916  1.0000
  H   H4623     1.0  0.79353  0.31452  0.27431  1.0000
  H   H4624     1.0  0.68958  0.36703  0.19209  1.0000
  S   S1033     1.0  0.59528  0.25139  0.18143  1.0000
  C   C3884     1.0  0.95126  0.44010  0.20081  1.0000
  C   C3885     1.0  0.60987  0.30982  0.19497  1.0000
  S   S1034     1.0  0.92308  0.43943  0.19633  1.0000
  H   H4625     1.0  0.93019  0.45833  0.22614  1.0000
  H   H4626     1.0  0.63667  0.26574  0.17877  1.0000
  H   H4627     1.0  0.75457  0.34078  0.32240  1.0000
  H   H4628     1.0  0.83212  0.44050  0.20088  1.0000
  H   H4629     1.0  0.78953  0.36869  0.34888  1.0000
  H   H4630     1.0  0.83501  0.26101  0.34516  1.0000
  H   H4631     1.0  0.78230  0.38560  0.35706  1.0000
  H   H4632     1.0  0.95355  0.44646  0.18887  1.0000
  C   C3886     1.0  0.83794  0.24777  0.37459  1.0000
  C   C3887     1.0  0.81864  0.30135  0.29858  1.0000
  S   S1035     1.0  0.79813  0.44730  0.33374  1.0000
  H   H4633     1.0  0.79818  0.46424  0.23141  1.0000
  H   H4634     1.0  0.82358  0.42980  0.18433  1.0000
  C   C3888     1.0  0.83000  0.45238  0.22368  1.0000
  C   C3889     1.0  0.85420  0.23204  0.34006  1.0000
  S   S1036     1.0  0.75412  0.26247  0.36244  1.0000
  C   C3890     1.0  0.85536  0.44684  0.33944  1.0000
  C   C3891     1.0  0.80453  0.30857  0.27835  1.0000
  S   S1037     1.0  0.89459  0.44237  0.23613  1.0000
  H   H4635     1.0  0.77450  0.35545  0.37421  1.0000
  N   N253      1.0  0.83023  0.37976  0.23411  1.0000
  C   C3892     1.0  0.82000  0.36843  0.23874  1.0000
  C   C3893     1.0  0.82235  0.39450  0.22515  1.0000
  C   C3894     1.0  0.84485  0.37329  0.22369  1.0000
  C   C3895     1.0  0.83309  0.38301  0.24784  1.0000
  C   C3896     1.0  0.84788  0.38491  0.24830  1.0000
  C   C3897     1.0  0.82059  0.38587  0.26066  1.0000
  C   C3898     1.0  0.85001  0.38897  0.26100  1.0000
  C   C3899     1.0  0.82280  0.39007  0.27323  1.0000
  C   C3900     1.0  0.83749  0.39155  0.27343  1.0000
  H   H4636     1.0  0.82454  0.35781  0.24702  1.0000
  H   H4637     1.0  0.80772  0.37338  0.24404  1.0000
  H   H4638     1.0  0.81903  0.36480  0.22853  1.0000
  H   H4639     1.0  0.82900  0.40371  0.22232  1.0000
  H   H4640     1.0  0.81038  0.39894  0.23161  1.0000
  H   H4641     1.0  0.82120  0.39314  0.21394  1.0000
  H   H4642     1.0  0.85176  0.36267  0.23009  1.0000
  H   H4643     1.0  0.84239  0.37015  0.21388  1.0000
  H   H4644     1.0  0.85234  0.38187  0.21807  1.0000
  H   H4645     1.0  0.85797  0.38367  0.23885  1.0000
  H   H4646     1.0  0.80889  0.38530  0.26091  1.0000
  C   C3901     1.0  0.87766  0.47653  0.25152  1.0000
  H   H4647     1.0  0.82523  0.34048  0.19069  1.0000
  C   C3902     1.0  0.76484  0.36602  0.37343  1.0000
  H   H4648     1.0  0.82620  0.43350  0.25207  1.0000
  C   C3903     1.0  0.79742  0.43368  0.22487  1.0000
  H   H4649     1.0  0.89585  0.41642  0.18110  1.0000
  C   C3904     1.0  0.61888  0.33380  0.18329  1.0000
  H   H4650     1.0  0.79525  0.44856  0.24817  1.0000
  H   H4651     1.0  0.84745  0.25420  0.36879  1.0000
  C   C3905     1.0  0.86824  0.47866  0.29394  1.0000
  N   N254      1.0  0.84204  0.47420  0.29366  1.0000
  H   H4652     1.0  0.97931  0.39770  0.22492  1.0000
  C   C3906     1.0  0.96382  0.23361  0.36588  1.0000
  H   H4653     1.0  0.83748  0.24250  0.28921  1.0000
  H   H4654     1.0  0.82300  0.46430  0.30901  1.0000
  C   C3907     1.0  0.83453  0.36080  0.17854  1.0000
  C   C3908     1.0  0.83108  0.46173  0.35200  1.0000
  C   C3909     1.0  0.74950  0.37556  0.18010  1.0000
  H   H4655     1.0  0.90910  0.47388  0.20565  1.0000
  H   H4656     1.0  0.75277  0.39545  0.36506  1.0000
  H   H4657     1.0  0.81157  0.48130  0.37174  1.0000
  H   H4658     1.0  0.61888  0.34550  0.18366  1.0000
  H   H4659     1.0  0.72435  0.23770  0.32178  1.0000
  H   H4660     1.0  0.84758  0.24022  0.33198  1.0000
  C   C3910     1.0  0.75181  0.38846  0.35741  1.0000
  H   H4661     1.0  0.98501  0.37737  0.20149  1.0000
  C   C3911     1.0  0.92197  0.46920  0.22890  1.0000
  H   H4662     1.0  0.98520  0.37084  0.22160  1.0000
  C   C3912     1.0  0.61923  0.30309  0.18229  1.0000
  H   H4663     1.0  0.77142  0.37221  0.18626  1.0000
  H   H4664     1.0  0.74014  0.38542  0.36175  1.0000
  H   H4665     1.0  0.92502  0.39378  0.18868  1.0000
  C   C3913     1.0  0.91933  0.39123  0.18075  1.0000
  C   C3914     1.0  0.92003  0.47834  0.20225  1.0000
  H   H4666     1.0  0.98557  0.25131  0.36115  1.0000
  C   C3915     1.0  0.94727  0.47713  0.25774  1.0000
  C   C3916     1.0  0.83650  0.23322  0.29948  1.0000
  C   C3917     1.0  0.96241  0.47961  0.25244  1.0000
  H   H4667     1.0  0.91318  0.42156  0.18102  1.0000
  C   C3918     1.0  0.98472  0.24190  0.37184  1.0000
  H   H4668     1.0  0.98544  0.23334  0.34767  1.0000
  H   H4669     1.0  0.77623  0.47987  0.33669  1.0000
  H   H4670     1.0  0.93923  0.41269  0.17615  1.0000
  H   H4671     1.0  0.87381  0.30309  0.53205  1.0000
  Fe  Fe521     1.0  0.79180  0.32499  0.43835  1.0000
  S   S1038     1.0  0.76618  0.32570  0.44362  1.0000
  S   S1039     1.0  0.80720  0.30386  0.44990  1.0000
  Fe  Fe522     1.0  0.78835  0.35806  0.41900  1.0000
  S   S1040     1.0  0.76243  0.36125  0.42279  1.0000
  S   S1041     1.0  0.80189  0.37616  0.40431  1.0000
  Fe  Fe523     1.0  0.76353  0.34944  0.44754  1.0000
  S   S1042     1.0  0.74634  0.35886  0.46747  1.0000
  Fe  Fe524     1.0  0.76807  0.33726  0.41837  1.0000
  S   S1043     1.0  0.75729  0.33219  0.40157  1.0000
  S   S1044     1.0  0.78911  0.34786  0.44404  1.0000
  S   S1045     1.0  0.79399  0.33498  0.41280  1.0000
  S   S1046     1.0  0.76804  0.39364  0.50554  1.0000
  H   H4672     1.0  0.80508  0.24863  0.44297  1.0000
  N   N255      1.0  0.77811  0.40139  0.44162  1.0000
  C   C3919     1.0  0.85713  0.32465  0.52770  1.0000
  C   C3920     1.0  0.97250  0.35545  0.51011  1.0000
  C   C3921     1.0  0.92595  0.24373  0.41643  1.0000
  H   H4673     1.0  0.79793  0.32006  0.55847  1.0000
  C   C3922     1.0  0.93344  0.29117  0.52536  1.0000
  Fe  Fe525     1.0  0.77871  0.34946  0.54995  1.0000
  C   C3923     1.0  0.91830  0.31408  0.51124  1.0000
  H   H4674     1.0  0.80342  0.31660  0.50681  1.0000
  Fe  Fe526     1.0  0.77961  0.37903  0.52513  1.0000
  C   C3924     1.0  0.93845  0.28482  0.51221  1.0000
  H   H4675     1.0  0.80344  0.31239  0.48138  1.0000
  H   H4676     1.0  0.82341  0.37022  0.47337  1.0000
  S   S1047     1.0  0.98402  0.27032  0.41491  1.0000
  Fe  Fe527     1.0  0.96177  0.27609  0.43217  1.0000
  S   S1048     1.0  0.96658  0.25373  0.44967  1.0000
  S   S1049     1.0  0.93887  0.28452  0.42483  1.0000
  H   H4677     1.0  0.98796  0.24566  0.38079  1.0000
  Fe  Fe528     1.0  0.97579  0.28645  0.56337  1.0000
  H   H4678     1.0  0.78975  0.23393  0.40343  1.0000
  S   S1050     1.0  0.97108  0.29003  0.44254  1.0000
  C   C3925     1.0  0.76740  0.40521  0.38369  1.0000
  H   H4679     1.0  0.75592  0.41802  0.44306  1.0000
  H   H4680     1.0  0.93852  0.31853  0.53787  1.0000
  S   S1051     1.0  0.97158  0.26538  0.48453  1.0000
  S   S1052     1.0  0.84554  0.25869  0.40553  1.0000
  C   C3926     1.0  0.97947  0.35812  0.49435  1.0000
  H   H4681     1.0  0.81843  0.31859  0.53294  1.0000
  H   H4682     1.0  0.90224  0.30566  0.56243  1.0000
  H   H4683     1.0  0.80705  0.24858  0.40259  1.0000
  H   H4684     1.0  0.95664  0.33416  0.47392  1.0000
  C   C3927     1.0  0.94038  0.24186  0.41995  1.0000
  H   H4685     1.0  0.81073  0.29370  0.54505  1.0000
  S   S1053     1.0  0.87690  0.24779  0.43024  1.0000
  H   H4686     1.0  0.76670  0.38217  0.44999  1.0000
  C   C3928     1.0  0.98545  0.26881  0.49229  1.0000
  H   H4687     1.0  0.94570  0.27316  0.51273  1.0000
  C   C3929     1.0  0.93359  0.29306  0.49858  1.0000
  C   C3930     1.0  0.76622  0.29549  0.38170  1.0000
  C   C3931     1.0  0.77094  0.39003  0.43893  1.0000
  C   C3932     1.0  0.81063  0.24618  0.41373  1.0000
  C   C3933     1.0  0.92286  0.24867  0.47536  1.0000
  C   C3934     1.0  0.97513  0.33349  0.49262  1.0000
  C   C3935     1.0  0.87130  0.25571  0.49936  1.0000
  C   C3936     1.0  0.87734  0.26749  0.48794  1.0000
  C   C3937     1.0  0.87743  0.26885  0.47240  1.0000
  C   C3938     1.0  0.87190  0.25809  0.46832  1.0000
  S   S1054     1.0  0.89586  0.24447  0.52571  1.0000
  H   H4688     1.0  0.88216  0.27793  0.46356  1.0000
  S   S1055     1.0  0.98467  0.34035  0.54791  1.0000
  C   C3939     1.0  0.93410  0.26899  0.42111  1.0000
  C   C3940     1.0  0.94456  0.25452  0.42202  1.0000
  S   S1056     1.0  0.88800  0.25047  0.56103  1.0000
  H   H4689     1.0  0.89710  0.30170  0.54674  1.0000
  C   C3941     1.0  0.91556  0.25825  0.41524  1.0000
  C   C3942     1.0  0.91962  0.27088  0.41763  1.0000
  H   H4690     1.0  0.95589  0.25303  0.42433  1.0000
  C   C3943     1.0  0.83307  0.25287  0.52891  1.0000
  H   H4691     1.0  0.96231  0.24779  0.53734  1.0000
  H   H4692     1.0  0.91163  0.28211  0.41673  1.0000
  C   C3944     1.0  0.94782  0.26804  0.56595  1.0000
  N   N256      1.0  0.96880  0.23867  0.37730  1.0000
  H   H4693     1.0  0.91942  0.31380  0.48756  1.0000
  H   H4694     1.0  0.91088  0.25486  0.48026  1.0000
  S   S1057     1.0  0.76561  0.37399  0.54951  1.0000
  H   H4695     1.0  0.75358  0.36249  0.37964  1.0000
  C   C3945     1.0  0.98902  0.36450  0.55660  1.0000
  H   H4696     1.0  0.76082  0.39580  0.43333  1.0000
  S   S1058     1.0  0.78572  0.26630  0.38409  1.0000
  H   H4697     1.0  0.93714  0.28404  0.53576  1.0000
  H   H4698     1.0  0.96133  0.25748  0.38932  1.0000
  H   H4699     1.0  0.82748  0.25619  0.37931  1.0000
  H   H4700     1.0  0.91013  0.32519  0.51017  1.0000
  S   S1059     1.0  0.79814  0.35163  0.55900  1.0000
  H   H4701     1.0  0.90454  0.25981  0.41219  1.0000
  C   C3946     1.0  0.93879  0.25041  0.55103  1.0000
  H   H4702     1.0  0.97031  0.26362  0.55041  1.0000
  C   C3947     1.0  0.80303  0.38145  0.44478  1.0000
  C   C3948     1.0  0.82682  0.28116  0.52797  1.0000
  H   H4703     1.0  0.83183  0.25408  0.51692  1.0000
  H   H4704     1.0  0.91360  0.28951  0.55414  1.0000
  H   H4705     1.0  0.97094  0.32147  0.46244  1.0000
  C   C3949     1.0  0.79252  0.31653  0.48902  1.0000
  C   C3950     1.0  0.76529  0.31388  0.39675  1.0000
  C   C3951     1.0  0.77700  0.30314  0.40366  1.0000
  C   C3952     1.0  0.78327  0.28862  0.39964  1.0000
  C   C3953     1.0  0.77787  0.28474  0.38869  1.0000
  C   C3954     1.0  0.98095  0.34725  0.48573  1.0000
  C   C3955     1.0  0.75990  0.31000  0.38578  1.0000
  H   H4706     1.0  0.78113  0.30601  0.41219  1.0000
  H   H4707     1.0  0.79234  0.28045  0.40501  1.0000
  C   C3956     1.0  0.79201  0.31147  0.56675  1.0000
  C   C3957     1.0  0.78389  0.24900  0.42821  1.0000
  C   C3958     1.0  0.81619  0.29040  0.43812  1.0000
  C   C3959     1.0  0.81411  0.29364  0.42296  1.0000
  C   C3960     1.0  0.82293  0.28376  0.41298  1.0000
  C   C3961     1.0  0.83372  0.27050  0.41824  1.0000
  C   C3962     1.0  0.83520  0.26682  0.43366  1.0000
  C   C3963     1.0  0.82648  0.27678  0.44357  1.0000
  H   H4708     1.0  0.80591  0.30386  0.41880  1.0000
  H   H4709     1.0  0.82155  0.28654  0.40113  1.0000
  H   H4710     1.0  0.84323  0.25645  0.43797  1.0000
  H   H4711     1.0  0.82801  0.27407  0.45536  1.0000
  C   C3964     1.0  0.79175  0.39036  0.39112  1.0000
  C   C3965     1.0  0.77541  0.39438  0.39454  1.0000
  H   H4712     1.0  0.75956  0.40611  0.46128  1.0000
  S   S1060     1.0  0.98037  0.30336  0.54064  1.0000
  H   H4713     1.0  0.83561  0.26256  0.55346  1.0000
  H   H4714     1.0  0.83797  0.32155  0.50827  1.0000
  H   H4715     1.0  0.76887  0.38929  0.40557  1.0000
  C   C3966     1.0  0.84887  0.32133  0.55990  1.0000
  H   H4716     1.0  0.79075  0.41895  0.42780  1.0000
  C   C3967     1.0  0.96940  0.32970  0.46991  1.0000
  C   C3968     1.0  0.75294  0.36804  0.47806  1.0000
  C   C3969     1.0  0.74263  0.38058  0.48388  1.0000
  C   C3970     1.0  0.74743  0.38835  0.49220  1.0000
  C   C3971     1.0  0.76237  0.38325  0.49540  1.0000
  C   C3972     1.0  0.77264  0.37044  0.48991  1.0000
  C   C3973     1.0  0.76805  0.36306  0.48095  1.0000
  H   H4717     1.0  0.73095  0.38450  0.48169  1.0000
  H   H4718     1.0  0.78423  0.36643  0.49227  1.0000
  H   H4719     1.0  0.77612  0.35338  0.47653  1.0000
  Fe  Fe529     1.0  0.86228  0.24081  0.41856  1.0000
  Fe  Fe530     1.0  0.97762  0.26719  0.45884  1.0000
  H   H4720     1.0  0.86132  0.23581  0.50421  1.0000
  C   C3974     1.0  0.81473  0.37329  0.45298  1.0000
  C   C3975     1.0  0.86627  0.24605  0.47976  1.0000
  H   H4721     1.0  0.86045  0.32593  0.51524  1.0000
  S   S1061     1.0  0.79877  0.38450  0.53226  1.0000
  C   C3976     1.0  0.98205  0.26832  0.50818  1.0000
  H   H4722     1.0  0.73945  0.39825  0.49637  1.0000
  H   H4723     1.0  0.92613  0.31648  0.55705  1.0000
  H   H4724     1.0  0.76668  0.37345  0.38016  1.0000
  C   C3977     1.0  0.80259  0.38832  0.47255  1.0000
  N   N257      1.0  0.86103  0.30338  0.43015  1.0000
  C   C3978     1.0  0.85854  0.29514  0.41960  1.0000
  C   C3979     1.0  0.87795  0.29874  0.43031  1.0000
  C   C3980     1.0  0.85232  0.29792  0.44612  1.0000
  C   C3981     1.0  0.85521  0.32034  0.42499  1.0000
  C   C3982     1.0  0.86483  0.33125  0.42109  1.0000
  C   C3983     1.0  0.83938  0.32641  0.42370  1.0000
  C   C3984     1.0  0.85893  0.34717  0.41597  1.0000
  C   C3985     1.0  0.83364  0.34230  0.41856  1.0000
  C   C3986     1.0  0.84339  0.35266  0.41464  1.0000
  H   H4725     1.0  0.84599  0.29689  0.41970  1.0000
  H   H4726     1.0  0.86456  0.29922  0.40739  1.0000
  H   H4727     1.0  0.86293  0.28234  0.42294  1.0000
  H   H4728     1.0  0.88189  0.28589  0.43403  1.0000
  H   H4729     1.0  0.88067  0.30384  0.43862  1.0000
  H   H4730     1.0  0.88528  0.30224  0.41857  1.0000
  H   H4731     1.0  0.83951  0.30066  0.44703  1.0000
  H   H4732     1.0  0.85575  0.28509  0.45015  1.0000
  H   H4733     1.0  0.85434  0.30340  0.45453  1.0000
  H   H4734     1.0  0.87698  0.32780  0.42179  1.0000
  H   H4735     1.0  0.83127  0.31890  0.42657  1.0000
  H   H4736     1.0  0.86648  0.35530  0.41290  1.0000
  H   H4737     1.0  0.82157  0.34660  0.41745  1.0000
  H   H4738     1.0  0.78363  0.26015  0.43093  1.0000
  N   N258      1.0  0.74901  0.33308  0.51946  1.0000
  C   C3987     1.0  0.73498  0.33698  0.51277  1.0000
  C   C3988     1.0  0.74677  0.32074  0.53375  1.0000
  C   C3989     1.0  0.74960  0.34726  0.52378  1.0000
  C   C3990     1.0  0.76382  0.32765  0.50875  1.0000
  C   C3991     1.0  0.76430  0.32505  0.49407  1.0000
  C   C3992     1.0  0.77836  0.32421  0.51314  1.0000
  C   C3993     1.0  0.77848  0.31953  0.48445  1.0000
  C   C3994     1.0  0.79246  0.31888  0.50333  1.0000
  H   H4739     1.0  0.96174  0.33991  0.52964  1.0000
  H   H4740     1.0  0.73597  0.34626  0.50192  1.0000
  H   H4741     1.0  0.73312  0.32665  0.51008  1.0000
  H   H4742     1.0  0.72412  0.34144  0.52089  1.0000
  H   H4743     1.0  0.75634  0.31792  0.54002  1.0000
  H   H4744     1.0  0.74643  0.30981  0.53101  1.0000
  H   H4745     1.0  0.73573  0.32430  0.54214  1.0000
  H   H4746     1.0  0.75120  0.35682  0.51339  1.0000
  H   H4747     1.0  0.73868  0.35156  0.53193  1.0000
  H   H4748     1.0  0.75923  0.34535  0.52970  1.0000
  H   H4749     1.0  0.75395  0.32744  0.48956  1.0000
  H   H4750     1.0  0.77892  0.32563  0.52424  1.0000
  S   S1062     1.0  0.93289  0.24007  0.54123  1.0000
  H   H4751     1.0  0.93001  0.24634  0.48408  1.0000
  S   S1063     1.0  0.83425  0.35052  0.52214  1.0000
  H   H4752     1.0  0.76211  0.46712  0.56100  1.0000
  Fe  Fe531     1.0  0.87513  0.24629  0.54569  1.0000
  Fe  Fe532     1.0  0.78596  0.37676  0.55688  1.0000
  C   C3995     1.0  0.86568  0.24509  0.49531  1.0000
  C   C3996     1.0  0.84166  0.29785  0.50654  1.0000
  Fe  Fe533     1.0  0.88690  0.27008  0.51801  1.0000
  H   H4753     1.0  0.77861  0.31771  0.47327  1.0000
  H   H4754     1.0  0.77925  0.38264  0.43118  1.0000
  C   C3997     1.0  0.80008  0.39770  0.37701  1.0000
  C   C3998     1.0  0.93028  0.31167  0.54640  1.0000
  C   C3999     1.0  0.92812  0.25671  0.56307  1.0000
  H   H4755     1.0  0.95719  0.31214  0.49670  1.0000
  H   H4756     1.0  0.97567  0.30171  0.50183  1.0000
  H   H4757     1.0  0.82396  0.36421  0.44857  1.0000
  H   H4758     1.0  0.84331  0.27430  0.50730  1.0000
  C   C4000     1.0  0.96794  0.33123  0.50870  1.0000
  H   H4759     1.0  0.77606  0.41680  0.41938  1.0000
  H   H4760     1.0  0.78175  0.40501  0.46989  1.0000
  Fe  Fe534     1.0  0.80941  0.35904  0.53388  1.0000
  C   C4001     1.0  0.92313  0.30597  0.52535  1.0000
  S   S1064     1.0  0.90088  0.27669  0.53062  1.0000
  C   C4002     1.0  0.84479  0.33550  0.53427  1.0000
  H   H4761     1.0  0.81116  0.25758  0.41522  1.0000
  C   C4003     1.0  0.91473  0.23913  0.45792  1.0000
  H   H4762     1.0  0.92803  0.25695  0.46507  1.0000
  C   C4004     1.0  0.78503  0.41039  0.42636  1.0000
  H   H4763     1.0  0.79796  0.27568  0.54155  1.0000
  S   S1065     1.0  0.86932  0.29315  0.56520  1.0000
  N   N259      1.0  0.92241  0.23430  0.47129  1.0000
  C   C4005     1.0  0.96678  0.34205  0.51726  1.0000
  H   H4764     1.0  0.77513  0.24332  0.43744  1.0000
  H   H4765     1.0  0.84556  0.25191  0.52868  1.0000
  C   C4006     1.0  0.84082  0.33399  0.55037  1.0000
  H   H4766     1.0  0.89654  0.32877  0.53401  1.0000
  H   H4767     1.0  0.93736  0.28789  0.48852  1.0000
  C   C4007     1.0  0.83476  0.31043  0.51358  1.0000
  C   C4008     1.0  0.76527  0.41231  0.44972  1.0000
  C   C4009     1.0  0.90715  0.30177  0.55128  1.0000
  C   C4010     1.0  0.79052  0.39313  0.45040  1.0000
  H   H4768     1.0  0.80379  0.37846  0.43402  1.0000
  H   H4769     1.0  0.81496  0.26980  0.55948  1.0000
  H   H4770     1.0  0.99106  0.31636  0.43043  1.0000
  H   H4771     1.0  0.91416  0.33628  0.52884  1.0000
  H   H4772     1.0  0.76956  0.42181  0.45135  1.0000
  C   C4011     1.0  0.77871  0.43745  0.56857  1.0000
  H   H4773     1.0  0.85045  0.29912  0.49580  1.0000
  C   C4012     1.0  0.79078  0.39648  0.46450  1.0000
  C   C4013     1.0  0.81447  0.37668  0.46688  1.0000
  H   H4774     1.0  0.91634  0.25489  0.56659  1.0000
  H   H4775     1.0  0.94573  0.25123  0.38664  1.0000
  N   N260      1.0  0.97699  0.32210  0.48327  1.0000
  H   H4776     1.0  0.90356  0.33224  0.54858  1.0000
  H   H4777     1.0  0.87082  0.25481  0.51138  1.0000
  C   C4014     1.0  0.90748  0.32802  0.53759  1.0000
  S   S1066     1.0  0.86528  0.27140  0.53693  1.0000
  H   H4778     1.0  0.75474  0.40812  0.38635  1.0000
  H   H4779     1.0  0.80222  0.39076  0.48355  1.0000
  C   C4015     1.0  0.83762  0.28347  0.51346  1.0000
  S   S1067     1.0  0.88527  0.28005  0.49314  1.0000
  H   H4780     1.0  0.80502  0.26995  0.52326  1.0000
  H   H4781     1.0  0.82231  0.25002  0.55842  1.0000
  C   C4016     1.0  0.80646  0.26681  0.53546  1.0000
  C   C4017     1.0  0.75769  0.45942  0.57219  1.0000
  C   C4018     1.0  0.80746  0.39734  0.57092  1.0000
  H   H4782     1.0  0.97909  0.37130  0.55170  1.0000
  H   H4783     1.0  0.80298  0.25550  0.54115  1.0000
  C   C4019     1.0  0.82393  0.26200  0.55249  1.0000
  S   S1068     1.0  0.79116  0.35418  0.52505  1.0000
  H   H4784     1.0  0.78399  0.44339  0.55671  1.0000
  H   H4785     1.0  0.77975  0.25238  0.41721  1.0000
  C   C4020     1.0  0.86048  0.30993  0.55335  1.0000
  H   H4786     1.0  0.92052  0.24733  0.44816  1.0000
  C   C4021     1.0  0.95405  0.25276  0.54660  1.0000
  N   N261      1.0  0.82275  0.26593  0.53598  1.0000
  N   N262      1.0  0.79972  0.23862  0.42696  1.0000
  H   H4787     1.0  0.83171  0.34267  0.55544  1.0000
  N   N263      1.0  0.91711  0.31189  0.53980  1.0000
  H   H4788     1.0  0.96339  0.32105  0.51501  1.0000
  H   H4789     1.0  0.83885  0.36496  0.41048  1.0000
  C   C4022     1.0  0.96997  0.30855  0.49205  1.0000
  C   C4023     1.0  0.92355  0.30766  0.49808  1.0000
  H   H4790     1.0  0.98689  0.34963  0.47363  1.0000
  H   H4791     1.0  0.81030  0.39353  0.56016  1.0000
  H   H4792     1.0  0.97151  0.26502  0.51550  1.0000
  H   H4793     1.0  0.97431  0.33969  0.46227  1.0000
  C   C4024     1.0  0.82371  0.30873  0.52751  1.0000
  Fe  Fe535     1.0  0.90786  0.25107  0.54017  1.0000
  H   H4794     1.0  0.97140  0.30035  0.48459  1.0000
  H   H4795     1.0  0.84593  0.32025  0.57231  1.0000
  H   H4796     1.0  0.87223  0.25897  0.45635  1.0000
  H   H4797     1.0  0.93711  0.29973  0.55010  1.0000
  H   H4798     1.0  0.90241  0.24536  0.46111  1.0000
  C   C4025     1.0  0.95857  0.26167  0.55399  1.0000
  Fe  Fe536     1.0  0.87998  0.27557  0.55044  1.0000
  S   S1069     1.0  0.76479  0.33102  0.56042  1.0000
  H   H4799     1.0  0.77049  0.43113  0.56735  1.0000
  C   C4026     1.0  0.86475  0.31172  0.53724  1.0000
  C   C4027     1.0  0.81959  0.29439  0.53448  1.0000
  H   H4800     1.0  0.79406  0.40278  0.41915  1.0000
  H   H4801     1.0  0.83041  0.24143  0.53565  1.0000
  H   H4802     1.0  0.82776  0.40722  0.56506  1.0000
  H   H4803     1.0  0.84158  0.23915  0.38483  1.0000
  C   C4028     1.0  0.77575  0.31386  0.56968  1.0000
  H   H4804     1.0  0.98407  0.36850  0.48884  1.0000
  H   H4805     1.0  0.82027  0.45810  0.57350  1.0000
  H   H4806     1.0  0.98904  0.27256  0.52679  1.0000
  H   H4807     1.0  0.97180  0.36362  0.51694  1.0000
  H   H4808     1.0  0.81333  0.29581  0.57194  1.0000
  S   S1070     1.0  0.95273  0.27994  0.57480  1.0000
  H   H4809     1.0  0.75070  0.31816  0.38054  1.0000
  C   C4029     1.0  0.81732  0.40511  0.57370  1.0000
  H   H4810     1.0  0.80379  0.44416  0.56907  1.0000
  H   H4811     1.0  0.82270  0.23881  0.41245  1.0000
  C   C4030     1.0  0.95773  0.25307  0.38105  1.0000
  C   C4031     1.0  0.80504  0.23709  0.44128  1.0000
  C   C4032     1.0  0.93270  0.26535  0.57066  1.0000
  C   C4033     1.0  0.79796  0.45361  0.57488  1.0000
  H   H4812     1.0  0.78803  0.42827  0.57335  1.0000
  H   H4813     1.0  0.94482  0.23266  0.45520  1.0000
  H   H4814     1.0  0.75013  0.45304  0.56994  1.0000
  C   C4034     1.0  0.80070  0.29775  0.57434  1.0000
  H   H4815     1.0  0.81193  0.23742  0.37759  1.0000
  Fe  Fe537     1.0  0.98980  0.24908  0.43321  1.0000
  Fe  Fe538     1.0  0.99056  0.31435  0.55316  1.0000
  S   S1071     1.0  0.86044  0.23169  0.47505  1.0000
  H   H4816     1.0  0.85739  0.34632  0.72414  1.0000
  S   S1072     1.0  0.99109  0.47040  0.72392  1.0000
  C   C4035     1.0  0.81765  0.40140  0.73233  1.0000
  C   C4036     1.0  0.77308  0.28025  0.71731  1.0000
  C   C4037     1.0  0.79378  0.39488  0.58190  1.0000
  H   H4817     1.0  0.78048  0.36318  0.67887  1.0000
  H   H4818     1.0  0.76981  0.28967  0.72331  1.0000
  C   C4038     1.0  0.79315  0.25912  0.70726  1.0000
  C   C4039     1.0  0.77543  0.46961  0.58855  1.0000
  H   H4819     1.0  0.67015  0.23504  0.63004  1.0000
  H   H4820     1.0  0.78556  0.37778  0.66202  1.0000
  C   C4040     1.0  0.86630  0.38217  0.70746  1.0000
  H   H4821     1.0  0.81052  0.33590  0.64234  1.0000
  C   C4041     1.0  0.74755  0.31331  0.77212  1.0000
  H   H4822     1.0  0.87240  0.40566  0.67153  1.0000
  Fe  Fe539     1.0  0.77432  0.24272  0.64523  1.0000
  C   C4042     1.0  0.68020  0.24050  0.62822  1.0000
  H   H4823     1.0  0.75554  0.30454  0.58266  1.0000
  Fe  Fe540     1.0  0.77934  0.27301  0.64872  1.0000
  S   S1073     1.0  0.80378  0.26929  0.63451  1.0000
  S   S1074     1.0  0.76891  0.29422  0.65916  1.0000
  Fe  Fe541     1.0  0.79409  0.26166  0.61884  1.0000
  S   S1075     1.0  0.80422  0.26904  0.59346  1.0000
  C   C4043     1.0  0.71976  0.25809  0.62491  1.0000
  S   S1076     1.0  0.76913  0.26750  0.63179  1.0000
  S   S1077     1.0  0.78241  0.24877  0.66337  1.0000
  C   C4044     1.0  0.91842  0.47113  0.73332  1.0000
  C   C4045     1.0  0.80871  0.23363  0.71543  1.0000
  H   H4824     1.0  0.80741  0.35687  0.68448  1.0000
  C   C4046     1.0  0.80720  0.47508  0.72875  1.0000
  H   H4825     1.0  0.80324  0.32467  0.58755  1.0000
  H   H4826     1.0  0.87586  0.38488  0.67698  1.0000
  C   C4047     1.0  0.81848  0.35103  0.62132  1.0000
  H   H4827     1.0  0.56389  0.26559  0.75486  1.0000
  H   H4828     1.0  0.78343  0.45345  0.72662  1.0000
  H   H4829     1.0  0.85043  0.24936  0.57762  1.0000
  C   C4048     1.0  0.87090  0.41044  0.74951  1.0000
  H   H4830     1.0  0.81141  0.42025  0.71342  1.0000
  C   C4049     1.0  0.87493  0.39544  0.68112  1.0000
  C   C4050     1.0  0.81157  0.36008  0.67163  1.0000
  S   S1078     1.0  0.91725  0.47416  0.70310  1.0000
  H   H4831     1.0  0.77970  0.39792  0.60440  1.0000
  C   C4051     1.0  0.84263  0.37305  0.75671  1.0000
  C   C4052     1.0  0.76226  0.27770  0.71076  1.0000
  C   C4053     1.0  0.86214  0.41057  0.70058  1.0000
  S   S1079     1.0  0.74350  0.33839  0.74787  1.0000
  C   C4054     1.0  0.73777  0.32730  0.76659  1.0000
  H   H4832     1.0  0.85113  0.37456  0.74540  1.0000
  C   C4055     1.0  0.98947  0.39775  0.75996  1.0000
  H   H4833     1.0  0.85484  0.24807  0.61624  1.0000
  Fe  Fe542     1.0  0.87666  0.44147  0.72241  1.0000
  S   S1080     1.0  0.88898  0.45254  0.69892  1.0000
  Fe  Fe543     1.0  0.89381  0.46773  0.71150  1.0000
  C   C4056     1.0  0.60173  0.23475  0.74510  1.0000
  C   C4057     1.0  0.70709  0.25176  0.62616  1.0000
  C   C4058     1.0  0.79024  0.39985  0.59582  1.0000
  S   S1081     1.0  0.88376  0.45491  0.73525  1.0000
  S   S1082     1.0  0.85344  0.45750  0.72079  1.0000
  S   S1083     1.0  0.95220  0.46488  0.75634  1.0000
  Fe  Fe544     1.0  0.81777  0.43028  0.61211  1.0000
  S   S1084     1.0  0.79346  0.44349  0.62026  1.0000
  S   S1085     1.0  0.82541  0.42123  0.59010  1.0000
  Fe  Fe545     1.0  0.82872  0.43170  0.64012  1.0000
  S   S1086     1.0  0.80519  0.44466  0.65070  1.0000
  S   S1087     1.0  0.84955  0.42473  0.65117  1.0000
  Fe  Fe546     1.0  0.79601  0.42816  0.64356  1.0000
  S   S1088     1.0  0.77798  0.41521  0.65927  1.0000
  H   H4834     1.0  0.87563  0.23561  0.59564  1.0000
  S   S1089     1.0  0.81956  0.41391  0.63500  1.0000
  S   S1090     1.0  0.82935  0.44690  0.61625  1.0000
  Fe  Fe547     1.0  0.79850  0.31841  0.71840  1.0000
  S   S1091     1.0  0.78180  0.34151  0.71408  1.0000
  S   S1092     1.0  0.80916  0.30375  0.70041  1.0000
  Fe  Fe548     1.0  0.79703  0.34970  0.72410  1.0000
  S   S1093     1.0  0.80702  0.37105  0.71492  1.0000
  S   S1094     1.0  0.81467  0.32720  0.72666  1.0000
  H   H4835     1.0  0.87619  0.43118  0.65680  1.0000
  C   C4059     1.0  0.83487  0.32177  0.75967  1.0000
  C   C4060     1.0  0.81532  0.24751  0.68892  1.0000
  C   C4061     1.0  0.76451  0.43972  0.59438  1.0000
  H   H4836     1.0  0.85727  0.32775  0.74929  1.0000
  N   N264      1.0  0.86260  0.39644  0.69545  1.0000
  C   C4062     1.0  0.69965  0.24360  0.64069  1.0000
  C   C4063     1.0  0.81354  0.41046  0.58744  1.0000
  C   C4064     1.0  0.97376  0.42291  0.75051  1.0000
  C   C4065     1.0  0.92631  0.46891  0.74511  1.0000
  Fe  Fe549     1.0  0.80619  0.24466  0.64781  1.0000
  C   C4066     1.0  0.81184  0.37372  0.63840  1.0000
  C   C4067     1.0  0.58789  0.25641  0.75798  1.0000
  H   H4837     1.0  0.82616  0.36846  0.60149  1.0000
  H   H4838     1.0  0.79617  0.27413  0.72060  1.0000
  C   C4068     1.0  0.86317  0.35584  0.72172  1.0000
  H   H4839     1.0  0.83362  0.31971  0.74915  1.0000
  C   C4069     1.0  0.85894  0.36948  0.71086  1.0000
  H   H4840     1.0  0.88661  0.39491  0.68298  1.0000
  H   H4841     1.0  0.78411  0.24703  0.69554  1.0000
  H   H4842     1.0  0.69279  0.33624  0.76651  1.0000
  C   C4070     1.0  0.86523  0.42156  0.75862  1.0000
  H   H4843     1.0  0.95596  0.23310  0.61208  1.0000
  C   C4071     1.0  0.67353  0.24034  0.65533  1.0000
  C   C4072     1.0  0.78832  0.27116  0.71561  1.0000
  S   S1095     1.0  0.87722  0.41596  0.72936  1.0000
  C   C4073     1.0  0.83169  0.42167  0.73857  1.0000
  H   H4844     1.0  0.75824  0.30877  0.76465  1.0000
  H   H4845     1.0  0.88472  0.38907  0.71318  1.0000
  S   S1096     1.0  0.78316  0.34451  0.74835  1.0000
  H   H4846     1.0  0.87801  0.34380  0.73794  1.0000
  Fe  Fe550     1.0  0.86130  0.47196  0.73182  1.0000
  C   C4074     1.0  0.87829  0.38015  0.71536  1.0000
  H   H4847     1.0  0.73560  0.26085  0.63689  1.0000
  H   H4848     1.0  0.82321  0.35732  0.75558  1.0000
  C   C4075     1.0  0.70589  0.24197  0.65371  1.0000
  H   H4849     1.0  0.77854  0.36216  0.66028  1.0000
  C   C4076     1.0  0.78526  0.40389  0.67556  1.0000
  C   C4077     1.0  0.77690  0.39356  0.68673  1.0000
  C   C4078     1.0  0.78340  0.38357  0.69908  1.0000
  C   C4079     1.0  0.79812  0.38413  0.70035  1.0000
  C   C4080     1.0  0.80619  0.39483  0.68951  1.0000
  C   C4081     1.0  0.79984  0.40461  0.67707  1.0000
  H   H4850     1.0  0.76553  0.39312  0.68570  1.0000
  H   H4851     1.0  0.77695  0.37556  0.70765  1.0000
  H   H4852     1.0  0.81755  0.39529  0.69045  1.0000
  H   H4853     1.0  0.80634  0.41259  0.66857  1.0000
  C   C4082     1.0  0.85434  0.46233  0.67185  1.0000
  H   H4854     1.0  0.82933  0.46998  0.67495  1.0000
  C   C4083     1.0  0.83798  0.44978  0.66496  1.0000
  C   C4084     1.0  0.85118  0.43892  0.65965  1.0000
  C   C4085     1.0  0.86591  0.43945  0.66100  1.0000
  C   C4086     1.0  0.86749  0.45111  0.66716  1.0000
  H   H4855     1.0  0.82436  0.43800  0.71867  1.0000
  H   H4856     1.0  0.82655  0.44927  0.66432  1.0000
  H   H4857     1.0  0.82105  0.34228  0.61460  1.0000
  H   H4858     1.0  0.87895  0.45178  0.66771  1.0000
  H   H4859     1.0  0.97946  0.43186  0.72578  1.0000
  C   C4087     1.0  0.94327  0.46680  0.71509  1.0000
  C   C4088     1.0  0.95114  0.46428  0.72696  1.0000
  C   C4089     1.0  0.94268  0.46576  0.74188  1.0000
  S   S1097     1.0  0.80673  0.31327  0.77352  1.0000
  H   H4860     1.0  0.76314  0.47273  0.59373  1.0000
  C   C4090     1.0  0.78923  0.46300  0.72378  1.0000
  H   H4861     1.0  0.72351  0.24650  0.66228  1.0000
  H   H4862     1.0  0.74983  0.46696  0.58008  1.0000
  H   H4863     1.0  0.84606  0.37807  0.76457  1.0000
  Fe  Fe551     1.0  0.79972  0.32129  0.75043  1.0000
  C   C4091     1.0  0.84853  0.25120  0.58950  1.0000
  H   H4864     1.0  0.81441  0.25898  0.68064  1.0000
  H   H4865     1.0  0.83779  0.39773  0.70222  1.0000
  H   H4866     1.0  0.83535  0.24493  0.62044  1.0000
  H   H4867     1.0  0.75723  0.43210  0.59377  1.0000
  C   C4092     1.0  0.57481  0.24652  0.74399  1.0000
  H   H4868     1.0  0.75807  0.26384  0.69770  1.0000
  H   H4869     1.0  0.85509  0.41039  0.71261  1.0000
  N   N265      1.0  0.80918  0.24924  0.70525  1.0000
  H   H4870     1.0  0.70363  0.25308  0.61549  1.0000
  S   S1098     1.0  0.79860  0.23651  0.63088  1.0000
  H   H4871     1.0  0.56439  0.24684  0.74036  1.0000
  H   H4872     1.0  0.79321  0.47649  0.65352  1.0000
  S   S1099     1.0  0.78033  0.38657  0.57830  1.0000
  H   H4873     1.0  0.87570  0.38613  0.74955  1.0000
  H   H4874     1.0  0.90578  0.47397  0.73581  1.0000
  H   H4875     1.0  0.87395  0.41183  0.70037  1.0000
  H   H4876     1.0  0.66956  0.25318  0.65380  1.0000
  H   H4877     1.0  0.84392  0.40999  0.68376  1.0000
  H   H4878     1.0  0.83492  0.29322  0.61449  1.0000
  C   C4093     1.0  0.84797  0.23976  0.61638  1.0000
  C   C4094     1.0  0.87148  0.39475  0.75655  1.0000
  H   H4879     1.0  0.82786  0.30583  0.58917  1.0000
  C   C4095     1.0  0.80006  0.40764  0.59858  1.0000
  H   H4880     1.0  0.76588  0.32109  0.63224  1.0000
  N   N266      1.0  0.85092  0.23617  0.60098  1.0000
  C   C4096     1.0  0.87483  0.35434  0.72942  1.0000
  H   H4881     1.0  0.81651  0.29893  0.63866  1.0000
  H   H4882     1.0  0.79713  0.41162  0.60925  1.0000
  C   C4097     1.0  0.80169  0.33912  0.67023  1.0000
  H   H4883     1.0  0.96459  0.43314  0.75185  1.0000
  H   H4884     1.0  0.82860  0.36871  0.73647  1.0000
  C   C4098     1.0  0.78010  0.29720  0.67042  1.0000
  C   C4099     1.0  0.79576  0.28945  0.66942  1.0000
  C   C4100     1.0  0.80463  0.29200  0.67831  1.0000
  C   C4101     1.0  0.79778  0.30187  0.68870  1.0000
  C   C4102     1.0  0.78214  0.30980  0.68962  1.0000
  C   C4103     1.0  0.77338  0.30761  0.68033  1.0000
  H   H4885     1.0  0.80105  0.28150  0.66176  1.0000
  H   H4886     1.0  0.81680  0.28610  0.67733  1.0000
  H   H4887     1.0  0.77673  0.31742  0.69761  1.0000
  H   H4888     1.0  0.76125  0.31364  0.68115  1.0000
  C   C4104     1.0  0.79312  0.28652  0.58497  1.0000
  C   C4105     1.0  0.76815  0.30265  0.58033  1.0000
  H   H4889     1.0  0.75063  0.28511  0.71167  1.0000
  C   C4106     1.0  0.83200  0.40676  0.74800  1.0000
  C   C4107     1.0  0.60160  0.24505  0.75379  1.0000
  C   C4108     1.0  0.77683  0.28903  0.58811  1.0000
  H   H4890     1.0  0.94986  0.46597  0.70348  1.0000
  H   H4891     1.0  0.95234  0.24005  0.59296  1.0000
  C   C4109     1.0  0.78158  0.25638  0.70140  1.0000
  H   H4892     1.0  0.77097  0.28029  0.59624  1.0000
  H   H4893     1.0  0.81080  0.37281  0.66886  1.0000
  C   C4110     1.0  0.80135  0.47365  0.58518  1.0000
  C   C4111     1.0  0.78146  0.45740  0.58042  1.0000
  H   H4894     1.0  0.77183  0.33723  0.63482  1.0000
  H   H4895     1.0  0.97829  0.24423  0.60359  1.0000
  H   H4896     1.0  0.79717  0.33700  0.68301  1.0000
  C   C4112     1.0  0.79967  0.46279  0.73239  1.0000
  C   C4113     1.0  0.88236  0.36648  0.72624  1.0000
  H   H4897     1.0  0.79374  0.33524  0.66563  1.0000
  H   H4898     1.0  0.82062  0.26772  0.70252  1.0000
  H   H4899     1.0  0.82660  0.24193  0.58547  1.0000
  C   C4114     1.0  0.58547  0.28332  0.75794  1.0000
  H   H4900     1.0  0.84752  0.38983  0.68516  1.0000
  H   H4901     1.0  0.80367  0.38598  0.76950  1.0000
  H   H4902     1.0  0.83375  0.47908  0.62079  1.0000
  C   C4115     1.0  0.92690  0.47030  0.71824  1.0000
  C   C4116     1.0  0.71854  0.24837  0.65232  1.0000
  H   H4903     1.0  0.81192  0.39421  0.72929  1.0000
  H   H4904     1.0  0.82073  0.38834  0.61670  1.0000
  H   H4905     1.0  0.86304  0.47937  0.64053  1.0000
  S   S1100     1.0  0.98387  0.29886  0.57632  1.0000
  S   S1101     1.0  0.82865  0.23358  0.65588  1.0000
  H   H4906     1.0  0.75715  0.44743  0.60232  1.0000
  H   H4907     1.0  0.80194  0.45306  0.74198  1.0000
  H   H4908     1.0  0.86435  0.43374  0.75325  1.0000
  Fe  Fe552     1.0  0.80508  0.45885  0.62650  1.0000
  C   C4117     1.0  0.76648  0.26575  0.70288  1.0000
  C   C4118     1.0  0.57462  0.25706  0.75247  1.0000
  C   C4119     1.0  0.81239  0.34753  0.63734  1.0000
  H   H4909     1.0  0.80905  0.38306  0.64438  1.0000
  Fe  Fe553     1.0  0.76966  0.33379  0.73895  1.0000
  N   N267      1.0  0.80222  0.35569  0.66332  1.0000
  H   H4910     1.0  0.82783  0.24128  0.68672  1.0000
  C   C4120     1.0  0.80897  0.35881  0.64641  1.0000
  C   C4121     1.0  0.82143  0.36572  0.61391  1.0000
  H   H4911     1.0  0.83658  0.25841  0.59261  1.0000
  H   H4912     1.0  0.71601  0.34360  0.77212  1.0000
  H   H4913     1.0  0.68901  0.23638  0.61827  1.0000
  H   H4914     1.0  0.79123  0.31640  0.63801  1.0000
  S   S1102     1.0  0.86671  0.33511  0.77307  1.0000
  H   H4915     1.0  0.72553  0.26392  0.61368  1.0000
  H   H4916     1.0  0.59551  0.28425  0.74778  1.0000
  N   N268      1.0  0.58714  0.26727  0.76753  1.0000
  H   H4917     1.0  0.75957  0.33643  0.60116  1.0000
  H   H4918     1.0  0.84435  0.36043  0.76202  1.0000
  C   C4122     1.0  0.83956  0.46146  0.67108  1.0000
  H   H4919     1.0  0.57461  0.28719  0.75339  1.0000
  H   H4920     1.0  0.75625  0.34078  0.62543  1.0000
  H   H4921     1.0  0.67665  0.23550  0.66683  1.0000
  H   H4922     1.0  0.80913  0.24058  0.68556  1.0000
  H   H4923     1.0  0.85713  0.42150  0.69291  1.0000
  H   H4924     1.0  0.77412  0.43213  0.60008  1.0000
  C   C4123     1.0  0.86676  0.39016  0.77269  1.0000
  C   C4124     1.0  0.82535  0.39600  0.74494  1.0000
  C   C4125     1.0  0.72544  0.25642  0.63797  1.0000
  C   C4126     1.0  0.84729  0.39851  0.69159  1.0000
  C   C4127     1.0  0.82051  0.25556  0.70921  1.0000
  H   H4925     1.0  0.85679  0.25838  0.58883  1.0000
  C   C4128     1.0  0.81723  0.41644  0.72307  1.0000
  H   H4926     1.0  0.89143  0.36528  0.73227  1.0000
  H   H4927     1.0  0.66327  0.23559  0.65612  1.0000
  H   H4928     1.0  0.84995  0.36975  0.70521  1.0000
  Fe  Fe554     1.0  0.86635  0.46985  0.69845  1.0000
  H   H4929     1.0  0.81780  0.25547  0.72179  1.0000
  H   H4930     1.0  0.96374  0.46145  0.72447  1.0000
  H   H4931     1.0  0.67591  0.25330  0.62478  1.0000
  H   H4932     1.0  0.82413  0.35419  0.66877  1.0000
  S   S1103     1.0  0.78533  0.31000  0.74258  1.0000
  H   H4933     1.0  0.81354  0.33135  0.66831  1.0000
  H   H4934     1.0  0.91968  0.47007  0.75665  1.0000
  C   C4129     1.0  0.78601  0.36509  0.66625  1.0000
  N   N269      1.0  0.82633  0.38008  0.75480  1.0000
  C   C4130     1.0  0.82440  0.42648  0.72607  1.0000
  C   C4131     1.0  0.97753  0.41084  0.76337  1.0000
  C   C4132     1.0  0.81826  0.37697  0.62247  1.0000
  H   H4935     1.0  0.92438  0.27025  0.57996  1.0000
  N   N270      1.0  0.77919  0.33334  0.61148  1.0000
  C   C4133     1.0  0.78180  0.34935  0.60513  1.0000
  C   C4134     1.0  0.77177  0.32956  0.60096  1.0000
  C   C4135     1.0  0.76786  0.33305  0.62667  1.0000
  C   C4136     1.0  0.79443  0.32236  0.61258  1.0000
  C   C4137     1.0  0.80556  0.31919  0.59894  1.0000
  C   C4138     1.0  0.79889  0.31489  0.62698  1.0000
  C   C4139     1.0  0.81987  0.30863  0.59970  1.0000
  C   C4140     1.0  0.81345  0.30472  0.62756  1.0000
  C   C4141     1.0  0.82384  0.30146  0.61397  1.0000
  H   H4936     1.0  0.77070  0.35804  0.60371  1.0000
  H   H4937     1.0  0.78709  0.35285  0.61276  1.0000
  H   H4938     1.0  0.78981  0.35056  0.59346  1.0000
  H   H4939     1.0  0.77793  0.33230  0.58861  1.0000
  N   N271      1.0  0.68667  0.23614  0.64236  1.0000
  H   H4940     1.0  0.77144  0.31701  0.60417  1.0000
  H   H4941     1.0  0.70144  0.23526  0.66498  1.0000
  C   C4142     1.0  0.98219  0.42230  0.73537  1.0000
  H   H4942     1.0  0.83268  0.24860  0.70657  1.0000
  H   H4943     1.0  0.86683  0.47740  0.62066  1.0000
  H   H4944     1.0  0.83764  0.40370  0.75765  1.0000
  C   C4143     1.0  0.98158  0.24042  0.59243  1.0000
  C   C4144     1.0  0.84828  0.32629  0.75976  1.0000
  H   H4945     1.0  0.97667  0.25036  0.58368  1.0000
  H   H4946     1.0  0.80897  0.37301  0.74795  1.0000
  H   H4947     1.0  0.76124  0.23464  0.62031  1.0000
  H   H4948     1.0  0.85310  0.46796  0.63560  1.0000
  Fe  Fe555     1.0  0.97784  0.46496  0.74859  1.0000
  H   H4949     1.0  0.83734  0.42944  0.74091  1.0000
  C   C4145     1.0  0.81606  0.38083  0.77033  1.0000
  C   C4146     1.0  0.82157  0.36941  0.74837  1.0000
  C   C4147     1.0  0.80768  0.46162  0.57731  1.0000
  H   H4950     1.0  0.61228  0.24350  0.75748  1.0000
  H   H4951     1.0  0.61195  0.26510  0.76472  1.0000
  H   H4952     1.0  0.58497  0.29180  0.76478  1.0000
  H   H4953     1.0  0.81521  0.47412  0.73586  1.0000
  C   C4148     1.0  0.85022  0.32864  0.77343  1.0000
  C   C4149     1.0  0.78618  0.47557  0.71155  1.0000
  C   C4150     1.0  0.82347  0.31926  0.77333  1.0000
  H   H4954     1.0  0.80409  0.23435  0.72782  1.0000
  N   N272      1.0  0.77087  0.44861  0.57882  1.0000
  C   C4151     1.0  0.86077  0.41692  0.77481  1.0000
  S   S1104     1.0  0.85652  0.47831  0.67715  1.0000
  S   S1105     1.0  0.98768  0.48031  0.75670  1.0000
  H   H4955     1.0  0.77802  0.47578  0.70486  1.0000
  C   C4152     1.0  0.78526  0.47766  0.59076  1.0000
  H   H4956     1.0  0.99132  0.31239  0.60070  1.0000
  C   C4153     1.0  0.85760  0.47884  0.63133  1.0000
  H   H4957     1.0  0.80895  0.47958  0.58738  1.0000
  C   C4154     1.0  0.60127  0.26372  0.77399  1.0000
  C   C4155     1.0  0.58831  0.23531  0.74042  1.0000
  Fe  Fe556     1.0  0.59539  0.26635  0.81517  1.0000
  S   S1106     1.0  0.58467  0.29092  0.80479  1.0000
  Fe  Fe557     1.0  0.58989  0.23752  0.83953  1.0000
  H   H4958     1.0  0.89462  0.37839  0.83154  1.0000
  Fe  Fe558     1.0  0.62103  0.24693  0.83160  1.0000
  S   S1107     1.0  0.64166  0.24723  0.84049  1.0000
  S   S1108     1.0  0.59633  0.25906  0.84032  1.0000
  S   S1109     1.0  0.58670  0.24593  0.81513  1.0000
  H   H4959     1.0  0.51447  0.25852  0.85857  1.0000
  C   C4156     1.0  0.54117  0.31533  0.81980  1.0000
  Fe  Fe559     1.0  0.57138  0.40891  0.86667  1.0000
  S   S1110     1.0  0.57637  0.42513  0.84354  1.0000
  S   S1111     1.0  0.55362  0.39395  0.87437  1.0000
  Fe  Fe560     1.0  0.59632  0.41617  0.87802  1.0000
  S   S1112     1.0  0.60381  0.43260  0.85566  1.0000
  S   S1113     1.0  0.60529  0.41182  0.89948  1.0000
  Fe  Fe561     1.0  0.57801  0.44153  0.85685  1.0000
  Fe  Fe562     1.0  0.60147  0.41466  0.84464  1.0000
  S   S1114     1.0  0.61747  0.40433  0.82501  1.0000
  S   S1115     1.0  0.57072  0.42615  0.87999  1.0000
  S   S1116     1.0  0.59637  0.39739  0.86700  1.0000
  Fe  Fe563     1.0  0.69856  0.44384  0.91724  1.0000
  S   S1117     1.0  0.69439  0.41991  0.92146  1.0000
  S   S1118     1.0  0.72150  0.45039  0.91367  1.0000
  Fe  Fe564     1.0  0.66381  0.45875  0.92343  1.0000
  S   S1119     1.0  0.65656  0.43626  0.92873  1.0000
  C   C4157     1.0  0.50316  0.41273  0.84552  1.0000
  Fe  Fe565     1.0  0.67570  0.43171  0.90793  1.0000
  S   S1120     1.0  0.67291  0.42286  0.88870  1.0000
  S   S1121     1.0  0.68115  0.44968  0.93845  1.0000
  S   S1122     1.0  0.68157  0.45515  0.90168  1.0000
  C   C4158     1.0  0.95828  0.42640  0.78138  1.0000
  Fe  Fe566     1.0  0.75150  0.35155  0.91822  1.0000
  S   S1123     1.0  0.77447  0.35641  0.90354  1.0000
  S   S1124     1.0  0.73357  0.35609  0.90385  1.0000
  Fe  Fe567     1.0  0.77273  0.37103  0.91985  1.0000
  C   C4159     1.0  0.69874  0.28279  0.79654  1.0000
  Fe  Fe568     1.0  0.78490  0.33649  0.92065  1.0000
  S   S1125     1.0  0.80690  0.31960  0.91296  1.0000
  Fe  Fe569     1.0  0.69773  0.31343  0.86726  1.0000
  S   S1126     1.0  0.71038  0.32792  0.84643  1.0000
  S   S1127     1.0  0.70937  0.30545  0.88770  1.0000
  Fe  Fe570     1.0  0.67245  0.31428  0.85047  1.0000
  S   S1128     1.0  0.68365  0.32908  0.82846  1.0000
  S   S1129     1.0  0.64905  0.31059  0.84975  1.0000
  Fe  Fe571     1.0  0.70619  0.31312  0.83319  1.0000
  S   S1130     1.0  0.72665  0.30159  0.81707  1.0000
  Fe  Fe572     1.0  0.68655  0.34222  0.84424  1.0000
  S   S1131     1.0  0.68236  0.36789  0.84191  1.0000
  S   S1132     1.0  0.69501  0.29734  0.85418  1.0000
  S   S1133     1.0  0.67391  0.32867  0.86599  1.0000
  H   H4960     1.0  0.56452  0.23458  0.92584  1.0000
  H   H4961     1.0  0.76875  0.37259  0.95957  1.0000
  H   H4962     1.0  0.58795  0.46964  0.88417  1.0000
  S   S1134     1.0  0.49816  0.35418  0.82308  1.0000
  C   C4160     1.0  0.92452  0.40450  0.82710  1.0000
  H   H4963     1.0  0.92973  0.42717  0.82010  1.0000
  Fe  Fe573     1.0  0.86028  0.36940  0.80879  1.0000
  S   S1135     1.0  0.88170  0.35374  0.79817  1.0000
  S   S1136     1.0  0.85703  0.39527  0.80216  1.0000
  Fe  Fe574     1.0  0.84475  0.34292  0.82748  1.0000
  S   S1137     1.0  0.86505  0.32479  0.81865  1.0000
  S   S1138     1.0  0.82070  0.33905  0.84006  1.0000
  Fe  Fe575     1.0  0.87995  0.33888  0.82221  1.0000
  S   S1139     1.0  0.90370  0.32844  0.82810  1.0000
  Fe  Fe576     1.0  0.86509  0.34130  0.79551  1.0000
  H   H4964     1.0  0.82370  0.30351  0.95825  1.0000
  S   S1140     1.0  0.85948  0.35562  0.83323  1.0000
  S   S1141     1.0  0.84383  0.35840  0.80398  1.0000
  C   C4161     1.0  0.49249  0.27527  0.86083  1.0000
  H   H4965     1.0  0.77836  0.33523  0.78228  1.0000
  Fe  Fe577     1.0  0.97092  0.39503  0.83549  1.0000
  H   H4966     1.0  0.52941  0.43174  0.87570  1.0000
  N   N273      1.0  0.60103  0.46179  0.90220  1.0000
  H   H4967     1.0  0.83819  0.30773  0.97449  1.0000
  S   S1142     1.0  0.52074  0.27546  0.91557  1.0000
  Fe  Fe578     1.0  0.61187  0.23443  0.80862  1.0000
  H   H4968     1.0  0.61272  0.44648  0.92028  1.0000
  C   C4162     1.0  0.50172  0.41464  0.86036  1.0000
  H   H4969     1.0  0.74832  0.35705  0.77893  1.0000
  H   H4970     1.0  0.74978  0.32814  0.84432  1.0000
  H   H4971     1.0  0.60332  0.25166  0.78115  1.0000
  H   H4972     1.0  0.50712  0.45275  0.87010  1.0000
  H   H4973     1.0  0.97525  0.35909  0.89590  1.0000
  H   H4974     1.0  0.66068  0.28889  0.81561  1.0000
  H   H4975     1.0  0.49714  0.29103  0.89814  1.0000
  C   C4163     1.0  0.91207  0.41295  0.80067  1.0000
  C   C4164     1.0  0.49498  0.24743  0.86726  1.0000
  H   H4976     1.0  0.53433  0.27892  0.83447  1.0000
  H   H4977     1.0  0.90844  0.39468  0.78236  1.0000
  H   H4978     1.0  0.53868  0.25594  0.94237  1.0000
  H   H4979     1.0  0.91149  0.36308  0.80402  1.0000
  C   C4165     1.0  0.55699  0.31142  0.81237  1.0000
  C   C4166     1.0  0.98441  0.44892  0.79560  1.0000
  C   C4167     1.0  0.54500  0.39337  0.83356  1.0000
  H   H4980     1.0  0.76086  0.33038  0.78239  1.0000
  C   C4168     1.0  0.92776  0.35114  0.85061  1.0000
  C   C4169     1.0  0.91137  0.35357  0.85416  1.0000
  C   C4170     1.0  0.90380  0.34711  0.84694  1.0000
  C   C4171     1.0  0.91262  0.33779  0.83647  1.0000
  C   C4172     1.0  0.92901  0.33536  0.83292  1.0000
  H   H4981     1.0  0.56328  0.32049  0.80613  1.0000
  H   H4982     1.0  0.90453  0.36032  0.86267  1.0000
  H   H4983     1.0  0.89120  0.34884  0.84993  1.0000
  H   H4984     1.0  0.93590  0.32804  0.82493  1.0000
  H   H4985     1.0  0.91857  0.43481  0.79670  1.0000
  C   C4173     1.0  0.82548  0.32148  0.78704  1.0000
  C   C4174     1.0  0.83873  0.32634  0.78706  1.0000
  C   C4175     1.0  0.68959  0.31528  0.78376  1.0000
  C   C4176     1.0  0.50183  0.26025  0.86174  1.0000
  H   H4986     1.0  0.57698  0.46233  0.90321  1.0000
  H   H4987     1.0  0.81680  0.31945  0.79765  1.0000
  H   H4988     1.0  0.84018  0.32805  0.79768  1.0000
  H   H4989     1.0  0.78916  0.33078  0.80276  1.0000
  H   H4990     1.0  0.89379  0.38349  0.79069  1.0000
  C   C4177     1.0  0.72993  0.31100  0.79744  1.0000
  C   C4178     1.0  0.74368  0.30521  0.78750  1.0000
  H   H4991     1.0  0.77998  0.31966  0.96341  1.0000
  C   C4179     1.0  0.60785  0.47868  0.91549  1.0000
  C   C4180     1.0  0.96011  0.39900  0.78571  1.0000
  C   C4181     1.0  0.71966  0.32458  0.79178  1.0000
  H   H4992     1.0  0.75159  0.29462  0.79178  1.0000
  C   C4182     1.0  0.98021  0.35162  0.92495  1.0000
  H   H4993     1.0  0.49735  0.25885  0.95995  1.0000
  H   H4994     1.0  0.70897  0.32910  0.79939  1.0000
  C   C4183     1.0  0.81126  0.32342  0.89267  1.0000
  C   C4184     1.0  0.79921  0.32697  0.88480  1.0000
  C   C4185     1.0  0.80242  0.33111  0.86859  1.0000
  C   C4186     1.0  0.81759  0.33216  0.86019  1.0000
  C   C4187     1.0  0.82973  0.32841  0.86799  1.0000
  C   C4188     1.0  0.82658  0.32385  0.88426  1.0000
  H   H4995     1.0  0.84149  0.32912  0.86152  1.0000
  H   H4996     1.0  0.83591  0.32112  0.89034  1.0000
  C   C4189     1.0  0.72787  0.34154  0.89906  1.0000
  C   C4190     1.0  0.73126  0.32592  0.90673  1.0000
  C   C4191     1.0  0.72548  0.31491  0.90325  1.0000
  C   C4192     1.0  0.71646  0.31943  0.89197  1.0000
  C   C4193     1.0  0.71345  0.33498  0.88404  1.0000
  C   C4194     1.0  0.71908  0.34598  0.88761  1.0000
  H   H4997     1.0  0.73795  0.32243  0.91563  1.0000
  H   H4998     1.0  0.72786  0.30290  0.90943  1.0000
  H   H4999     1.0  0.70665  0.33858  0.87526  1.0000
  H   H5000     1.0  0.71635  0.35806  0.88172  1.0000
  C   C4195     1.0  0.81822  0.30259  0.97041  1.0000
  H   H5001     1.0  0.52707  0.24171  0.95323  1.0000
  H   H5002     1.0  0.99119  0.38906  0.90044  1.0000
  H   H5003     1.0  0.78729  0.37391  0.97117  1.0000
  H   H5004     1.0  0.90728  0.41706  0.79039  1.0000
  C   C4196     1.0  0.49451  0.31543  0.89613  1.0000
  C   C4197     1.0  0.57343  0.26670  0.78082  1.0000
  H   H5005     1.0  0.97466  0.40886  0.80166  1.0000
  Fe  Fe579     1.0  0.49205  0.23638  0.91506  1.0000
  H   H5006     1.0  0.70391  0.42060  0.94915  1.0000
  C   C4198     1.0  0.66653  0.31815  0.80452  1.0000
  Fe  Fe580     1.0  0.96047  0.36473  0.84887  1.0000
  C   C4199     1.0  0.73776  0.43462  0.91321  1.0000
  C   C4200     1.0  0.75224  0.43658  0.91376  1.0000
  C   C4201     1.0  0.76529  0.42406  0.91351  1.0000
  C   C4202     1.0  0.76384  0.40952  0.91284  1.0000
  C   C4203     1.0  0.74942  0.40759  0.91220  1.0000
  C   C4204     1.0  0.73646  0.42014  0.91227  1.0000
  H   H5007     1.0  0.75338  0.44778  0.91435  1.0000
  H   H5008     1.0  0.77646  0.42563  0.91392  1.0000
  H   H5009     1.0  0.72558  0.41863  0.91124  1.0000
  H   H5010     1.0  0.65834  0.45073  0.87065  1.0000
  H   H5011     1.0  0.61844  0.44907  0.88627  1.0000
  H   H5012     1.0  0.78940  0.34080  0.96498  1.0000
  H   H5013     1.0  0.54886  0.39809  0.82131  1.0000
  C   C4205     1.0  0.98170  0.36623  0.89870  1.0000
  C   C4206     1.0  0.75928  0.35785  0.81856  1.0000
  H   H5014     1.0  0.52586  0.30289  0.92091  1.0000
  C   C4207     1.0  0.63529  0.39407  0.83004  1.0000
  C   C4208     1.0  0.64206  0.37925  0.82699  1.0000
  C   C4209     1.0  0.65635  0.37099  0.83098  1.0000
  C   C4210     1.0  0.66416  0.37780  0.83746  1.0000
  C   C4211     1.0  0.65743  0.39269  0.84035  1.0000
  C   C4212     1.0  0.64283  0.40066  0.83698  1.0000
  H   H5015     1.0  0.63623  0.37416  0.82158  1.0000
  H   H5016     1.0  0.66149  0.35954  0.82867  1.0000
  H   H5017     1.0  0.66352  0.39815  0.84508  1.0000
  H   H5018     1.0  0.63766  0.41215  0.83926  1.0000
  C   C4213     1.0  0.62415  0.41477  0.89615  1.0000
  C   C4214     1.0  0.63348  0.41741  0.88117  1.0000
  C   C4215     1.0  0.64849  0.41995  0.87889  1.0000
  C   C4216     1.0  0.65408  0.41997  0.89157  1.0000
  C   C4217     1.0  0.64480  0.41711  0.90653  1.0000
  C   C4218     1.0  0.62989  0.41448  0.90882  1.0000
  H   H5019     1.0  0.62928  0.41724  0.87137  1.0000
  H   H5020     1.0  0.65577  0.42185  0.86730  1.0000
  H   H5021     1.0  0.64940  0.41609  0.91642  1.0000
  H   H5022     1.0  0.62285  0.41201  0.92047  1.0000
  C   C4219     1.0  0.97562  0.43008  0.81846  1.0000
  H   H5023     1.0  0.86713  0.37806  0.77796  1.0000
  C   C4220     1.0  0.59185  0.47551  0.85228  1.0000
  C   C4221     1.0  0.51227  0.29516  0.91005  1.0000
  H   H5024     1.0  0.65218  0.34131  0.80343  1.0000
  C   C4222     1.0  0.68023  0.30828  0.79773  1.0000
  H   H5025     1.0  0.69738  0.29586  0.81946  1.0000
  C   C4223     1.0  0.99093  0.42459  0.82072  1.0000
  C   C4224     1.0  0.98064  0.40847  0.78941  1.0000
  H   H5026     1.0  0.88565  0.37495  0.81832  1.0000
  C   C4225     1.0  0.53380  0.38423  0.83845  1.0000
  C   C4226     1.0  0.52885  0.37817  0.85430  1.0000
  C   C4227     1.0  0.53499  0.38129  0.86518  1.0000
  C   C4228     1.0  0.54605  0.39055  0.86032  1.0000
  C   C4229     1.0  0.55108  0.39659  0.84447  1.0000
  H   H5027     1.0  0.52008  0.37128  0.85825  1.0000
  H   H5028     1.0  0.53104  0.37660  0.87743  1.0000
  H   H5029     1.0  0.55967  0.40366  0.84058  1.0000
  C   C4230     1.0  0.64343  0.26486  0.84325  1.0000
  C   C4231     1.0  0.65629  0.26506  0.84866  1.0000
  C   C4232     1.0  0.65808  0.27894  0.85086  1.0000
  C   C4233     1.0  0.64703  0.29277  0.84763  1.0000
  C   C4234     1.0  0.63414  0.29255  0.84228  1.0000
  C   C4235     1.0  0.63236  0.27868  0.84003  1.0000
  H   H5030     1.0  0.66484  0.25438  0.85127  1.0000
  H   H5031     1.0  0.66793  0.27891  0.85523  1.0000
  H   H5032     1.0  0.62556  0.30317  0.83971  1.0000
  H   H5033     1.0  0.62245  0.27866  0.83580  1.0000
  C   C4236     1.0  0.76745  0.33205  0.79006  1.0000
  H   H5034     1.0  0.67440  0.27136  0.81314  1.0000
  H   H5035     1.0  0.73671  0.39198  0.96430  1.0000
  H   H5036     1.0  0.59801  0.46530  0.84776  1.0000
  C   C4237     1.0  0.63936  0.45663  0.96943  1.0000
  H   H5037     1.0  0.56796  0.24730  0.93569  1.0000
  C   C4238     1.0  0.55650  0.28411  0.82128  1.0000
  S   S1143     1.0  0.52580  0.38079  0.82473  1.0000
  H   H5038     1.0  0.50225  0.23577  0.86858  1.0000
  C   C4239     1.0  0.51850  0.43361  0.84984  1.0000
  N   N274      1.0  0.66924  0.37035  0.89132  1.0000
  C   C4240     1.0  0.66825  0.35795  0.88446  1.0000
  C   C4241     1.0  0.65306  0.37824  0.89749  1.0000
  C   C4242     1.0  0.67694  0.38158  0.87850  1.0000
  C   C4243     1.0  0.67793  0.36455  0.90393  1.0000
  C   C4244     1.0  0.68289  0.34845  0.91035  1.0000
  C   C4245     1.0  0.68141  0.37517  0.91041  1.0000
  C   C4246     1.0  0.69133  0.34342  0.92206  1.0000
  C   C4247     1.0  0.68996  0.37000  0.92203  1.0000
  C   C4248     1.0  0.69501  0.35416  0.92776  1.0000
  H   H5039     1.0  0.66211  0.36281  0.87466  1.0000
  H   H5040     1.0  0.68010  0.35156  0.87962  1.0000
  H   H5041     1.0  0.66162  0.34956  0.89305  1.0000
  H   H5042     1.0  0.64673  0.37008  0.90683  1.0000
  H   H5043     1.0  0.64620  0.38335  0.88827  1.0000
  H   H5044     1.0  0.65289  0.38783  0.90262  1.0000
  H   H5045     1.0  0.68943  0.37627  0.87418  1.0000
  H   H5046     1.0  0.67121  0.38546  0.86847  1.0000
  H   H5047     1.0  0.67650  0.39235  0.88195  1.0000
  H   H5048     1.0  0.68082  0.33947  0.90625  1.0000
  H   H5049     1.0  0.67769  0.38761  0.90644  1.0000
  H   H5050     1.0  0.69550  0.33110  0.92640  1.0000
  H   H5051     1.0  0.69292  0.37834  0.92642  1.0000
  H   H5052     1.0  0.70203  0.35021  0.93644  1.0000
  N   N275      1.0  0.75825  0.34422  0.79880  1.0000
  C   C4249     1.0  0.75417  0.35880  0.78726  1.0000
  C   C4250     1.0  0.51024  0.32216  0.90943  1.0000
  C   C4251     1.0  0.74362  0.33933  0.80812  1.0000
  C   C4252     1.0  0.76670  0.34691  0.80904  1.0000
  H   H5053     1.0  0.97270  0.34494  0.92304  1.0000
  H   H5054     1.0  0.92934  0.40125  0.83740  1.0000
  H   H5055     1.0  0.88931  0.40289  0.79301  1.0000
  C   C4253     1.0  0.71087  0.46505  0.95357  1.0000
  C   C4254     1.0  0.59811  0.47668  0.90690  1.0000
  H   H5056     1.0  0.80233  0.27168  0.97381  1.0000
  H   H5057     1.0  0.81269  0.28925  0.94894  1.0000
  H   H5058     1.0  0.74599  0.36821  0.79278  1.0000
  H   H5059     1.0  0.66836  0.28520  0.79651  1.0000
  C   C4255     1.0  0.61607  0.45982  0.89065  1.0000
  H   H5060     1.0  0.92682  0.37376  0.79673  1.0000
  C   C4256     1.0  0.80144  0.29792  0.95084  1.0000
  C   C4257     1.0  0.65430  0.46279  0.86529  1.0000
  H   H5061     1.0  0.95226  0.40005  0.77800  1.0000
  C   C4258     1.0  0.92475  0.41911  0.81735  1.0000
  H   H5062     1.0  0.92063  0.36633  0.81708  1.0000
  H   H5063     1.0  0.85670  0.42553  0.78183  1.0000
  C   C4259     1.0  0.65023  0.46655  0.85100  1.0000
  C   C4260     1.0  0.76709  0.36078  0.82815  1.0000
  N   N276      1.0  0.55297  0.29004  0.86999  1.0000
  C   C4261     1.0  0.55816  0.27643  0.88206  1.0000
  C   C4262     1.0  0.53715  0.28954  0.86906  1.0000
  C   C4263     1.0  0.56356  0.28845  0.85475  1.0000
  C   C4264     1.0  0.55350  0.30451  0.87375  1.0000
  C   C4265     1.0  0.56790  0.30694  0.87458  1.0000
  C   C4266     1.0  0.54001  0.31650  0.87666  1.0000
  C   C4267     1.0  0.56876  0.32060  0.87786  1.0000
  C   C4268     1.0  0.54102  0.33017  0.87979  1.0000
  C   C4269     1.0  0.55534  0.33224  0.88038  1.0000
  H   H5064     1.0  0.55084  0.27759  0.89378  1.0000
  H   H5065     1.0  0.55723  0.26537  0.88000  1.0000
  H   H5066     1.0  0.57054  0.27500  0.88245  1.0000
  H   H5067     1.0  0.52876  0.28963  0.88043  1.0000
  H   H5068     1.0  0.53720  0.27879  0.86570  1.0000
  H   H5069     1.0  0.53248  0.29951  0.86021  1.0000
  H   H5070     1.0  0.57600  0.28729  0.85469  1.0000
  H   H5071     1.0  0.56307  0.27793  0.85132  1.0000
  H   H5072     1.0  0.56027  0.29871  0.84548  1.0000
  H   H5073     1.0  0.57863  0.29827  0.87269  1.0000
  H   H5074     1.0  0.52847  0.31561  0.87668  1.0000
  H   H5075     1.0  0.57989  0.32215  0.87841  1.0000
  H   H5076     1.0  0.53054  0.33921  0.88187  1.0000
  H   H5077     1.0  0.55597  0.34288  0.88284  1.0000
  C   C4270     1.0  0.51702  0.30638  0.91411  1.0000
  H   H5078     1.0  0.73695  0.33764  0.80058  1.0000
  H   H5079     1.0  0.50777  0.42596  0.87429  1.0000
  H   H5080     1.0  0.61769  0.46959  0.91849  1.0000
  H   H5081     1.0  0.53005  0.45893  0.82941  1.0000
  C   C4271     1.0  0.51458  0.45711  0.85874  1.0000
  H   H5082     1.0  0.54605  0.44243  0.83302  1.0000
  H   H5083     1.0  0.62618  0.45893  0.89557  1.0000
  H   H5084     1.0  0.70038  0.30888  0.77785  1.0000
  S   S1144     1.0  0.67447  0.41219  0.96576  1.0000
  C   C4272     1.0  0.50917  0.42499  0.86253  1.0000
  H   H5085     1.0  0.74612  0.32813  0.81660  1.0000
  N   N277      1.0  0.99115  0.35701  0.91037  1.0000
  H   H5086     1.0  0.49509  0.40777  0.87026  1.0000
  H   H5087     1.0  0.76753  0.41494  0.95278  1.0000
  C   C4273     1.0  0.91854  0.42333  0.80416  1.0000
  H   H5088     1.0  0.62826  0.46511  0.96766  1.0000
  C   C4274     1.0  0.78253  0.35305  0.82843  1.0000
  S   S1145     1.0  0.62055  0.25575  0.80637  1.0000
  S   S1146     1.0  0.76211  0.33038  0.93454  1.0000
  S   S1147     1.0  0.50601  0.23765  0.93103  1.0000
  H   H5089     1.0  0.56235  0.27204  0.82211  1.0000
  Fe  Fe581     1.0  0.98667  0.36792  0.81994  1.0000
  H   H5090     1.0  0.65098  0.45740  0.84535  1.0000
  H   H5091     1.0  0.70926  0.28733  0.79528  1.0000
  S   S1148     1.0  0.51334  0.30801  0.83725  1.0000
  C   C4275     1.0  0.67194  0.34046  0.78414  1.0000
  C   C4276     1.0  0.53629  0.43588  0.86394  1.0000
  C   C4277     1.0  0.70238  0.42018  0.96131  1.0000
  C   C4278     1.0  0.78247  0.33922  0.80962  1.0000
  C   C4279     1.0  0.68749  0.29046  0.82075  1.0000
  H   H5092     1.0  0.78868  0.35541  0.83572  1.0000
  S   S1149     1.0  0.56486  0.46662  0.85437  1.0000
  C   C4280     1.0  0.67145  0.28399  0.80771  1.0000
  C   C4281     1.0  0.53677  0.45147  0.83824  1.0000
  Fe  Fe582     1.0  0.50183  0.26292  0.91961  1.0000
  C   C4282     1.0  0.65320  0.47450  0.87273  1.0000
  H   H5093     1.0  0.61599  0.46985  0.88045  1.0000
  H   H5094     1.0  0.98867  0.39687  0.78995  1.0000
  H   H5095     1.0  0.69042  0.27817  0.82716  1.0000
  C   C4283     1.0  0.54382  0.24592  0.97267  1.0000
  S   S1150     1.0  0.96817  0.37993  0.85939  1.0000
  C   C4284     1.0  0.53299  0.30361  0.82769  1.0000
  H   H5096     1.0  0.59165  0.45070  0.92561  1.0000
  H   H5097     1.0  0.77064  0.32054  0.79790  1.0000
  H   H5098     1.0  0.76069  0.38771  0.94512  1.0000
  C   C4285     1.0  0.53805  0.24355  0.94459  1.0000
  C   C4286     1.0  0.60195  0.44863  0.91593  1.0000
  S   S1151     1.0  0.78564  0.35162  0.93549  1.0000
  H   H5099     1.0  0.98181  0.45822  0.78586  1.0000
  H   H5100     1.0  0.80230  0.33649  0.81931  1.0000
  H   H5101     1.0  0.91817  0.38288  0.83179  1.0000
  S   S1152     1.0  0.74900  0.36771  0.93359  1.0000
  Fe  Fe583     1.0  0.50887  0.36500  0.83563  1.0000
  H   H5102     1.0  0.53367  0.25363  0.96879  1.0000
  N   N278      1.0  0.59772  0.35664  0.84975  1.0000
  C   C4287     1.0  0.59047  0.35823  0.86597  1.0000
  C   C4288     1.0  0.61452  0.34897  0.84901  1.0000
  C   C4289     1.0  0.59703  0.37240  0.83954  1.0000
  C   C4290     1.0  0.58902  0.34809  0.84491  1.0000
  C   C4291     1.0  0.59609  0.33383  0.84007  1.0000
  C   C4292     1.0  0.57290  0.35406  0.84489  1.0000
  C   C4293     1.0  0.58747  0.32622  0.83539  1.0000
  C   C4294     1.0  0.56442  0.34642  0.84016  1.0000
  C   C4295     1.0  0.57169  0.33253  0.83542  1.0000
  H   H5103     1.0  0.57834  0.36547  0.86722  1.0000
  H   H5104     1.0  0.59003  0.34670  0.87396  1.0000
  H   H5105     1.0  0.59712  0.36401  0.87024  1.0000
  H   H5106     1.0  0.61606  0.33720  0.85685  1.0000
  H   H5107     1.0  0.62073  0.35578  0.85260  1.0000
  H   H5108     1.0  0.62087  0.34788  0.83699  1.0000
  H   H5109     1.0  0.58495  0.37970  0.84062  1.0000
  H   H5110     1.0  0.60402  0.37893  0.84240  1.0000
  H   H5111     1.0  0.60172  0.37186  0.82711  1.0000
  H   H5112     1.0  0.60828  0.32838  0.83967  1.0000
  H   H5113     1.0  0.56672  0.36479  0.84846  1.0000
  H   H5114     1.0  0.59311  0.31547  0.83152  1.0000
  H   H5115     1.0  0.55214  0.35138  0.84006  1.0000
  H   H5116     1.0  0.56507  0.32674  0.83165  1.0000
  S   S1153     1.0  0.93687  0.35883  0.86042  1.0000
  N   N279      1.0  0.80528  0.38198  0.86820  1.0000
  C   C4296     1.0  0.81045  0.36852  0.88038  1.0000
  C   C4297     1.0  0.81515  0.37955  0.85283  1.0000
  C   C4298     1.0  0.80822  0.39600  0.87091  1.0000
  C   C4299     1.0  0.78859  0.38320  0.86878  1.0000
  C   C4300     1.0  0.77631  0.39492  0.87473  1.0000
  C   C4301     1.0  0.78409  0.37175  0.86440  1.0000
  C   C4302     1.0  0.76060  0.39492  0.87635  1.0000
  C   C4303     1.0  0.76836  0.37171  0.86631  1.0000
  C   C4304     1.0  0.75663  0.38323  0.87236  1.0000
  H   H5117     1.0  0.80892  0.35747  0.87893  1.0000
  H   H5118     1.0  0.82304  0.36684  0.88025  1.0000
  H   H5119     1.0  0.80360  0.37005  0.89216  1.0000
  H   H5120     1.0  0.81586  0.36794  0.85091  1.0000
  H   H5121     1.0  0.82751  0.38000  0.85159  1.0000
  H   H5122     1.0  0.81063  0.38854  0.84321  1.0000
  H   H5123     1.0  0.82090  0.39508  0.86971  1.0000
  H   H5124     1.0  0.80394  0.40666  0.86251  1.0000
  H   H5125     1.0  0.80253  0.39763  0.88292  1.0000
  H   H5126     1.0  0.77844  0.40395  0.87872  1.0000
  H   H5127     1.0  0.79274  0.36231  0.86017  1.0000
  H   H5128     1.0  0.75143  0.40376  0.88124  1.0000
  H   H5129     1.0  0.76520  0.36233  0.86377  1.0000
  H   H5130     1.0  0.74443  0.38286  0.87442  1.0000
  N   N280      1.0  0.75672  0.30444  0.85632  1.0000
  C   C4305     1.0  0.74945  0.32102  0.85633  1.0000
  C   C4306     1.0  0.74660  0.29820  0.85054  1.0000
  C   C4307     1.0  0.75680  0.29573  0.87259  1.0000
  C   C4308     1.0  0.77290  0.30321  0.84685  1.0000
  C   C4309     1.0  0.77762  0.29868  0.83236  1.0000
  C   C4310     1.0  0.78440  0.30718  0.85178  1.0000
  C   C4311     1.0  0.79302  0.29774  0.82371  1.0000
  C   C4312     1.0  0.79977  0.30608  0.84310  1.0000
  C   C4313     1.0  0.80410  0.30127  0.82916  1.0000
  H   H5131     1.0  0.97271  0.37606  0.90286  1.0000
  H   H5132     1.0  0.75538  0.32607  0.86213  1.0000
  H   H5133     1.0  0.70400  0.45816  0.96382  1.0000
  H   H5134     1.0  0.73472  0.29864  0.85832  1.0000
  H   H5135     1.0  0.75162  0.28580  0.84995  1.0000
  H   H5136     1.0  0.76209  0.30099  0.87878  1.0000
  H   H5137     1.0  0.74472  0.29552  0.87968  1.0000
  H   H5138     1.0  0.76332  0.28346  0.87301  1.0000
  H   H5139     1.0  0.76967  0.29571  0.82748  1.0000
  H   H5140     1.0  0.78161  0.31120  0.86241  1.0000
  H   H5141     1.0  0.79646  0.29423  0.81268  1.0000
  H   H5142     1.0  0.80840  0.30908  0.84714  1.0000
  H   H5143     1.0  0.81606  0.30038  0.82251  1.0000
  H   H5144     1.0  0.65620  0.47093  0.88395  1.0000
  C   C4314     1.0  0.76723  0.38527  0.95439  1.0000
  C   C4315     1.0  0.49925  0.32668  0.90015  1.0000
  H   H5145     1.0  0.67725  0.29650  0.82833  1.0000
  C   C4316     1.0  0.58866  0.46081  0.89514  1.0000
  H   H5146     1.0  0.56211  0.27172  0.77719  1.0000
  H   H5147     1.0  0.52018  0.46556  0.86063  1.0000
  H   H5148     1.0  0.97237  0.36164  0.92979  1.0000
  H   H5149     1.0  0.73549  0.34807  0.81454  1.0000
  H   H5150     1.0  0.69732  0.28314  0.78483  1.0000
  H   H5151     1.0  0.75026  0.41335  0.94820  1.0000
  H   H5152     1.0  0.95267  0.39971  0.79746  1.0000
  C   C4317     1.0  0.54064  0.28802  0.82834  1.0000
  C   C4318     1.0  0.68539  0.33112  0.77709  1.0000
  N   N281      1.0  0.90466  0.38667  0.80730  1.0000
  C   C4319     1.0  0.56591  0.23554  0.93716  1.0000
  C   C4320     1.0  0.89119  0.38343  0.82019  1.0000
  C   C4321     1.0  0.50079  0.29967  0.90133  1.0000
  C   C4322     1.0  0.91167  0.39790  0.81040  1.0000
  C   C4323     1.0  0.57551  0.47924  0.85591  1.0000
  C   C4324     1.0  0.97231  0.44247  0.80611  1.0000
  H   H5153     1.0  0.77090  0.30531  0.96213  1.0000
  C   C4325     1.0  0.51966  0.43142  0.83482  1.0000
  H   H5154     1.0  0.54334  0.44330  0.86537  1.0000
  C   C4326     1.0  0.79020  0.34236  0.81914  1.0000
  H   H5155     1.0  0.79400  0.29621  0.94398  1.0000
  C   C4327     1.0  0.91641  0.37189  0.80620  1.0000
  H   H5156     1.0  0.81666  0.36904  0.77816  1.0000
  Fe  Fe584     1.0  0.50456  0.33240  0.84077  1.0000
  H   H5157     1.0  0.88198  0.39422  0.82131  1.0000
  H   H5158     1.0  0.74740  0.36436  0.81854  1.0000
  H   H5159     1.0  0.50672  0.46361  0.85061  1.0000
  H   H5160     1.0  0.76120  0.36926  0.83525  1.0000
  H   H5161     1.0  0.95287  0.42661  0.79380  1.0000
  H   H5162     1.0  0.98925  0.37095  0.88756  1.0000
  C   C4328     1.0  0.75622  0.41122  0.95789  1.0000
  C   C4329     1.0  0.68956  0.41516  0.97210  1.0000
  C   C4330     1.0  0.49495  0.25655  0.97246  1.0000
  S   S1154     1.0  0.96084  0.42057  0.82999  1.0000
  H   H5163     1.0  0.70144  0.27032  0.80256  1.0000
  H   H5164     1.0  0.52661  0.43725  0.82446  1.0000
  C   C4331     1.0  0.66253  0.33398  0.79783  1.0000
  C   C4332     1.0  0.74343  0.39040  0.97326  1.0000
  Fe  Fe585     1.0  0.67587  0.42659  0.94165  1.0000
  S   S1155     1.0  0.96184  0.38076  0.82551  1.0000
  H   H5165     1.0  0.78739  0.32656  0.89126  1.0000
  H   H5166     1.0  0.74464  0.30501  0.83891  1.0000
  H   H5167     1.0  0.74831  0.39654  0.91123  1.0000
  C   C4333     1.0  0.93655  0.34225  0.83973  1.0000
  H   H5168     1.0  0.51353  0.41911  0.82135  1.0000
  H   H5169     1.0  0.57341  0.27350  0.78912  1.0000
  S   S1156     1.0  0.78008  0.39382  0.91289  1.0000
  H   H5170     1.0  0.79303  0.33396  0.86257  1.0000
  N   N282      1.0  0.79376  0.29638  0.96756  1.0000
  H   H5171     1.0  0.68844  0.47765  0.93798  1.0000
  H   H5172     1.0  0.71233  0.45967  0.94366  1.0000
  C   C4334     1.0  0.91811  0.39403  0.82373  1.0000
  N   N283      1.0  0.68449  0.29166  0.80541  1.0000
  H   H5173     1.0  0.77888  0.38797  0.94841  1.0000
  C   C4335     1.0  0.55423  0.23474  0.96440  1.0000
  H   H5174     1.0  0.49779  0.40434  0.84389  1.0000
  H   H5175     1.0  0.51396  0.33089  0.91248  1.0000
  S   S1157     1.0  0.51707  0.34265  0.85166  1.0000
  H   H5176     1.0  0.60212  0.43752  0.91323  1.0000
  N   N284      1.0  0.75880  0.39465  0.96621  1.0000
  H   H5177     1.0  0.94918  0.34020  0.83701  1.0000
  H   H5178     1.0  0.59101  0.44935  0.89203  1.0000
  H   H5179     1.0  0.54448  0.42547  0.86022  1.0000
  C   C4336     1.0  0.89889  0.39226  0.79268  1.0000
  H   H5180     1.0  0.72253  0.42957  0.95763  1.0000
  C   C4337     1.0  0.56470  0.29579  0.81327  1.0000
  S   S1158     1.0  0.75547  0.34434  0.97463  1.0000
  N   N285      1.0  0.52644  0.44434  0.85251  1.0000
  H   H5181     1.0  0.96047  0.44677  0.80438  1.0000
  Fe  Fe586     1.0  0.76208  0.34718  0.94842  1.0000
  H   H5182     1.0  0.73701  0.32255  0.86266  1.0000
  H   H5183     1.0  0.53529  0.32741  0.81927  1.0000
  H   H5184     1.0  0.74874  0.41912  0.96555  1.0000
  H   H5185     1.0  0.65898  0.31376  0.81530  1.0000
  H   H5186     1.0  0.53691  0.24190  0.93345  1.0000
  H   H5187     1.0  0.64848  0.45848  0.95856  1.0000
  H   H5188     1.0  0.98647  0.34390  0.93404  1.0000
  C   C4338     1.0  0.71303  0.42516  0.96615  1.0000
  H   H5189     1.0  0.80373  0.30978  0.94552  1.0000
  C   C4339     1.0  0.51206  0.42112  0.83280  1.0000
  C   C4340     1.0  0.77842  0.30757  0.96854  1.0000
  S   S1159     1.0  0.98483  0.35031  0.84256  1.0000
  H   H5190     1.0  0.54295  0.45909  0.84071  1.0000
  C   C4341     1.0  0.86170  0.40119  0.78187  1.0000
  C   C4342     1.0  0.79105  0.28039  0.97369  1.0000
  N   N286      1.0  0.96924  0.41129  0.77962  1.0000
  H   H5191     1.0  0.96783  0.38713  0.78677  1.0000
  H   H5192     1.0  0.98787  0.41738  0.78512  1.0000
  H   H5193     1.0  0.68013  0.47651  0.95836  1.0000
  H   H5194     1.0  0.60016  0.27168  0.78159  1.0000
  H   H5195     1.0  0.57334  0.25452  0.78735  1.0000
  H   H5196     1.0  0.66889  0.35278  0.77907  1.0000
  H   H5197     1.0  0.96445  0.43616  0.77678  1.0000
  H   H5198     1.0  0.63729  0.44486  0.97091  1.0000
  H   H5199     1.0  0.78473  0.27746  0.96653  1.0000
  H   H5200     1.0  0.76483  0.36312  0.78030  1.0000
  H   H5201     1.0  0.50769  0.27294  0.97272  1.0000
  H   H5202     1.0  0.49840  0.28477  0.85708  1.0000
  H   H5203     1.0  0.72278  0.46333  0.95555  1.0000
  C   C4343     1.0  0.72364  0.33277  0.77635  1.0000
  N   N287      1.0  0.55206  0.23277  0.94977  1.0000
  H   H5204     1.0  0.81951  0.38804  0.77617  1.0000
  Fe  Fe587     1.0  0.49379  0.34904  0.86731  1.0000
  H   H5205     1.0  0.66856  0.44719  0.97514  1.0000
  S   S1160     1.0  0.49235  0.34632  0.89254  1.0000
  S   S1161     1.0  0.64563  0.48056  0.92577  1.0000
  H   H5206     1.0  0.94851  0.42894  0.77542  1.0000
  H   H5207     1.0  0.59185  0.23184  0.87098  1.0000
  H   H5208     1.0  0.78132  0.60143  0.00792  1.0000
  Fe  Fe588     1.0  0.77441  0.65088  0.07214  1.0000
  S   S1162     1.0  0.78432  0.62690  0.08443  1.0000
  S   S1163     1.0  0.76068  0.66775  0.08727  1.0000
  Fe  Fe589     1.0  0.78532  0.64227  0.04056  1.0000
  S   S1164     1.0  0.79596  0.61760  0.05054  1.0000
  S   S1165     1.0  0.78479  0.65132  0.01515  1.0000
  Fe  Fe590     1.0  0.77416  0.61914  0.06927  1.0000
  S   S1166     1.0  0.75833  0.60249  0.07941  1.0000
  Fe  Fe591     1.0  0.80512  0.62795  0.06472  1.0000
  S   S1167     1.0  0.82873  0.61769  0.07080  1.0000
  S   S1168     1.0  0.76274  0.64306  0.05827  1.0000
  S   S1169     1.0  0.79613  0.65273  0.05334  1.0000
  H   H5209     1.0  0.63584  0.53131  0.07333  1.0000
  C   C4344     1.0  0.91125  0.66058  0.15970  1.0000
  S   S1170     1.0  0.85303  0.63818  0.13973  1.0000
  S   S1171     1.0  0.88955  0.63777  0.12044  1.0000
  Fe  Fe592     1.0  0.86551  0.65142  0.11754  1.0000
  S   S1172     1.0  0.85514  0.66020  0.09623  1.0000
  Fe  Fe593     1.0  0.87712  0.62628  0.14367  1.0000
  H   H5210     1.0  0.69516  0.50907  0.09362  1.0000
  S   S1173     1.0  0.65633  0.53900  0.99165  1.0000
  Fe  Fe594     1.0  0.72631  0.56716  0.03831  1.0000
  S   S1174     1.0  0.70515  0.58653  0.04081  1.0000
  S   S1175     1.0  0.74995  0.57287  0.02910  1.0000
  Fe  Fe595     1.0  0.70768  0.54222  0.05302  1.0000
  S   S1176     1.0  0.68484  0.55930  0.05723  1.0000
  S   S1177     1.0  0.71033  0.51651  0.06130  1.0000
  Fe  Fe596     1.0  0.69380  0.57220  0.03325  1.0000
  S   S1178     1.0  0.67741  0.58455  0.01744  1.0000
  Fe  Fe597     1.0  0.69834  0.57198  0.06441  1.0000
  S   S1179     1.0  0.68972  0.58249  0.08516  1.0000
  S   S1180     1.0  0.71573  0.55408  0.02826  1.0000
  S   S1181     1.0  0.72031  0.55354  0.06266  1.0000
  C   C4345     1.0  0.66947  0.58929  0.08779  1.0000
  C   C4346     1.0  0.66065  0.59142  0.10239  1.0000
  C   C4347     1.0  0.64557  0.59523  0.07851  1.0000
  C   C4348     1.0  0.66197  0.59156  0.07572  1.0000
  C   C4349     1.0  0.58237  0.52516  0.12286  1.0000
  H   H5211     1.0  0.63977  0.59623  0.06941  1.0000
  H   H5212     1.0  0.66877  0.59013  0.06433  1.0000
  H   H5213     1.0  0.68454  0.53074  0.04592  1.0000
  C   C4350     1.0  0.66153  0.55117  0.00000  1.0000
  C   C4351     1.0  0.67432  0.54575  0.00708  1.0000
  C   C4352     1.0  0.67904  0.55586  0.01287  1.0000
  C   C4353     1.0  0.67114  0.57146  0.01125  1.0000
  C   C4354     1.0  0.65832  0.57685  0.00424  1.0000
  C   C4355     1.0  0.65342  0.56666  0.99877  1.0000
  H   H5214     1.0  0.68084  0.53388  0.00770  1.0000
  H   H5215     1.0  0.68897  0.55164  0.01825  1.0000
  H   H5216     1.0  0.65211  0.58888  0.00310  1.0000
  H   H5217     1.0  0.64329  0.57080  0.99369  1.0000
  H   H5218     1.0  0.59916  0.48656  0.12845  1.0000
  C   C4356     1.0  0.93640  0.66005  0.14188  1.0000
  C   C4357     1.0  0.68424  0.50707  0.10136  1.0000
  H   H5219     1.0  0.50046  0.63384  0.11236  1.0000
  H   H5220     1.0  0.61007  0.54384  0.02757  1.0000
  C   C4358     1.0  0.52270  0.70281  0.17267  1.0000
  C   C4359     1.0  0.83616  0.62946  0.07784  1.0000
  C   C4360     1.0  0.83216  0.64565  0.07323  1.0000
  C   C4361     1.0  0.83842  0.65486  0.07869  1.0000
  C   C4362     1.0  0.84827  0.64802  0.08920  1.0000
  C   C4363     1.0  0.85215  0.63183  0.09397  1.0000
  C   C4364     1.0  0.84628  0.62256  0.08810  1.0000
  H   H5221     1.0  0.82454  0.65108  0.06519  1.0000
  H   H5222     1.0  0.83551  0.66739  0.07486  1.0000
  H   H5223     1.0  0.85983  0.62646  0.10199  1.0000
  H   H5224     1.0  0.84947  0.61003  0.09165  1.0000
  C   C4365     1.0  0.74785  0.65819  0.10255  1.0000
  C   C4366     1.0  0.74624  0.64365  0.10217  1.0000
  C   C4367     1.0  0.73677  0.63547  0.11461  1.0000
  C   C4368     1.0  0.72856  0.64190  0.12741  1.0000
  C   C4369     1.0  0.73006  0.65647  0.12792  1.0000
  C   C4370     1.0  0.73970  0.66466  0.11543  1.0000
  H   H5225     1.0  0.75209  0.63869  0.09220  1.0000
  H   H5226     1.0  0.73567  0.62419  0.11417  1.0000
  C   C4371     1.0  0.68853  0.51869  0.04509  1.0000
  H   H5227     1.0  0.74105  0.67585  0.11582  1.0000
  C   C4372     1.0  0.75681  0.59365  0.06554  1.0000
  C   C4373     1.0  0.74269  0.58979  0.06701  1.0000
  C   C4374     1.0  0.74071  0.58347  0.05578  1.0000
  C   C4375     1.0  0.75301  0.58041  0.04323  1.0000
  C   C4376     1.0  0.76732  0.58405  0.04179  1.0000
  C   C4377     1.0  0.76916  0.59089  0.05287  1.0000
  H   H5228     1.0  0.73310  0.59198  0.07668  1.0000
  H   H5229     1.0  0.72952  0.58116  0.05685  1.0000
  H   H5230     1.0  0.77689  0.58171  0.03211  1.0000
  H   H5231     1.0  0.78018  0.59371  0.05175  1.0000
  H   H5232     1.0  0.64583  0.49696  0.12863  1.0000
  C   C4378     1.0  0.92485  0.70492  0.14885  1.0000
  C   C4379     1.0  0.77923  0.64523  0.98993  1.0000
  C   C4380     1.0  0.78252  0.63894  0.00473  1.0000
  C   C4381     1.0  0.78337  0.62309  0.01114  1.0000
  C   C4382     1.0  0.78084  0.61365  0.00283  1.0000
  H   H5233     1.0  0.69237  0.54899  0.09424  1.0000
  H   H5234     1.0  0.69795  0.64241  0.11002  1.0000
  H   H5235     1.0  0.78578  0.61810  0.02257  1.0000
  N   N288      1.0  0.69150  0.69307  0.11531  1.0000
  C   C4383     1.0  0.69435  0.70848  0.10592  1.0000
  C   C4384     1.0  0.67427  0.69476  0.12068  1.0000
  C   C4385     1.0  0.69842  0.68918  0.12903  1.0000
  C   C4386     1.0  0.69844  0.68047  0.10668  1.0000
  C   C4387     1.0  0.71018  0.68196  0.09274  1.0000
  C   C4388     1.0  0.73331  0.54190  0.99544  1.0000
  S   S1182     1.0  0.98283  0.66394  0.15498  1.0000
  Fe  Fe598     1.0  0.59479  0.57829  0.15533  1.0000
  C   C4389     1.0  0.71689  0.66967  0.08513  1.0000
  C   C4390     1.0  0.65658  0.49975  0.12094  1.0000
  C   C4391     1.0  0.69566  0.50454  0.98784  1.0000
  H   H5236     1.0  0.66837  0.62507  0.98142  1.0000
  H   H5237     1.0  0.68020  0.63306  0.98845  1.0000
  H   H5238     1.0  0.71131  0.68803  0.12555  1.0000
  H   H5239     1.0  0.69350  0.69826  0.13601  1.0000
  H   H5240     1.0  0.69617  0.67801  0.13691  1.0000
  H   H5241     1.0  0.71474  0.69232  0.08767  1.0000
  C   C4392     1.0  0.69891  0.48762  0.04273  1.0000
  H   H5242     1.0  0.62860  0.48750  0.09052  1.0000
  H   H5243     1.0  0.81459  0.63589  0.16159  1.0000
  C   C4393     1.0  0.77642  0.63584  0.98174  1.0000
  H   H5244     1.0  0.63653  0.66552  0.15889  1.0000
  C   C4394     1.0  0.50069  0.71399  0.09666  1.0000
  C   C4395     1.0  0.69323  0.64615  0.01027  1.0000
  H   H5245     1.0  0.71564  0.48622  0.05583  1.0000
  H   H5246     1.0  0.77857  0.65748  0.98486  1.0000
  H   H5247     1.0  0.70641  0.58667  0.99346  1.0000
  C   C4396     1.0  0.97188  0.62103  0.16875  1.0000
  H   H5248     1.0  0.51899  0.71013  0.14935  1.0000
  C   C4397     1.0  0.65905  0.51473  0.11802  1.0000
  C   C4398     1.0  0.72265  0.55029  0.98619  1.0000
  C   C4399     1.0  0.78530  0.62884  0.17179  1.0000
  C   C4400     1.0  0.75159  0.55889  0.98094  1.0000
  H   H5249     1.0  0.95451  0.72405  0.13431  1.0000
  H   H5250     1.0  0.91422  0.60519  0.15932  1.0000
  C   C4401     1.0  0.68641  0.49705  0.03618  1.0000
  C   C4402     1.0  0.56851  0.69808  0.15874  1.0000
  N   N289      1.0  0.79586  0.65056  0.11469  1.0000
  C   C4403     1.0  0.80817  0.63623  0.11314  1.0000
  C   C4404     1.0  0.78050  0.64615  0.11910  1.0000
  C   C4405     1.0  0.79676  0.66152  0.09932  1.0000
  H   H5251     1.0  0.80817  0.62778  0.12448  1.0000
  H   H5252     1.0  0.80664  0.63033  0.10478  1.0000
  H   H5253     1.0  0.82005  0.63864  0.10866  1.0000
  H   H5254     1.0  0.77908  0.63762  0.13039  1.0000
  H   H5255     1.0  0.77904  0.64071  0.11038  1.0000
  H   H5256     1.0  0.82210  0.66023  0.11383  1.0000
  H   H5257     1.0  0.80820  0.66498  0.09482  1.0000
  H   H5258     1.0  0.79521  0.65636  0.09041  1.0000
  H   H5259     1.0  0.78750  0.67236  0.09988  1.0000
  H   H5260     1.0  0.58889  0.53934  0.15846  1.0000
  C   C4406     1.0  0.67304  0.51883  0.10833  1.0000
  H   H5261     1.0  0.92359  0.69263  0.15204  1.0000
  N   N290      1.0  0.67530  0.53482  0.10551  1.0000
  H   H5262     1.0  0.57110  0.69091  0.15003  1.0000
  H   H5263     1.0  0.68812  0.71792  0.11230  1.0000
  C   C4407     1.0  0.65069  0.59031  0.16241  1.0000
  H   H5264     1.0  0.76691  0.62981  0.16079  1.0000
  C   C4408     1.0  0.97219  0.69151  0.10885  1.0000
  C   C4409     1.0  0.94736  0.68799  0.10779  1.0000
  H   H5265     1.0  0.67553  0.58645  0.16013  1.0000
  C   C4410     1.0  0.70251  0.48876  0.98967  1.0000
  C   C4411     1.0  0.66787  0.48843  0.11412  1.0000
  H   H5266     1.0  0.67664  0.61410  0.99785  1.0000
  H   H5267     1.0  0.97896  0.59032  0.16892  1.0000
  H   H5268     1.0  0.82947  0.57954  0.05235  1.0000
  H   H5269     1.0  0.64040  0.53092  0.04596  1.0000
  H   H5270     1.0  0.66523  0.63413  0.14423  1.0000
  C   C4412     1.0  0.62176  0.53679  0.02318  1.0000
  H   H5271     1.0  0.81362  0.60841  0.17364  1.0000
  H   H5272     1.0  0.56725  0.56052  0.16624  1.0000
  C   C4413     1.0  0.96336  0.68668  0.10173  1.0000
  H   H5273     1.0  0.75497  0.61469  0.02915  1.0000
  C   C4414     1.0  0.54780  0.61197  0.16854  1.0000
  N   N291      1.0  0.62368  0.52039  0.03202  1.0000
  H   H5274     1.0  0.61485  0.51385  0.01585  1.0000
  C   C4415     1.0  0.63975  0.51189  0.02620  1.0000
  C   C4416     1.0  0.61261  0.51340  0.02848  1.0000
  C   C4417     1.0  0.62121  0.51986  0.04877  1.0000
  C   C4418     1.0  0.60909  0.51364  0.06025  1.0000
  C   C4419     1.0  0.63092  0.52603  0.05401  1.0000
  C   C4420     1.0  0.60662  0.51408  0.07585  1.0000
  H   H5275     1.0  0.54118  0.67791  0.08535  1.0000
  C   C4421     1.0  0.61620  0.52047  0.08054  1.0000
  H   H5276     1.0  0.72292  0.58401  0.13503  1.0000
  H   H5277     1.0  0.60027  0.51967  0.03193  1.0000
  C   C4422     1.0  0.62842  0.52629  0.06966  1.0000
  H   H5278     1.0  0.64887  0.51747  0.02666  1.0000
  Fe  Fe599     1.0  0.61425  0.55069  0.14189  1.0000
  H   H5279     1.0  0.64211  0.49970  0.03297  1.0000
  C   C4423     1.0  0.81469  0.63717  0.17320  1.0000
  C   C4424     1.0  0.52469  0.72822  0.15604  1.0000
  H   H5280     1.0  0.61364  0.50093  0.03451  1.0000
  H   H5281     1.0  0.60121  0.50844  0.05755  1.0000
  H   H5282     1.0  0.54732  0.63546  0.11925  1.0000
  H   H5283     1.0  0.59707  0.50957  0.08438  1.0000
  N   N292      1.0  0.57906  0.63030  0.11629  1.0000
  H   H5284     1.0  0.77964  0.53906  0.98461  1.0000
  H   H5285     1.0  0.94353  0.66000  0.13031  1.0000
  H   H5286     1.0  0.58208  0.61492  0.10133  1.0000
  H   H5287     1.0  0.55565  0.70278  0.16138  1.0000
  H   H5288     1.0  0.70967  0.57101  0.12508  1.0000
  H   H5289     1.0  0.96439  0.63294  0.16828  1.0000
  C   C4425     1.0  0.93423  0.65937  0.16893  1.0000
  C   C4426     1.0  0.72999  0.62939  0.04681  1.0000
  C   C4427     1.0  0.63607  0.59933  0.16783  1.0000
  H   H5290     1.0  0.83710  0.62960  0.03834  1.0000
  H   H5291     1.0  0.67530  0.55098  0.11864  1.0000
  C   C4428     1.0  0.61792  0.68601  0.15700  1.0000
  H   H5292     1.0  0.76779  0.55683  0.00264  1.0000
  C   C4429     1.0  0.60782  0.50390  0.13329  1.0000
  C   C4430     1.0  0.69062  0.60894  0.12233  1.0000
  H   H5293     1.0  0.77067  0.65652  0.11964  1.0000
  C   C4431     1.0  0.55605  0.51369  0.15487  1.0000
  H   H5294     1.0  0.96215  0.69968  0.15207  1.0000
  H   H5295     1.0  0.68295  0.64932  0.00543  1.0000
  H   H5296     1.0  0.72623  0.67088  0.07484  1.0000
  H   H5297     1.0  0.65795  0.51312  0.97733  1.0000
  H   H5298     1.0  0.66216  0.49174  0.00011  1.0000
  H   H5299     1.0  0.69030  0.57926  0.13495  1.0000
  C   C4432     1.0  0.94994  0.60815  0.17338  1.0000
  C   C4433     1.0  0.69971  0.58128  0.12432  1.0000
  H   H5300     1.0  0.60306  0.62107  0.11847  1.0000
  C   C4434     1.0  0.68107  0.51253  0.03759  1.0000
  H   H5301     1.0  0.58559  0.60528  0.12027  1.0000
  C   C4435     1.0  0.57484  0.65548  0.09578  1.0000
  C   C4436     1.0  0.82782  0.58728  0.04132  1.0000
  H   H5302     1.0  0.57377  0.70838  0.15313  1.0000
  H   H5303     1.0  0.81504  0.63987  0.02438  1.0000
  C   C4437     1.0  0.54281  0.65650  0.10259  1.0000
  S   S1183     1.0  0.70170  0.66221  0.17033  1.0000
  H   H5304     1.0  0.65128  0.54577  0.10414  1.0000
  C   C4438     1.0  0.80324  0.67298  0.14664  1.0000
  N   N293      1.0  0.94150  0.70590  0.14243  1.0000
  H   H5305     1.0  0.66428  0.54307  0.08602  1.0000
  H   H5306     1.0  0.71789  0.64592  0.08553  1.0000
  N   N294      1.0  0.73429  0.63306  0.02958  1.0000
  C   C4439     1.0  0.94882  0.69899  0.12866  1.0000
  C   C4440     1.0  0.94012  0.69409  0.12100  1.0000
  C   C4441     1.0  0.67892  0.62221  0.98635  1.0000
  C   C4442     1.0  0.72477  0.59264  0.99862  1.0000
  H   H5307     1.0  0.67125  0.51981  0.03280  1.0000
  H   H5308     1.0  0.74046  0.62635  0.05194  1.0000
  H   H5309     1.0  0.66873  0.69604  0.11093  1.0000
  H   H5310     1.0  0.69285  0.53487  0.08418  1.0000
  C   C4443     1.0  0.94222  0.72253  0.13807  1.0000
  C   C4444     1.0  0.69095  0.53693  0.09597  1.0000
  C   C4445     1.0  0.66339  0.54590  0.09727  1.0000
  H   H5311     1.0  0.63078  0.54244  0.02382  1.0000
  H   H5312     1.0  0.77993  0.67133  0.15935  1.0000
  C   C4446     1.0  0.54250  0.60406  0.14358  1.0000
  C   C4447     1.0  0.65742  0.49008  0.99126  1.0000
  H   H5313     1.0  0.54041  0.60094  0.13397  1.0000
  H   H5314     1.0  0.85869  0.61474  0.00256  1.0000
  C   C4448     1.0  0.63677  0.59662  0.09337  1.0000
  H   H5315     1.0  0.77516  0.65864  0.14190  1.0000
  C   C4449     1.0  0.52186  0.71336  0.15847  1.0000
  C   C4450     1.0  0.70389  0.65574  0.00526  1.0000
  C   C4451     1.0  0.65220  0.48407  0.06742  1.0000
  H   H5316     1.0  0.71954  0.60992  0.10549  1.0000
  H   H5317     1.0  0.89880  0.66153  0.16184  1.0000
  H   H5318     1.0  0.66629  0.58943  0.11186  1.0000
  C   C4452     1.0  0.70100  0.50918  0.05167  1.0000
  H   H5319     1.0  0.84350  0.62441  0.99206  1.0000
  C   C4453     1.0  0.71420  0.62297  0.98298  1.0000
  H   H5320     1.0  0.81869  0.63932  0.00440  1.0000
  C   C4454     1.0  0.70603  0.49360  0.05068  1.0000
  H   H5321     1.0  0.70194  0.66628  0.99637  1.0000
  C   C4455     1.0  0.70655  0.61134  0.98334  1.0000
  C   C4456     1.0  0.55508  0.59520  0.15039  1.0000
  C   C4457     1.0  0.72012  0.63796  0.02306  1.0000
  C   C4458     1.0  0.70913  0.62836  0.02770  1.0000
  H   H5322     1.0  0.85399  0.63563  0.99662  1.0000
  C   C4459     1.0  0.69589  0.63242  0.02140  1.0000
  C   C4460     1.0  0.62399  0.67011  0.16129  1.0000
  S   S1184     1.0  0.61319  0.55793  0.16369  1.0000
  C   C4461     1.0  0.71718  0.65177  0.01149  1.0000
  H   H5323     1.0  0.73707  0.65604  0.02814  1.0000
  H   H5324     1.0  0.94422  0.70218  0.16593  1.0000
  H   H5325     1.0  0.85567  0.61913  0.02902  1.0000
  H   H5326     1.0  0.68625  0.66338  0.12366  1.0000
  H   H5327     1.0  0.74804  0.62125  0.01148  1.0000
  H   H5328     1.0  0.73814  0.60919  0.02805  1.0000
  H   H5329     1.0  0.49997  0.64056  0.08444  1.0000
  C   C4462     1.0  0.91821  0.65979  0.17183  1.0000
  H   H5330     1.0  0.82722  0.63458  0.17379  1.0000
  Fe  Fe600     1.0  0.63016  0.57273  0.14891  1.0000
  H   H5331     1.0  0.68778  0.62476  0.02508  1.0000
  S   S1185     1.0  0.77273  0.60800  0.97882  1.0000
  H   H5332     1.0  0.65813  0.49264  0.06852  1.0000
  Fe  Fe601     1.0  0.69973  0.64312  0.16070  1.0000
  H   H5333     1.0  0.60085  0.63056  0.09932  1.0000
  C   C4463     1.0  0.56898  0.64333  0.10745  1.0000
  H   H5334     1.0  0.91737  0.71179  0.14047  1.0000
  H   H5335     1.0  0.68583  0.59325  0.98359  1.0000
  H   H5336     1.0  0.72399  0.66126  0.13799  1.0000
  C   C4464     1.0  0.94495  0.61879  0.16021  1.0000
  H   H5337     1.0  0.58706  0.65583  0.09253  1.0000
  C   C4465     1.0  0.71194  0.59611  0.99184  1.0000
  C   C4466     1.0  0.59581  0.63110  0.11172  1.0000
  S   S1186     1.0  0.91205  0.66320  0.12883  1.0000
  S   S1187     1.0  0.88560  0.60096  0.15293  1.0000
  H   H5338     1.0  0.81039  0.59152  0.01189  1.0000
  H   H5339     1.0  0.97234  0.70153  0.12693  1.0000
  H   H5340     1.0  0.56606  0.61329  0.11787  1.0000
  C   C4467     1.0  0.96505  0.69766  0.12205  1.0000
  C   C4468     1.0  0.94330  0.65939  0.15392  1.0000
  S   S1188     1.0  0.52714  0.66853  0.13817  1.0000
  H   H5341     1.0  0.71085  0.61745  0.03606  1.0000
  H   H5342     1.0  0.56947  0.67703  0.07918  1.0000
  C   C4469     1.0  0.69430  0.66579  0.11267  1.0000
  H   H5343     1.0  0.84947  0.63962  0.02238  1.0000
  C   C4470     1.0  0.66422  0.59353  0.16405  1.0000
  H   H5344     1.0  0.77962  0.57011  0.99058  1.0000
  C   C4471     1.0  0.78905  0.66873  0.14937  1.0000
  H   H5345     1.0  0.57387  0.64137  0.13542  1.0000
  C   C4472     1.0  0.81263  0.66227  0.12369  1.0000
  C   C4473     1.0  0.87527  0.59451  0.17171  1.0000
  H   H5346     1.0  0.71642  0.60428  0.13459  1.0000
  S   S1189     1.0  0.51781  0.70052  0.10040  1.0000
  Fe  Fe602     1.0  0.51089  0.68534  0.12370  1.0000
  S   S1190     1.0  0.87853  0.64289  0.15665  1.0000
  C   C4474     1.0  0.66831  0.62411  0.11061  1.0000
  H   H5347     1.0  0.92847  0.62606  0.14530  1.0000
  N   N295      1.0  0.83742  0.62584  0.01615  1.0000
  C   C4475     1.0  0.82432  0.63945  0.01359  1.0000
  C   C4476     1.0  0.84527  0.62859  0.02695  1.0000
  C   C4477     1.0  0.84889  0.62512  0.00120  1.0000
  C   C4478     1.0  0.83144  0.61137  0.02196  1.0000
  C   C4479     1.0  0.83385  0.60071  0.03612  1.0000
  C   C4480     1.0  0.82296  0.60753  0.01331  1.0000
  S   S1191     1.0  0.67721  0.48941  0.02661  1.0000
  H   H5348     1.0  0.72504  0.65964  0.00692  1.0000
  C   C4481     1.0  0.50145  0.72799  0.08572  1.0000
  H   H5349     1.0  0.82818  0.65065  0.00998  1.0000
  H   H5350     1.0  0.95563  0.65892  0.15148  1.0000
  C   C4482     1.0  0.92035  0.66087  0.14465  1.0000
  C   C4483     1.0  0.79826  0.65793  0.12598  1.0000
  N   N296      1.0  0.76696  0.56279  0.97825  1.0000
  H   H5351     1.0  0.64985  0.52312  0.12347  1.0000
  Fe  Fe603     1.0  0.85567  0.65613  0.15037  1.0000
  Fe  Fe604     1.0  0.88955  0.65531  0.13320  1.0000
  H   H5352     1.0  0.95077  0.62802  0.15340  1.0000
  S   S1192     1.0  0.86672  0.67025  0.12801  1.0000
  H   H5353     1.0  0.71206  0.59837  0.09760  1.0000
  C   C4484     1.0  0.66220  0.63178  0.12278  1.0000
  C   C4485     1.0  0.54293  0.54058  0.14836  1.0000
  H   H5354     1.0  0.59774  0.70449  0.15796  1.0000
  H   H5355     1.0  0.59754  0.64177  0.11381  1.0000
  C   C4486     1.0  0.57809  0.61535  0.11384  1.0000
  H   H5356     1.0  0.73327  0.62822  0.98858  1.0000
  C   C4487     1.0  0.64434  0.59523  0.10511  1.0000
  H   H5357     1.0  0.70694  0.70882  0.10315  1.0000
  S   S1193     1.0  0.61662  0.59763  0.09817  1.0000
  C   C4488     1.0  0.60180  0.69200  0.16084  1.0000
  C   C4489     1.0  0.55266  0.64421  0.11053  1.0000
  H   H5358     1.0  0.64180  0.51161  0.01377  1.0000
  N   N297      1.0  0.70454  0.59591  0.12252  1.0000
  H   H5359     1.0  0.65107  0.64006  0.12329  1.0000
  H   H5360     1.0  0.54069  0.52249  0.13899  1.0000
  H   H5361     1.0  0.62303  0.53769  0.01057  1.0000
  H   H5362     1.0  0.63767  0.59644  0.11657  1.0000
  H   H5363     1.0  0.69498  0.58144  0.11438  1.0000
  H   H5364     1.0  0.68988  0.61539  0.14384  1.0000
  H   H5365     1.0  0.72730  0.58939  0.10778  1.0000
  C   C4490     1.0  0.71630  0.59855  0.10772  1.0000
  H   H5366     1.0  0.72882  0.58091  0.00487  1.0000
  C   C4491     1.0  0.68435  0.61740  0.13428  1.0000
  C   C4492     1.0  0.67024  0.62849  0.13453  1.0000
  S   S1194     1.0  0.71647  0.63134  0.14240  1.0000
  S   S1195     1.0  0.61161  0.59363  0.14242  1.0000
  S   S1196     1.0  0.65237  0.57487  0.15373  1.0000
  C   C4493     1.0  0.56486  0.66775  0.08791  1.0000
  H   H5367     1.0  0.53034  0.65705  0.10542  1.0000
  H   H5368     1.0  0.51270  0.73050  0.07936  1.0000
  H   H5369     1.0  0.66192  0.62642  0.10160  1.0000
  H   H5370     1.0  0.61405  0.52093  0.09263  1.0000
  C   C4494     1.0  0.54890  0.66827  0.09133  1.0000
  H   H5371     1.0  0.70449  0.59084  0.14693  1.0000
  Fe  Fe605     1.0  0.61321  0.58350  0.12250  1.0000
  C   C4495     1.0  0.68232  0.61291  0.11033  1.0000
  H   H5372     1.0  0.56151  0.62853  0.13771  1.0000
  H   H5373     1.0  0.71063  0.63492  0.97712  1.0000
  C   C4496     1.0  0.57365  0.63021  0.13308  1.0000
  H   H5374     1.0  0.58099  0.62058  0.14017  1.0000
  S   S1197     1.0  0.67539  0.65408  0.15733  1.0000
  C   C4497     1.0  0.78650  0.66135  0.13922  1.0000
  C   C4498     1.0  0.71237  0.59372  0.13535  1.0000
  H   H5375     1.0  0.92772  0.69456  0.12508  1.0000
  H   H5376     1.0  0.57242  0.53341  0.11897  1.0000
  C   C4499     1.0  0.73247  0.60415  0.99737  1.0000
  H   H5377     1.0  0.68627  0.60690  0.10093  1.0000
  Fe  Fe606     1.0  0.51032  0.65307  0.14329  1.0000
  C   C4500     1.0  0.53286  0.61716  0.14891  1.0000
  H   H5378     1.0  0.82064  0.61503  0.00243  1.0000
  H   H5379     1.0  0.56254  0.58523  0.14609  1.0000
  S   S1198     1.0  0.51806  0.62878  0.13934  1.0000
  H   H5380     1.0  0.85944  0.61663  0.17336  1.0000
  S   S1199     1.0  0.49587  0.69681  0.14285  1.0000
  S   S1200     1.0  0.59457  0.57004  0.13464  1.0000
  S   S1201     1.0  0.63291  0.56353  0.12798  1.0000
  H   H5381     1.0  0.66166  0.53899  0.12800  1.0000
  C   C4501     1.0  0.74750  0.54618  0.99298  1.0000
  H   H5382     1.0  0.66475  0.55809  0.09475  1.0000
  H   H5383     1.0  0.53514  0.54962  0.14190  1.0000
  H   H5384     1.0  0.79427  0.62461  0.16251  1.0000
  H   H5385     1.0  0.59082  0.54243  0.12790  1.0000
  H   H5386     1.0  0.71158  0.54706  0.98825  1.0000
  H   H5387     1.0  0.52807  0.63124  0.16556  1.0000
  H   H5388     1.0  0.72170  0.63942  0.05124  1.0000
  S   S1202     1.0  0.61824  0.52550  0.14075  1.0000
  C   C4502     1.0  0.93212  0.61777  0.15536  1.0000
  S   S1203     1.0  0.57053  0.50312  0.11787  1.0000
  H   H5389     1.0  0.70051  0.52897  0.10150  1.0000
  C   C4503     1.0  0.59277  0.53029  0.12798  1.0000
  H   H5390     1.0  0.72459  0.61912  0.05164  1.0000
  C   C4504     1.0  0.58456  0.50937  0.12307  1.0000
  C   C4505     1.0  0.71224  0.65557  0.09116  1.0000
  C   C4506     1.0  0.92402  0.60607  0.16329  1.0000
  H   H5391     1.0  0.68204  0.53076  0.12717  1.0000
  H   H5392     1.0  0.88933  0.57122  0.17352  1.0000
  H   H5393     1.0  0.94048  0.68409  0.10234  1.0000
  S   S1204     1.0  0.66602  0.69691  0.16067  1.0000
  H   H5394     1.0  0.66865  0.70506  0.12598  1.0000
  C   C4507     1.0  0.67351  0.53902  0.12046  1.0000
  C   C4508     1.0  0.53553  0.62115  0.16137  1.0000
  H   H5395     1.0  0.73044  0.53216  0.00475  1.0000
  C   C4509     1.0  0.60543  0.51965  0.13339  1.0000
  H   H5396     1.0  0.64440  0.72680  0.15856  1.0000
  C   C4510     1.0  0.59747  0.49878  0.12809  1.0000
  H   H5397     1.0  0.62578  0.69384  0.15129  1.0000
  H   H5398     1.0  0.75427  0.64101  0.02997  1.0000
  H   H5399     1.0  0.69337  0.51021  0.99735  1.0000
  C   C4511     1.0  0.81937  0.58400  0.03264  1.0000
  H   H5400     1.0  0.74270  0.60123  0.00226  1.0000
  H   H5401     1.0  0.64087  0.49070  0.06429  1.0000
  C   C4512     1.0  0.81702  0.59406  0.01861  1.0000
  C   C4513     1.0  0.74425  0.61894  0.02435  1.0000
  H   H5402     1.0  0.75893  0.57663  0.99542  1.0000
  N   N298      1.0  0.69307  0.61525  0.97591  1.0000
  C   C4514     1.0  0.81504  0.66963  0.13392  1.0000
  H   H5403     1.0  0.67097  0.68481  0.13003  1.0000
  H   H5404     1.0  0.95069  0.68522  0.15800  1.0000
  H   H5405     1.0  0.97653  0.61900  0.15678  1.0000
  H   H5406     1.0  0.83999  0.60262  0.04364  1.0000
  H   H5407     1.0  0.82614  0.67287  0.13188  1.0000
  C   C4515     1.0  0.76840  0.56663  0.99232  1.0000
  H   H5408     1.0  0.69024  0.71160  0.09491  1.0000
  C   C4516     1.0  0.70101  0.65362  0.10494  1.0000
  H   H5409     1.0  0.81451  0.57371  0.03686  1.0000
  Fe  Fe607     1.0  0.51063  0.67863  0.15788  1.0000
  C   C4517     1.0  0.95003  0.69791  0.15507  1.0000
  H   H5410     1.0  0.75525  0.53945  0.00063  1.0000
  Fe  Fe608     1.0  0.67631  0.67161  0.16939  1.0000
  C   C4518     1.0  0.74386  0.64498  0.02467  1.0000
  H   H5411     1.0  0.80514  0.67887  0.15442  1.0000
  C   C4519     1.0  0.77714  0.62002  0.98821  1.0000
  C   C4520     1.0  0.55011  0.54431  0.15799  1.0000
  H   H5412     1.0  0.91983  0.70956  0.15957  1.0000
  C   C4521     1.0  0.68160  0.49213  0.10423  1.0000
  S   S1205     1.0  0.83427  0.66851  0.16478  1.0000
  H   H5413     1.0  0.98217  0.62098  0.17300  1.0000
  H   H5414     1.0  0.74868  0.64742  0.01191  1.0000
  C   C4522     1.0  0.55772  0.59912  0.16291  1.0000
  C   C4523     1.0  0.72711  0.61932  0.98971  1.0000
  H   H5415     1.0  0.61749  0.49555  0.13760  1.0000
  C   C4524     1.0  0.54591  0.52532  0.14679  1.0000
  H   H5416     1.0  0.96889  0.68199  0.09146  1.0000
  H   H5417     1.0  0.98462  0.69063  0.10404  1.0000
  H   H5418     1.0  0.93651  0.72834  0.14798  1.0000
  H   H5419     1.0  0.55868  0.50192  0.15321  1.0000
  C   C4525     1.0  0.63824  0.71811  0.16632  1.0000
  H   H5420     1.0  0.54735  0.55638  0.15855  1.0000
  C   C4526     1.0  0.56060  0.53268  0.16637  1.0000
  S   S1206     1.0  0.49493  0.66166  0.16433  1.0000
  H   H5421     1.0  0.62556  0.59676  0.16693  1.0000
  C   C4527     1.0  0.65518  0.50209  0.97838  1.0000
  H   H5422     1.0  0.64517  0.48716  0.09748  1.0000
  H   H5423     1.0  0.70564  0.48235  0.00059  1.0000
  H   H5424     1.0  0.80982  0.64963  0.17360  1.0000
  C   C4528     1.0  0.56338  0.51727  0.16444  1.0000
  C   C4529     1.0  0.64605  0.70244  0.16920  1.0000
  C   C4530     1.0  0.66315  0.60583  0.17084  1.0000
  C   C4531     1.0  0.76971  0.63192  0.17060  1.0000
  C   C4532     1.0  0.63498  0.61150  0.17479  1.0000
  N   N299      1.0  0.57421  0.68881  0.17292  1.0000
  C   C4533     1.0  0.58573  0.53237  0.17044  1.0000
  H   H5425     1.0  0.57151  0.50788  0.17006  1.0000
  H   H5426     1.0  0.59040  0.51996  0.16983  1.0000
  S   S1207     1.0  0.49551  0.66908  0.12711  1.0000
  H   H5427     1.0  0.93633  0.72892  0.12829  1.0000
  H   H5428     1.0  0.52922  0.71391  0.97940  1.0000
  H   H5429     1.0  0.67361  0.60819  0.17214  1.0000
  S   S1208     1.0  0.57334  0.58812  0.17167  1.0000
  H   H5430     1.0  0.53593  0.73133  0.99067  1.0000
  H   H5431     1.0  0.69033  0.48338  0.09877  1.0000
  C   C4534     1.0  0.59120  0.68213  0.16878  1.0000
  C   C4535     1.0  0.61395  0.66012  0.16914  1.0000
  C   C4536     1.0  0.59779  0.66593  0.17283  1.0000
  H   H5432     1.0  0.61880  0.64778  0.17268  1.0000
  C   C4537     1.0  0.62244  0.72263  0.17363  1.0000
  H   H5433     1.0  0.56626  0.66874  0.17307  1.0000
  Fe  Fe609     1.0  0.99178  0.68106  0.16128  1.0000
  H   H5434     1.0  0.84126  0.48517  0.26982  1.0000
  H   H5435     1.0  0.57667  0.69307  0.19388  1.0000
  H   H5436     1.0  0.80147  0.62155  0.21113  1.0000
  C   C4538     1.0  0.96780  0.49554  0.20081  1.0000
  C   C4539     1.0  0.75410  0.52437  0.30386  1.0000
  H   H5437     1.0  0.57011  0.52941  0.20063  1.0000
  H   H5438     1.0  0.74974  0.53444  0.33762  1.0000
  C   C4540     1.0  0.75273  0.55197  0.29915  1.0000
  Fe  Fe610     1.0  0.79599  0.57113  0.34961  1.0000
  C   C4541     1.0  0.80279  0.70073  0.32484  1.0000
  S   S1209     1.0  0.66720  0.65831  0.19308  1.0000
  H   H5439     1.0  0.84826  0.49585  0.35564  1.0000
  C   C4542     1.0  0.75495  0.72999  0.25651  1.0000
  S   S1210     1.0  0.70101  0.64349  0.21529  1.0000
  H   H5440     1.0  0.94851  0.54341  0.22072  1.0000
  H   H5441     1.0  0.91250  0.49965  0.22931  1.0000
  C   C4543     1.0  0.84111  0.64844  0.19164  1.0000
  H   H5442     1.0  0.76597  0.55191  0.33617  1.0000
  Fe  Fe611     1.0  0.79554  0.65223  0.24691  1.0000
  S   S1211     1.0  0.82124  0.64449  0.23734  1.0000
  Fe  Fe612     1.0  0.76942  0.63636  0.26575  1.0000
  S   S1212     1.0  0.75131  0.65859  0.26598  1.0000
  S   S1213     1.0  0.76654  0.61205  0.27711  1.0000
  Fe  Fe613     1.0  0.76276  0.66535  0.24085  1.0000
  S   S1214     1.0  0.74905  0.67815  0.22227  1.0000
  S   S1215     1.0  0.77934  0.64222  0.24022  1.0000
  S   S1216     1.0  0.78680  0.64479  0.27247  1.0000
  C   C4544     1.0  0.84538  0.49984  0.29551  1.0000
  C   C4545     1.0  0.93456  0.48975  0.25714  1.0000
  C   C4546     1.0  0.78828  0.49669  0.31998  1.0000
  S   S1217     1.0  0.81404  0.72001  0.35259  1.0000
  H   H5443     1.0  0.78835  0.69316  0.26843  1.0000
  H   H5444     1.0  0.73069  0.72947  0.22495  1.0000
  H   H5445     1.0  0.76456  0.72003  0.25770  1.0000
  C   C4547     1.0  0.98363  0.60738  0.27258  1.0000
  H   H5446     1.0  0.91108  0.65995  0.18338  1.0000
  S   S1218     1.0  0.80402  0.55022  0.33914  1.0000
  S   S1219     1.0  0.84452  0.53021  0.34389  1.0000
  H   H5447     1.0  0.92277  0.48784  0.26147  1.0000
  S   S1220     1.0  0.79170  0.59633  0.33789  1.0000
  C   C4548     1.0  0.80619  0.70513  0.36649  1.0000
  C   C4549     1.0  0.74321  0.73044  0.24894  1.0000
  H   H5448     1.0  0.95726  0.51427  0.18432  1.0000
  H   H5449     1.0  0.81214  0.60999  0.34639  1.0000
  C   C4550     1.0  0.77933  0.65551  0.37066  1.0000
  H   H5450     1.0  0.55195  0.68220  0.18315  1.0000
  S   S1221     1.0  0.79243  0.48740  0.30454  1.0000
  H   H5451     1.0  0.85103  0.64234  0.18438  1.0000
  N   N300      1.0  0.92308  0.48256  0.21537  1.0000
  C   C4551     1.0  0.82769  0.50287  0.33768  1.0000
  C   C4552     1.0  0.74368  0.70293  0.25509  1.0000
  H   H5452     1.0  0.79920  0.51553  0.30603  1.0000
  C   C4553     1.0  0.96573  0.48247  0.21261  1.0000
  C   C4554     1.0  0.83814  0.64317  0.20784  1.0000
  H   H5453     1.0  0.73790  0.55635  0.34520  1.0000
  C   C4555     1.0  0.78896  0.51872  0.32940  1.0000
  H   H5454     1.0  0.79899  0.70610  0.31366  1.0000
  H   H5455     1.0  0.87869  0.60899  0.20431  1.0000
  H   H5456     1.0  0.76771  0.64682  0.34281  1.0000
  Fe  Fe614     1.0  0.86756  0.56385  0.23381  1.0000
  S   S1222     1.0  0.87854  0.58025  0.23867  1.0000
  S   S1223     1.0  0.84892  0.57649  0.22049  1.0000
  Fe  Fe615     1.0  0.88700  0.53578  0.25126  1.0000
  S   S1224     1.0  0.89949  0.54980  0.25800  1.0000
  S   S1225     1.0  0.89388  0.50987  0.25859  1.0000
  Fe  Fe616     1.0  0.87581  0.56554  0.26267  1.0000
  S   S1226     1.0  0.86549  0.57793  0.28214  1.0000
  Fe  Fe617     1.0  0.90107  0.56329  0.23341  1.0000
  S   S1227     1.0  0.92285  0.57104  0.21872  1.0000
  S   S1228     1.0  0.86303  0.55023  0.25835  1.0000
  S   S1229     1.0  0.89052  0.54797  0.22616  1.0000
  H   H5457     1.0  0.92220  0.58639  0.18247  1.0000
  C   C4556     1.0  0.98320  0.63066  0.25230  1.0000
  H   H5458     1.0  0.82050  0.51408  0.34062  1.0000
  H   H5459     1.0  0.88686  0.64804  0.19823  1.0000
  H   H5460     1.0  0.83938  0.50525  0.33140  1.0000
  H   H5461     1.0  0.97915  0.63795  0.24202  1.0000
  C   C4557     1.0  0.56490  0.52653  0.19248  1.0000
  H   H5462     1.0  0.94404  0.58823  0.19161  1.0000
  H   H5463     1.0  0.90345  0.60269  0.23090  1.0000
  H   H5464     1.0  0.80539  0.48703  0.35349  1.0000
  S   S1230     1.0  0.96015  0.58308  0.26076  1.0000
  S   S1231     1.0  0.81413  0.56374  0.36376  1.0000
  C   C4558     1.0  0.77559  0.49886  0.34647  1.0000
  H   H5465     1.0  0.67351  0.70469  0.19791  1.0000
  C   C4559     1.0  0.93848  0.48684  0.21063  1.0000
  C   C4560     1.0  0.94107  0.49999  0.19848  1.0000
  C   C4561     1.0  0.78589  0.63220  0.35445  1.0000
  N   N301      1.0  0.56860  0.53612  0.17655  1.0000
  C   C4562     1.0  0.86603  0.48501  0.24334  1.0000
  H   H5466     1.0  0.80357  0.64130  0.20199  1.0000
  H   H5467     1.0  0.92668  0.51431  0.25116  1.0000
  H   H5468     1.0  0.52689  0.69916  0.19548  1.0000
  C   C4563     1.0  0.96493  0.49468  0.24639  1.0000
  Fe  Fe618     1.0  0.98513  0.57077  0.25425  1.0000
  H   H5469     1.0  0.80547  0.50131  0.36312  1.0000
  C   C4564     1.0  0.93295  0.57494  0.23028  1.0000
  C   C4565     1.0  0.94879  0.57521  0.22472  1.0000
  C   C4566     1.0  0.95706  0.57815  0.23391  1.0000
  C   C4567     1.0  0.94954  0.58061  0.24879  1.0000
  C   C4568     1.0  0.93363  0.58054  0.25428  1.0000
  C   C4569     1.0  0.92536  0.57759  0.24507  1.0000
  H   H5470     1.0  0.95479  0.57282  0.21346  1.0000
  H   H5471     1.0  0.96925  0.57855  0.22948  1.0000
  H   H5472     1.0  0.92779  0.58244  0.26579  1.0000
  H   H5473     1.0  0.91311  0.57741  0.24945  1.0000
  C   C4570     1.0  0.82508  0.65097  0.21716  1.0000
  C   C4571     1.0  0.87729  0.48844  0.29443  1.0000
  S   S1232     1.0  0.94251  0.65912  0.18418  1.0000
  N   N302      1.0  0.74398  0.71712  0.24248  1.0000
  C   C4572     1.0  0.76112  0.64008  0.19487  1.0000
  C   C4573     1.0  0.86232  0.50126  0.24062  1.0000
  C   C4574     1.0  0.87064  0.50902  0.24554  1.0000
  C   C4575     1.0  0.88255  0.50049  0.25335  1.0000
  C   C4576     1.0  0.92855  0.59549  0.17627  1.0000
  H   H5474     1.0  0.75167  0.64437  0.20386  1.0000
  H   H5475     1.0  0.85324  0.50788  0.23441  1.0000
  H   H5476     1.0  0.86797  0.52158  0.24309  1.0000
  C   C4577     1.0  0.93694  0.50489  0.25118  1.0000
  H   H5477     1.0  0.76859  0.49439  0.35762  1.0000
  H   H5478     1.0  0.91707  0.61108  0.20777  1.0000
  H   H5479     1.0  0.98527  0.59437  0.18388  1.0000
  C   C4578     1.0  0.87150  0.57352  0.19428  1.0000
  H   H5480     1.0  0.87415  0.63766  0.19525  1.0000
  H   H5481     1.0  0.89285  0.63792  0.18280  1.0000
  H   H5482     1.0  0.66437  0.71011  0.22498  1.0000
  H   H5483     1.0  0.93200  0.50693  0.19241  1.0000
  H   H5484     1.0  0.91580  0.62452  0.18986  1.0000
  S   S1233     1.0  0.69234  0.62761  0.18376  1.0000
  H   H5485     1.0  0.83764  0.48439  0.37230  1.0000
  H   H5486     1.0  0.82026  0.62567  0.20162  1.0000
  C   C4579     1.0  0.57132  0.69916  0.18368  1.0000
  H   H5487     1.0  0.75568  0.51408  0.29955  1.0000
  C   C4580     1.0  0.85457  0.59908  0.19422  1.0000
  C   C4581     1.0  0.81486  0.66378  0.21032  1.0000
  H   H5488     1.0  0.82988  0.50476  0.36576  1.0000
  S   S1234     1.0  0.99148  0.55207  0.24108  1.0000
  C   C4582     1.0  0.85088  0.54342  0.32690  1.0000
  C   C4583     1.0  0.86197  0.53806  0.31452  1.0000
  C   C4584     1.0  0.86642  0.54862  0.30063  1.0000
  C   C4585     1.0  0.86015  0.56458  0.29936  1.0000
  C   C4586     1.0  0.84929  0.56993  0.31186  1.0000
  C   C4587     1.0  0.84446  0.55935  0.32549  1.0000
  H   H5489     1.0  0.86702  0.52578  0.31567  1.0000
  H   H5490     1.0  0.87487  0.54445  0.29100  1.0000
  H   H5491     1.0  0.84444  0.58225  0.31092  1.0000
  H   H5492     1.0  0.83594  0.56359  0.33499  1.0000
  H   H5493     1.0  0.87477  0.56146  0.19996  1.0000
  Fe  Fe619     1.0  0.82067  0.54186  0.35504  1.0000
  C   C4588     1.0  0.61454  0.71149  0.18398  1.0000
  C   C4589     1.0  0.77433  0.64560  0.35136  1.0000
  C   C4590     1.0  0.75764  0.63748  0.18216  1.0000
  C   C4591     1.0  0.77995  0.49060  0.33465  1.0000
  C   C4592     1.0  0.78002  0.51295  0.34388  1.0000
  Fe  Fe620     1.0  0.78755  0.53946  0.35966  1.0000
  H   H5494     1.0  0.80698  0.70981  0.32742  1.0000
  C   C4593     1.0  0.73623  0.56601  0.33494  1.0000
  C   C4594     1.0  0.56409  0.55266  0.17772  1.0000
  H   H5495     1.0  0.64351  0.67918  0.18093  1.0000
  C   C4595     1.0  0.85885  0.58348  0.20167  1.0000
  H   H5496     1.0  0.62042  0.66324  0.22631  1.0000
  S   S1235     1.0  0.64669  0.63035  0.18486  1.0000
  H   H5497     1.0  0.84512  0.60688  0.20016  1.0000
  S   S1236     1.0  0.80472  0.52970  0.37510  1.0000
  S   S1237     1.0  0.76153  0.68150  0.28923  1.0000
  H   H5498     1.0  0.55202  0.52841  0.19713  1.0000
  C   C4596     1.0  0.94612  0.53166  0.22647  1.0000
  C   C4597     1.0  0.97478  0.59388  0.18025  1.0000
  S   S1238     1.0  0.78001  0.67618  0.24517  1.0000
  H   H5499     1.0  0.82243  0.50014  0.32951  1.0000
  Fe  Fe621     1.0  0.76968  0.66779  0.27040  1.0000
  C   C4598     1.0  0.77339  0.60740  0.29410  1.0000
  C   C4599     1.0  0.77044  0.61878  0.30253  1.0000
  C   C4600     1.0  0.77628  0.61533  0.31590  1.0000
  C   C4601     1.0  0.78490  0.60043  0.32096  1.0000
  C   C4602     1.0  0.78801  0.58906  0.31246  1.0000
  C   C4603     1.0  0.78231  0.59257  0.29896  1.0000
  H   H5500     1.0  0.76350  0.63025  0.29881  1.0000
  H   H5501     1.0  0.77387  0.62414  0.32246  1.0000
  H   H5502     1.0  0.79503  0.57769  0.31613  1.0000
  H   H5503     1.0  0.78503  0.58390  0.29216  1.0000
  C   C4604     1.0  0.86277  0.60462  0.17918  1.0000
  H   H5504     1.0  0.84571  0.63288  0.21311  1.0000
  C   C4605     1.0  0.71450  0.65326  0.21671  1.0000
  C   C4606     1.0  0.72146  0.64784  0.22959  1.0000
  C   C4607     1.0  0.73211  0.65535  0.23131  1.0000
  C   C4608     1.0  0.73571  0.66854  0.22027  1.0000
  C   C4609     1.0  0.72868  0.67408  0.20742  1.0000
  C   C4610     1.0  0.71818  0.66640  0.20557  1.0000
  H   H5505     1.0  0.71866  0.63769  0.23825  1.0000
  H   H5506     1.0  0.73747  0.65094  0.24124  1.0000
  H   H5507     1.0  0.73147  0.68425  0.19880  1.0000
  H   H5508     1.0  0.71286  0.67070  0.19562  1.0000
  C   C4611     1.0  0.87052  0.50386  0.29521  1.0000
  H   H5509     1.0  0.73319  0.70465  0.26467  1.0000
  H   H5510     1.0  0.91247  0.63165  0.20703  1.0000
  H   H5511     1.0  0.96994  0.58437  0.18900  1.0000
  H   H5512     1.0  0.97905  0.49876  0.19699  1.0000
  H   H5513     1.0  0.97236  0.53722  0.22833  1.0000
  H   H5514     1.0  0.97073  0.61308  0.25472  1.0000
  H   H5515     1.0  0.89753  0.59830  0.20775  1.0000
  C   C4612     1.0  0.52966  0.72189  0.18181  1.0000
  H   H5516     1.0  0.74670  0.58972  0.31493  1.0000
  H   H5517     1.0  0.82189  0.62595  0.37514  1.0000
  C   C4613     1.0  0.89127  0.60947  0.20142  1.0000
  C   C4614     1.0  0.97107  0.52498  0.23317  1.0000
  H   H5518     1.0  0.59225  0.53482  0.17771  1.0000
  H   H5519     1.0  0.71939  0.72071  0.24336  1.0000
  H   H5520     1.0  0.76199  0.66759  0.35713  1.0000
  C   C4615     1.0  0.94790  0.53281  0.25180  1.0000
  H   H5521     1.0  0.95169  0.60388  0.20326  1.0000
  H   H5522     1.0  0.82433  0.49246  0.28361  1.0000
  H   H5523     1.0  0.77834  0.63938  0.20640  1.0000
  N   N303      1.0  0.80578  0.62704  0.18609  1.0000
  C   C4616     1.0  0.83323  0.48188  0.28118  1.0000
  H   H5524     1.0  0.72522  0.56613  0.33189  1.0000
  H   H5525     1.0  0.73191  0.70901  0.23025  1.0000
  H   H5526     1.0  0.75955  0.70480  0.22521  1.0000
  H   H5527     1.0  0.75396  0.70252  0.30932  1.0000
  N   N304      1.0  0.74970  0.56465  0.32148  1.0000
  H   H5528     1.0  0.78459  0.71066  0.35895  1.0000
  C   C4617     1.0  0.78335  0.69986  0.27730  1.0000
  C   C4618     1.0  0.79136  0.70314  0.36720  1.0000
  C   C4619     1.0  0.95222  0.50783  0.24555  1.0000
  C   C4620     1.0  0.85200  0.48418  0.29419  1.0000
  H   H5529     1.0  0.75965  0.72509  0.22118  1.0000
  H   H5530     1.0  0.74355  0.69278  0.25082  1.0000
  C   C4621     1.0  0.75441  0.53875  0.29362  1.0000
  H   H5531     1.0  0.73442  0.57683  0.33901  1.0000
  H   H5532     1.0  0.75316  0.56268  0.29052  1.0000
  H   H5533     1.0  0.97989  0.59652  0.27806  1.0000
  C   C4622     1.0  0.81790  0.66911  0.19420  1.0000
  H   H5534     1.0  0.76417  0.57248  0.33132  1.0000
  S   S1239     1.0  0.59517  0.71667  0.19415  1.0000
  C   C4623     1.0  0.78341  0.72091  0.28858  1.0000
  H   H5535     1.0  0.82415  0.69048  0.34137  1.0000
  C   C4624     1.0  0.64851  0.61487  0.17621  1.0000
  N   N305      1.0  0.80661  0.61560  0.36896  1.0000
  H   H5536     1.0  0.75608  0.53960  0.28130  1.0000
  H   H5537     1.0  0.75785  0.58009  0.29991  1.0000
  H   H5538     1.0  0.89069  0.60049  0.25829  1.0000
  C   C4625     1.0  0.76405  0.70511  0.30038  1.0000
  H   H5539     1.0  0.79965  0.71497  0.26797  1.0000
  H   H5540     1.0  0.82505  0.60696  0.18686  1.0000
  S   S1240     1.0  0.77333  0.52348  0.35864  1.0000
  C   C4626     1.0  0.88596  0.48424  0.25645  1.0000
  C   C4627     1.0  0.95751  0.61281  0.19456  1.0000
  C   C4628     1.0  0.75200  0.52317  0.31968  1.0000
  H   H5541     1.0  0.75188  0.51193  0.32760  1.0000
  C   C4629     1.0  0.77110  0.65728  0.35941  1.0000
  H   H5542     1.0  0.79243  0.69845  0.33424  1.0000
  N   N306      1.0  0.89336  0.62309  0.20558  1.0000
  H   H5543     1.0  0.97673  0.51864  0.22363  1.0000
  H   H5544     1.0  0.85851  0.48375  0.33476  1.0000
  S   S1241     1.0  0.77752  0.56140  0.36857  1.0000
  C   C4630     1.0  0.88603  0.62257  0.22222  1.0000
  C   C4631     1.0  0.89278  0.61107  0.23388  1.0000
  C   C4632     1.0  0.87152  0.63255  0.22732  1.0000
  C   C4633     1.0  0.88548  0.60961  0.24960  1.0000
  C   C4634     1.0  0.86422  0.63086  0.24306  1.0000
  C   C4635     1.0  0.87116  0.61938  0.25417  1.0000
  Fe  Fe622     1.0  0.66800  0.63991  0.18105  1.0000
  C   C4636     1.0  0.52647  0.70717  0.18437  1.0000
  C   C4637     1.0  0.63792  0.69133  0.17915  1.0000
  H   H5545     1.0  0.82331  0.62249  0.34811  1.0000
  C   C4638     1.0  0.81778  0.61247  0.35439  1.0000
  Fe  Fe623     1.0  0.69244  0.64758  0.19336  1.0000
  H   H5546     1.0  0.82412  0.63598  0.31658  1.0000
  S   S1242     1.0  0.51896  0.68421  0.17624  1.0000
  C   C4639     1.0  0.88645  0.63733  0.19510  1.0000
  Fe  Fe624     1.0  0.96749  0.66190  0.17881  1.0000
  H   H5547     1.0  0.86544  0.64167  0.21939  1.0000
  C   C4640     1.0  0.77663  0.63702  0.19622  1.0000
  H   H5548     1.0  0.85299  0.63842  0.24660  1.0000
  H   H5549     1.0  0.86538  0.61788  0.26635  1.0000
  C   C4641     1.0  0.65697  0.65194  0.23325  1.0000
  H   H5550     1.0  0.73695  0.58193  0.30542  1.0000
  H   H5551     1.0  0.80472  0.66977  0.21745  1.0000
  C   C4642     1.0  0.76425  0.56247  0.32672  1.0000
  H   H5552     1.0  0.53245  0.72523  0.19092  1.0000
  H   H5553     1.0  0.90946  0.50616  0.20986  1.0000
  C   C4643     1.0  0.77061  0.71725  0.30032  1.0000
  C   C4644     1.0  0.79289  0.51071  0.31741  1.0000
  N   N307      1.0  0.82840  0.49016  0.35178  1.0000
  C   C4645     1.0  0.78976  0.71217  0.27710  1.0000
  C   C4646     1.0  0.74767  0.57968  0.30992  1.0000
  N   N308      1.0  0.65604  0.69499  0.21649  1.0000
  C   C4647     1.0  0.64361  0.70844  0.21148  1.0000
  C   C4648     1.0  0.66126  0.69854  0.22874  1.0000
  C   C4649     1.0  0.66933  0.69368  0.20291  1.0000
  C   C4650     1.0  0.65088  0.68008  0.22241  1.0000
  C   C4651     1.0  0.63589  0.67861  0.22206  1.0000
  C   C4652     1.0  0.66123  0.66630  0.22830  1.0000
  H   H5554     1.0  0.63919  0.63963  0.23601  1.0000
  H   H5555     1.0  0.63319  0.71013  0.22114  1.0000
  H   H5556     1.0  0.64774  0.71951  0.20728  1.0000
  H   H5557     1.0  0.63978  0.70701  0.20161  1.0000
  H   H5558     1.0  0.65188  0.69856  0.23952  1.0000
  H   H5559     1.0  0.67955  0.68434  0.20583  1.0000
  S   S1243     1.0  0.98501  0.64290  0.19002  1.0000
  H   H5560     1.0  0.66584  0.69093  0.19351  1.0000
  H   H5561     1.0  0.83305  0.50472  0.29607  1.0000
  H   H5562     1.0  0.79224  0.60072  0.36840  1.0000
  H   H5563     1.0  0.62720  0.68837  0.21777  1.0000
  H   H5564     1.0  0.67298  0.66634  0.22858  1.0000
  C   C4653     1.0  0.83108  0.66156  0.18487  1.0000
  N   N309      1.0  0.81522  0.68637  0.32384  1.0000
  C   C4654     1.0  0.82050  0.68109  0.33871  1.0000
  C   C4655     1.0  0.82840  0.69065  0.31105  1.0000
  C   C4656     1.0  0.81006  0.67375  0.32090  1.0000
  C   C4657     1.0  0.82043  0.65904  0.32029  1.0000
  C   C4658     1.0  0.79500  0.67570  0.31812  1.0000
  C   C4659     1.0  0.81596  0.64705  0.31717  1.0000
  C   C4660     1.0  0.79069  0.66365  0.31496  1.0000
  C   C4661     1.0  0.80112  0.64937  0.31450  1.0000
  H   H5565     1.0  0.81097  0.67751  0.34860  1.0000
  H   H5566     1.0  0.75405  0.69948  0.26034  1.0000
  H   H5567     1.0  0.83079  0.67118  0.33861  1.0000
  H   H5568     1.0  0.82490  0.69443  0.29965  1.0000
  H   H5569     1.0  0.83231  0.70046  0.31261  1.0000
  H   H5570     1.0  0.83879  0.68086  0.31023  1.0000
  H   H5571     1.0  0.83217  0.65679  0.32196  1.0000
  H   H5572     1.0  0.78637  0.68649  0.31808  1.0000
  H   H5573     1.0  0.76552  0.72404  0.30910  1.0000
  H   H5574     1.0  0.77921  0.66547  0.31267  1.0000
  H   H5575     1.0  0.79770  0.64014  0.31192  1.0000
  C   C4662     1.0  0.75057  0.53623  0.32532  1.0000
  H   H5576     1.0  0.78763  0.62332  0.34820  1.0000
  H   H5577     1.0  0.95353  0.52712  0.26188  1.0000
  C   C4663     1.0  0.80776  0.62897  0.20087  1.0000
  C   C4664     1.0  0.91037  0.62255  0.20251  1.0000
  H   H5578     1.0  0.67185  0.68997  0.23183  1.0000
  N   N310      1.0  0.95441  0.52398  0.23933  1.0000
  C   C4665     1.0  0.79472  0.63012  0.36564  1.0000
  H   H5579     1.0  0.57029  0.55492  0.18544  1.0000
  H   H5580     1.0  0.54976  0.61498  0.17828  1.0000
  H   H5581     1.0  0.77470  0.56110  0.31704  1.0000
  C   C4666     1.0  0.75074  0.55109  0.31526  1.0000
  H   H5582     1.0  0.57631  0.70962  0.17803  1.0000
  C   C4667     1.0  0.63177  0.66416  0.22702  1.0000
  C   C4668     1.0  0.87968  0.57902  0.17930  1.0000
  C   C4669     1.0  0.97847  0.61670  0.25939  1.0000
  H   H5583     1.0  0.66536  0.64152  0.23714  1.0000
  H   H5584     1.0  0.93319  0.53353  0.23050  1.0000
  H   H5585     1.0  0.61613  0.68714  0.19438  1.0000
  H   H5586     1.0  0.93508  0.53383  0.25617  1.0000
  H   H5587     1.0  0.97696  0.49569  0.24247  1.0000
  H   H5588     1.0  0.84946  0.52159  0.29644  1.0000
  H   H5589     1.0  0.97788  0.52022  0.24245  1.0000
  H   H5590     1.0  0.55863  0.70353  0.18811  1.0000
  H   H5591     1.0  0.96720  0.61366  0.19920  1.0000
  C   C4670     1.0  0.81204  0.48984  0.36041  1.0000
  H   H5592     1.0  0.94977  0.54490  0.24772  1.0000
  H   H5593     1.0  0.56756  0.67018  0.19194  1.0000
  N   N311      1.0  0.82308  0.59825  0.26461  1.0000
  C   C4671     1.0  0.83793  0.59968  0.25310  1.0000
  C   C4672     1.0  0.80989  0.60524  0.25658  1.0000
  C   C4673     1.0  0.82134  0.60759  0.27604  1.0000
  C   C4674     1.0  0.82322  0.58161  0.27168  1.0000
  C   C4675     1.0  0.82319  0.57150  0.26254  1.0000
  C   C4676     1.0  0.82352  0.57492  0.28756  1.0000
  C   C4677     1.0  0.82289  0.55585  0.26901  1.0000
  C   C4678     1.0  0.82348  0.55919  0.29386  1.0000
  C   C4679     1.0  0.82299  0.54972  0.28466  1.0000
  H   H5594     1.0  0.83972  0.59367  0.24364  1.0000
  H   H5595     1.0  0.83829  0.61204  0.24748  1.0000
  H   H5596     1.0  0.84812  0.59449  0.25866  1.0000
  H   H5597     1.0  0.81159  0.60074  0.24610  1.0000
  H   H5598     1.0  0.80837  0.61805  0.25252  1.0000
  H   H5599     1.0  0.79870  0.60292  0.26446  1.0000
  H   H5600     1.0  0.83148  0.60365  0.28174  1.0000
  H   H5601     1.0  0.82085  0.62010  0.27037  1.0000
  H   H5602     1.0  0.81033  0.60700  0.28508  1.0000
  H   H5603     1.0  0.82364  0.57558  0.25023  1.0000
  H   H5604     1.0  0.82395  0.58155  0.29536  1.0000
  H   H5605     1.0  0.82297  0.54839  0.26171  1.0000
  H   H5606     1.0  0.82406  0.55433  0.30593  1.0000
  H   H5607     1.0  0.82293  0.53756  0.28958  1.0000
  H   H5608     1.0  0.89566  0.60977  0.18879  1.0000
  H   H5609     1.0  0.79223  0.52967  0.32721  1.0000
  C   C4680     1.0  0.77034  0.69643  0.28884  1.0000
  C   C4681     1.0  0.62229  0.69585  0.18665  1.0000
  H   H5610     1.0  0.55135  0.55634  0.18253  1.0000
  C   C4682     1.0  0.95551  0.50427  0.19372  1.0000
  N   N312      1.0  0.96330  0.60903  0.17902  1.0000
  H   H5611     1.0  0.94980  0.52467  0.21746  1.0000
  C   C4683     1.0  0.75874  0.71451  0.23063  1.0000
  S   S1244     1.0  0.97487  0.68079  0.18430  1.0000
  C   C4684     1.0  0.79099  0.64220  0.37379  1.0000
  C   C4685     1.0  0.56469  0.67689  0.18060  1.0000
  H   H5612     1.0  0.88979  0.48425  0.29352  1.0000
  H   H5613     1.0  0.87778  0.51153  0.29486  1.0000
  C   C4686     1.0  0.91050  0.49590  0.21966  1.0000
  H   H5614     1.0  0.76928  0.71135  0.23560  1.0000
  H   H5615     1.0  0.94890  0.62418  0.19410  1.0000
  H   H5616     1.0  0.59079  0.65749  0.17910  1.0000
  C   C4687     1.0  0.83639  0.49388  0.36181  1.0000
  H   H5617     1.0  0.82726  0.60197  0.35670  1.0000
  C   C4688     1.0  0.85457  0.50953  0.29590  1.0000
  H   H5618     1.0  0.56954  0.51390  0.19293  1.0000
  C   C4689     1.0  0.64230  0.65085  0.23254  1.0000
  H   H5619     1.0  0.80600  0.60262  0.19415  1.0000
  H   H5620     1.0  0.89880  0.49290  0.22348  1.0000
  H   H5621     1.0  0.74554  0.63972  0.18136  1.0000
  H   H5622     1.0  0.91878  0.48834  0.19221  1.0000
  C   C4690     1.0  0.78924  0.63103  0.18479  1.0000
  H   H5623     1.0  0.81006  0.67918  0.18895  1.0000
  H   H5624     1.0  0.62361  0.61824  0.17915  1.0000
  C   C4691     1.0  0.94120  0.59657  0.18135  1.0000
  H   H5625     1.0  0.82302  0.48276  0.31144  1.0000
  C   C4692     1.0  0.81284  0.61059  0.18513  1.0000
  C   C4693     1.0  0.73086  0.71930  0.23495  1.0000
  N   N313      1.0  0.81156  0.73105  0.54374  1.0000
  Fe  Fe625     1.0  0.80343  0.67386  0.56826  1.0000
  S   S1245     1.0  0.78970  0.55733  0.40622  1.0000
  H   H5626     1.0  0.76633  0.71082  0.40426  1.0000
  H   H5627     1.0  0.84876  0.70381  0.50205  1.0000
  C   C4694     1.0  0.88411  0.68906  0.55231  1.0000
  Fe  Fe626     1.0  0.82410  0.61881  0.42093  1.0000
  S   S1246     1.0  0.79998  0.62879  0.43315  1.0000
  S   S1247     1.0  0.83338  0.59616  0.41329  1.0000
  Fe  Fe627     1.0  0.83712  0.64559  0.42146  1.0000
  S   S1248     1.0  0.81410  0.65820  0.43353  1.0000
  S   S1249     1.0  0.85961  0.65298  0.41719  1.0000
  Fe  Fe628     1.0  0.81189  0.63466  0.44845  1.0000
  S   S1250     1.0  0.80649  0.62780  0.47462  1.0000
  Fe  Fe629     1.0  0.80432  0.65140  0.41712  1.0000
  S   S1251     1.0  0.78615  0.66715  0.40415  1.0000
  S   S1252     1.0  0.83563  0.62259  0.43754  1.0000
  S   S1253     1.0  0.82765  0.64090  0.40370  1.0000
  Fe  Fe630     1.0  0.80639  0.66797  0.53637  1.0000
  S   S1254     1.0  0.82400  0.64564  0.54071  1.0000
  S   S1255     1.0  0.79960  0.67770  0.51317  1.0000
  Fe  Fe631     1.0  0.83454  0.65883  0.55073  1.0000
  S   S1256     1.0  0.86058  0.65574  0.54328  1.0000
  H   H5628     1.0  0.82319  0.54754  0.43380  1.0000
  S   S1257     1.0  0.81805  0.68165  0.54469  1.0000
  C   C4695     1.0  0.86919  0.66892  0.54674  1.0000
  C   C4696     1.0  0.86032  0.68274  0.55123  1.0000
  C   C4697     1.0  0.86783  0.69294  0.55384  1.0000
  H   H5629     1.0  0.93920  0.70297  0.48572  1.0000
  H   H5630     1.0  0.79006  0.60434  0.38712  1.0000
  C   C4698     1.0  0.88543  0.66540  0.54479  1.0000
  H   H5631     1.0  0.84776  0.68538  0.55291  1.0000
  H   H5632     1.0  0.86104  0.70347  0.55757  1.0000
  C   C4699     1.0  0.89283  0.67531  0.54776  1.0000
  H   H5633     1.0  0.81581  0.67544  0.39639  1.0000
  C   C4700     1.0  0.85613  0.67323  0.41347  1.0000
  C   C4701     1.0  0.84199  0.68225  0.40986  1.0000
  C   C4702     1.0  0.84920  0.70547  0.41038  1.0000
  C   C4703     1.0  0.86368  0.69655  0.41325  1.0000
  C   C4704     1.0  0.86717  0.68041  0.41477  1.0000
  H   H5634     1.0  0.83366  0.67675  0.40846  1.0000
  H   H5635     1.0  0.87216  0.70201  0.41438  1.0000
  H   H5636     1.0  0.87829  0.67348  0.41722  1.0000
  C   C4705     1.0  0.80428  0.64191  0.48517  1.0000
  C   C4706     1.0  0.80285  0.65768  0.47800  1.0000
  C   C4707     1.0  0.80133  0.66859  0.48669  1.0000
  C   C4708     1.0  0.80144  0.66379  0.50254  1.0000
  C   C4709     1.0  0.80298  0.64801  0.50969  1.0000
  C   C4710     1.0  0.80425  0.63713  0.50106  1.0000
  H   H5637     1.0  0.80261  0.66153  0.46584  1.0000
  H   H5638     1.0  0.79989  0.68079  0.48116  1.0000
  H   H5639     1.0  0.80277  0.64421  0.52196  1.0000
  H   H5640     1.0  0.80523  0.62498  0.50673  1.0000
  C   C4711     1.0  0.80160  0.56840  0.40810  1.0000
  C   C4712     1.0  0.81764  0.56513  0.40172  1.0000
  C   C4713     1.0  0.82722  0.57372  0.40350  1.0000
  C   C4714     1.0  0.82079  0.58585  0.41136  1.0000
  C   C4715     1.0  0.80467  0.58940  0.41747  1.0000
  C   C4716     1.0  0.79511  0.58049  0.41606  1.0000
  H   H5641     1.0  0.82273  0.55572  0.39570  1.0000
  H   H5642     1.0  0.83969  0.57096  0.39875  1.0000
  H   H5643     1.0  0.79964  0.59879  0.42348  1.0000
  H   H5644     1.0  0.78269  0.58301  0.42102  1.0000
  S   S1258     1.0  0.79005  0.66248  0.55936  1.0000
  H   H5645     1.0  0.82531  0.60527  0.38134  1.0000
  N   N314      1.0  0.94385  0.71532  0.53812  1.0000
  H   H5646     1.0  0.78885  0.60031  0.45145  1.0000
  C   C4717     1.0  0.86132  0.62620  0.45837  1.0000
  C   C4718     1.0  0.95262  0.71669  0.50903  1.0000
  C   C4719     1.0  0.83863  0.69838  0.40806  1.0000
  H   H5647     1.0  0.82772  0.70529  0.40519  1.0000
  C   C4720     1.0  0.81780  0.58944  0.45876  1.0000
  H   H5648     1.0  0.87337  0.71265  0.50652  1.0000
  H   H5649     1.0  0.87296  0.65141  0.44264  1.0000
  C   C4721     1.0  0.94414  0.72674  0.43936  1.0000
  H   H5650     1.0  0.79177  0.57391  0.48936  1.0000
  H   H5651     1.0  0.80068  0.71328  0.56029  1.0000
  S   S1259     1.0  0.87063  0.71716  0.47522  1.0000
  H   H5652     1.0  0.78329  0.69270  0.42073  1.0000
  H   H5653     1.0  0.79840  0.53879  0.44118  1.0000
  C   C4722     1.0  0.80712  0.72230  0.50159  1.0000
  H   H5654     1.0  0.78879  0.71085  0.51591  1.0000
  H   H5655     1.0  0.77865  0.56935  0.47246  1.0000
  H   H5656     1.0  0.80693  0.72816  0.41712  1.0000
  H   H5657     1.0  0.88252  0.63859  0.48062  1.0000
  C   C4723     1.0  0.86427  0.72979  0.48791  1.0000
  C   C4724     1.0  0.84468  0.69291  0.50821  1.0000
  N   N315      1.0  0.80332  0.58344  0.46605  1.0000
  H   H5658     1.0  0.77638  0.54957  0.46069  1.0000
  C   C4725     1.0  0.78983  0.59675  0.46380  1.0000
  C   C4726     1.0  0.80245  0.57075  0.45956  1.0000
  H   H5659     1.0  0.82902  0.71002  0.54799  1.0000
  S   S1260     1.0  0.82096  0.65205  0.57510  1.0000
  C   C4727     1.0  0.84640  0.62979  0.49166  1.0000
  H   H5660     1.0  0.83521  0.62162  0.51546  1.0000
  S   S1261     1.0  0.89408  0.70055  0.55663  1.0000
  H   H5661     1.0  0.84750  0.65882  0.49928  1.0000
  C   C4728     1.0  0.85946  0.63515  0.48117  1.0000
  H   H5662     1.0  0.84600  0.65661  0.44874  1.0000
  H   H5663     1.0  0.96710  0.71999  0.53064  1.0000
  C   C4729     1.0  0.92255  0.72374  0.43083  1.0000
  C   C4730     1.0  0.82722  0.72274  0.54683  1.0000
  H   H5664     1.0  0.82847  0.58039  0.46084  1.0000
  C   C4731     1.0  0.84535  0.65148  0.46134  1.0000
  C   C4732     1.0  0.79591  0.70941  0.42021  1.0000
  H   H5665     1.0  0.80353  0.58701  0.48815  1.0000
  C   C4733     1.0  0.78861  0.56492  0.46404  1.0000
  H   H5666     1.0  0.94110  0.69252  0.55175  1.0000
  H   H5667     1.0  0.87858  0.72352  0.38978  1.0000
  Fe  Fe632     1.0  0.79625  0.55262  0.38225  1.0000
  H   H5668     1.0  0.83676  0.62891  0.48754  1.0000
  H   H5669     1.0  0.92341  0.70021  0.53454  1.0000
  H   H5670     1.0  0.85691  0.62249  0.52613  1.0000
  H   H5671     1.0  0.80716  0.59132  0.37907  1.0000
  H   H5672     1.0  0.79069  0.71540  0.53985  1.0000
  H   H5673     1.0  0.81268  0.56767  0.48511  1.0000
  C   C4734     1.0  0.92992  0.70112  0.51031  1.0000
  H   H5674     1.0  0.92118  0.69495  0.51085  1.0000
  H   H5675     1.0  0.83171  0.69586  0.51069  1.0000
  C   C4735     1.0  0.79967  0.54727  0.44664  1.0000
  C   C4736     1.0  0.87330  0.64732  0.45518  1.0000
  C   C4737     1.0  0.86724  0.72452  0.50284  1.0000
  C   C4738     1.0  0.79735  0.71714  0.51564  1.0000
  C   C4739     1.0  0.94001  0.70559  0.49621  1.0000
  Fe  Fe633     1.0  0.86876  0.73029  0.45107  1.0000
  H   H5676     1.0  0.85101  0.62082  0.46379  1.0000
  H   H5677     1.0  0.77851  0.59409  0.47096  1.0000
  C   C4740     1.0  0.85770  0.62583  0.51369  1.0000
  H   H5678     1.0  0.83699  0.70089  0.44250  1.0000
  C   C4741     1.0  0.79395  0.68154  0.38944  1.0000
  C   C4742     1.0  0.78723  0.55349  0.45752  1.0000
  C   C4743     1.0  0.80279  0.57774  0.48290  1.0000
  H   H5679     1.0  0.83498  0.64617  0.46529  1.0000
  C   C4744     1.0  0.87191  0.63514  0.48766  1.0000
  S   S1262     1.0  0.87964  0.71878  0.43091  1.0000
  C   C4745     1.0  0.93123  0.70429  0.52383  1.0000
  H   H5680     1.0  0.82606  0.56748  0.44448  1.0000
  H   H5681     1.0  0.82880  0.72444  0.55777  1.0000
  C   C4746     1.0  0.94252  0.71232  0.52360  1.0000
  H   H5682     1.0  0.86223  0.62924  0.44558  1.0000
  H   H5683     1.0  0.84803  0.68900  0.51968  1.0000
  H   H5684     1.0  0.95937  0.71653  0.48469  1.0000
  Fe  Fe634     1.0  0.80871  0.64113  0.56445  1.0000
  H   H5685     1.0  0.87191  0.61713  0.46071  1.0000
  S   S1263     1.0  0.84349  0.72517  0.41094  1.0000
  C   C4747     1.0  0.94942  0.70034  0.54844  1.0000
  H   H5686     1.0  0.84282  0.66121  0.46726  1.0000
  C   C4748     1.0  0.81508  0.56383  0.44874  1.0000
  H   H5687     1.0  0.90538  0.67223  0.54664  1.0000
  H   H5688     1.0  0.92917  0.72677  0.55643  1.0000
  C   C4749     1.0  0.80898  0.68318  0.38831  1.0000
  H   H5689     1.0  0.83157  0.67040  0.51010  1.0000
  H   H5690     1.0  0.81794  0.59924  0.46354  1.0000
  H   H5691     1.0  0.88474  0.63895  0.45554  1.0000
  H   H5692     1.0  0.88043  0.63078  0.50852  1.0000
  H   H5693     1.0  0.84849  0.66094  0.51771  1.0000
  C   C4750     1.0  0.84450  0.66718  0.50682  1.0000
  C   C4751     1.0  0.81362  0.55225  0.44246  1.0000
  C   C4752     1.0  0.93197  0.71933  0.44167  1.0000
  H   H5694     1.0  0.87313  0.65765  0.45928  1.0000
  N   N316      1.0  0.85995  0.64003  0.46431  1.0000
  N   N317      1.0  0.85149  0.68086  0.49888  1.0000
  H   H5695     1.0  0.79093  0.60709  0.46715  1.0000
  C   C4753     1.0  0.95485  0.72549  0.53557  1.0000
  C   C4754     1.0  0.86851  0.67596  0.49861  1.0000
  C   C4755     1.0  0.84786  0.68689  0.48329  1.0000
  C   C4756     1.0  0.85958  0.68718  0.46934  1.0000
  C   C4757     1.0  0.83209  0.69195  0.48174  1.0000
  C   C4758     1.0  0.85560  0.69202  0.45485  1.0000
  C   C4759     1.0  0.82825  0.69695  0.46720  1.0000
  C   C4760     1.0  0.83999  0.69696  0.45376  1.0000
  H   H5696     1.0  0.92950  0.71053  0.45210  1.0000
  C   C4761     1.0  0.84549  0.62538  0.50766  1.0000
  H   H5697     1.0  0.90146  0.72777  0.48662  1.0000
  C   C4762     1.0  0.87093  0.63058  0.50371  1.0000
  C   C4763     1.0  0.92836  0.72299  0.54626  1.0000
  H   H5698     1.0  0.81889  0.59387  0.44602  1.0000
  H   H5699     1.0  0.87441  0.68587  0.49308  1.0000
  H   H5700     1.0  0.87077  0.67161  0.51055  1.0000
  H   H5701     1.0  0.87430  0.66634  0.49246  1.0000
  H   H5702     1.0  0.87190  0.68406  0.46929  1.0000
  H   H5703     1.0  0.82260  0.69191  0.49184  1.0000
  H   H5704     1.0  0.86471  0.69214  0.44437  1.0000
  H   H5705     1.0  0.81609  0.70078  0.46635  1.0000
  H   H5706     1.0  0.89231  0.65474  0.54137  1.0000
  H   H5707     1.0  0.91996  0.71522  0.55093  1.0000
  H   H5708     1.0  0.96171  0.72261  0.50765  1.0000
  H   H5709     1.0  0.95078  0.70210  0.55944  1.0000
  H   H5710     1.0  0.95512  0.72807  0.54661  1.0000
  H   H5711     1.0  0.96094  0.69405  0.54267  1.0000
  Fe  Fe635     1.0  0.88344  0.72594  0.55455  1.0000
  C   C4764     1.0  0.95136  0.71328  0.49562  1.0000
  C   C4765     1.0  0.78448  0.70469  0.41648  1.0000
  H   H5712     1.0  0.86481  0.73046  0.52451  1.0000
  H   H5713     1.0  0.80865  0.61673  0.39146  1.0000
  C   C4766     1.0  0.77482  0.71520  0.40699  1.0000
  C   C4767     1.0  0.79861  0.71984  0.52941  1.0000
  H   H5714     1.0  0.79668  0.64159  0.38285  1.0000
  H   H5715     1.0  0.80602  0.72020  0.49097  1.0000
  H   H5716     1.0  0.91278  0.71841  0.43296  1.0000
  S   S1264     1.0  0.95422  0.72255  0.45417  1.0000
  H   H5717     1.0  0.76497  0.72427  0.37955  1.0000
  C   C4768     1.0  0.80986  0.72784  0.52946  1.0000
  H   H5718     1.0  0.80352  0.70113  0.42739  1.0000
  H   H5719     1.0  0.91511  0.72987  0.46845  1.0000
  H   H5720     1.0  0.77341  0.69039  0.37976  1.0000
  C   C4769     1.0  0.78511  0.69154  0.37887  1.0000
  H   H5721     1.0  0.83684  0.72681  0.53745  1.0000
  C   C4770     1.0  0.79777  0.72466  0.41441  1.0000
  C   C4771     1.0  0.79971  0.72604  0.55772  1.0000
  C   C4772     1.0  0.81596  0.61601  0.37966  1.0000
  H   H5722     1.0  0.80121  0.72857  0.56830  1.0000
  C   C4773     1.0  0.81841  0.72996  0.50125  1.0000
  C   C4774     1.0  0.81505  0.69503  0.37695  1.0000
  H   H5723     1.0  0.82661  0.69641  0.37637  1.0000
  C   C4775     1.0  0.77633  0.73085  0.40088  1.0000
  H   H5724     1.0  0.77645  0.66435  0.37729  1.0000
  C   C4776     1.0  0.79867  0.60247  0.37618  1.0000
  H   H5725     1.0  0.85765  0.72847  0.37582  1.0000
  S   S1265     1.0  0.87186  0.48604  0.70926  1.0000
  Fe  Fe636     1.0  0.76732  0.64914  0.76830  1.0000
  Fe  Fe637     1.0  0.79364  0.65179  0.73955  1.0000
  S   S1266     1.0  0.80407  0.62613  0.74466  1.0000
  S   S1267     1.0  0.80740  0.66674  0.71964  1.0000
  Fe  Fe638     1.0  0.77929  0.62354  0.75046  1.0000
  S   S1268     1.0  0.77173  0.60415  0.74608  1.0000
  C   C4777     1.0  0.87416  0.55411  0.64053  1.0000
  H   H5726     1.0  0.90308  0.54130  0.66026  1.0000
  S   S1269     1.0  0.76906  0.64904  0.74342  1.0000
  S   S1270     1.0  0.79102  0.65430  0.76375  1.0000
  H   H5727     1.0  0.79423  0.60429  0.63025  1.0000
  Fe  Fe639     1.0  0.87899  0.54833  0.75222  1.0000
  S   S1271     1.0  0.90029  0.53853  0.73575  1.0000
  H   H5728     1.0  0.79010  0.66011  0.61144  1.0000
  Fe  Fe640     1.0  0.88722  0.57993  0.74444  1.0000
  S   S1272     1.0  0.90870  0.57336  0.72650  1.0000
  Fe  Fe641     1.0  0.89433  0.56153  0.71949  1.0000
  S   S1273     1.0  0.89385  0.56336  0.69485  1.0000
  Fe  Fe642     1.0  0.91294  0.55106  0.74432  1.0000
  S   S1274     1.0  0.93632  0.54056  0.75072  1.0000
  S   S1275     1.0  0.87224  0.57053  0.73546  1.0000
  S   S1276     1.0  0.89226  0.55830  0.76262  1.0000
  H   H5729     1.0  0.73617  0.60630  0.75801  1.0000
  Fe  Fe643     1.0  0.79661  0.57614  0.67097  1.0000
  S   S1277     1.0  0.82256  0.57336  0.66546  1.0000
  S   S1278     1.0  0.78296  0.59930  0.67639  1.0000
  Fe  Fe644     1.0  0.79923  0.54383  0.66583  1.0000
  S   S1279     1.0  0.82542  0.53878  0.65967  1.0000
  S   S1280     1.0  0.78764  0.52370  0.67096  1.0000
  Fe  Fe645     1.0  0.82305  0.54920  0.67962  1.0000
  S   S1281     1.0  0.83605  0.53707  0.69846  1.0000
  Fe  Fe646     1.0  0.82237  0.56346  0.64592  1.0000
  S   S1282     1.0  0.83869  0.57107  0.62330  1.0000
  S   S1283     1.0  0.79708  0.55270  0.68687  1.0000
  S   S1284     1.0  0.79615  0.56788  0.65032  1.0000
  H   H5730     1.0  0.87494  0.49830  0.62364  1.0000
  H   H5731     1.0  0.89609  0.48804  0.67859  1.0000
  C   C4778     1.0  0.78598  0.65795  0.62393  1.0000
  C   C4779     1.0  0.85508  0.52269  0.76199  1.0000
  H   H5732     1.0  0.86991  0.49789  0.73736  1.0000
  H   H5733     1.0  0.79374  0.59233  0.59890  1.0000
  C   C4780     1.0  0.82872  0.58361  0.60918  1.0000
  C   C4781     1.0  0.83566  0.59497  0.59786  1.0000
  H   H5734     1.0  0.70285  0.64143  0.76588  1.0000
  H   H5735     1.0  0.81745  0.67845  0.62391  1.0000
  H   H5736     1.0  0.97074  0.53252  0.71983  1.0000
  C   C4782     1.0  0.81371  0.58256  0.60937  1.0000
  H   H5737     1.0  0.84734  0.59572  0.59760  1.0000
  H   H5738     1.0  0.80113  0.58487  0.73989  1.0000
  H   H5739     1.0  0.88260  0.52313  0.61372  1.0000
  H   H5740     1.0  0.80851  0.57350  0.61770  1.0000
  C   C4783     1.0  0.79097  0.51324  0.65656  1.0000
  C   C4784     1.0  0.79354  0.52045  0.64078  1.0000
  C   C4785     1.0  0.79578  0.51181  0.62961  1.0000
  C   C4786     1.0  0.79588  0.49586  0.63412  1.0000
  H   H5741     1.0  0.79219  0.51909  0.70572  1.0000
  C   C4787     1.0  0.79078  0.49737  0.66107  1.0000
  H   H5742     1.0  0.79350  0.53272  0.63723  1.0000
  H   H5743     1.0  0.79754  0.51748  0.61744  1.0000
  C   C4788     1.0  0.79340  0.48868  0.64989  1.0000
  H   H5744     1.0  0.78864  0.49176  0.67324  1.0000
  C   C4789     1.0  0.87805  0.55584  0.69546  1.0000
  C   C4790     1.0  0.87240  0.54535  0.70875  1.0000
  C   C4791     1.0  0.85981  0.53925  0.70933  1.0000
  C   C4792     1.0  0.85259  0.54388  0.69676  1.0000
  C   C4793     1.0  0.85821  0.55433  0.68340  1.0000
  C   C4794     1.0  0.87100  0.56028  0.68275  1.0000
  H   H5745     1.0  0.87776  0.54184  0.71860  1.0000
  H   H5746     1.0  0.85551  0.53110  0.71964  1.0000
  H   H5747     1.0  0.85276  0.55781  0.67359  1.0000
  H   H5748     1.0  0.87526  0.56851  0.67252  1.0000
  C   C4795     1.0  0.94742  0.55470  0.74594  1.0000
  C   C4796     1.0  0.96348  0.55020  0.74545  1.0000
  C   C4797     1.0  0.97240  0.56147  0.74149  1.0000
  C   C4798     1.0  0.96539  0.57721  0.73734  1.0000
  C   C4799     1.0  0.94947  0.58168  0.73740  1.0000
  C   C4800     1.0  0.94041  0.57048  0.74225  1.0000
  H   H5749     1.0  0.96903  0.53803  0.74792  1.0000
  H   H5750     1.0  0.85815  0.57365  0.77334  1.0000
  H   H5751     1.0  0.83858  0.59069  0.70758  1.0000
  H   H5752     1.0  0.92798  0.57414  0.74333  1.0000
  H   H5753     1.0  0.87780  0.51787  0.69073  1.0000
  C   C4801     1.0  0.86530  0.51575  0.75010  1.0000
  H   H5754     1.0  0.87593  0.51968  0.74396  1.0000
  C   C4802     1.0  0.79985  0.69862  0.59147  1.0000
  C   C4803     1.0  0.79149  0.70873  0.60135  1.0000
  C   C4804     1.0  0.79925  0.71714  0.60609  1.0000
  H   H5755     1.0  0.77893  0.71016  0.60526  1.0000
  H   H5756     1.0  0.84002  0.60077  0.75722  1.0000
  C   C4805     1.0  0.79731  0.68291  0.70797  1.0000
  C   C4806     1.0  0.78193  0.68405  0.70723  1.0000
  C   C4807     1.0  0.77471  0.69647  0.69675  1.0000
  C   C4808     1.0  0.78277  0.70787  0.68714  1.0000
  C   C4809     1.0  0.79798  0.70693  0.68826  1.0000
  C   C4810     1.0  0.80528  0.69441  0.69851  1.0000
  H   H5757     1.0  0.77571  0.67521  0.71445  1.0000
  H   H5758     1.0  0.76291  0.69717  0.69600  1.0000
  H   H5759     1.0  0.85261  0.61536  0.73214  1.0000
  H   H5760     1.0  0.81714  0.69366  0.69912  1.0000
  C   C4811     1.0  0.77522  0.60302  0.72660  1.0000
  C   C4812     1.0  0.77696  0.58862  0.72320  1.0000
  C   C4813     1.0  0.77979  0.58733  0.70778  1.0000
  C   C4814     1.0  0.78022  0.60055  0.69573  1.0000
  C   C4815     1.0  0.77812  0.61503  0.69915  1.0000
  C   C4816     1.0  0.77600  0.61623  0.71454  1.0000
  H   H5761     1.0  0.77613  0.57842  0.73250  1.0000
  H   H5762     1.0  0.78106  0.57619  0.70528  1.0000
  H   H5763     1.0  0.77812  0.62534  0.68989  1.0000
  H   H5764     1.0  0.77451  0.62740  0.71710  1.0000
  C   C4817     1.0  0.80013  0.51581  0.71391  1.0000
  H   H5765     1.0  0.77067  0.67890  0.65197  1.0000
  C   C4818     1.0  0.81605  0.65423  0.65130  1.0000
  C   C4819     1.0  0.83956  0.52172  0.61804  1.0000
  C   C4820     1.0  0.88702  0.55391  0.64593  1.0000
  H   H5766     1.0  0.98474  0.55799  0.74135  1.0000
  C   C4821     1.0  0.81273  0.64064  0.66186  1.0000
  H   H5767     1.0  0.85768  0.54135  0.64094  1.0000
  C   C4822     1.0  0.83789  0.50536  0.76607  1.0000
  C   C4823     1.0  0.81603  0.69699  0.58624  1.0000
  C   C4824     1.0  0.81204  0.60491  0.58775  1.0000
  H   H5768     1.0  0.80412  0.71589  0.68133  1.0000
  H   H5769     1.0  0.96169  0.49464  0.73799  1.0000
  C   C4825     1.0  0.82447  0.69227  0.76448  1.0000
  C   C4826     1.0  0.83597  0.68128  0.77134  1.0000
  N   N318      1.0  0.82397  0.57082  0.73368  1.0000
  H   H5770     1.0  0.82734  0.52206  0.61929  1.0000
  N   N319      1.0  0.84491  0.49275  0.62820  1.0000
  C   C4827     1.0  0.83131  0.58353  0.73297  1.0000
  C   C4828     1.0  0.82068  0.50314  0.69561  1.0000
  C   C4829     1.0  0.83836  0.59249  0.71874  1.0000
  H   H5771     1.0  0.82701  0.49939  0.61483  1.0000
  C   C4830     1.0  0.79353  0.48797  0.70791  1.0000
  C   C4831     1.0  0.84136  0.51751  0.76990  1.0000
  H   H5772     1.0  0.96763  0.56006  0.70866  1.0000
  H   H5773     1.0  0.81796  0.70218  0.76948  1.0000
  C   C4832     1.0  0.87060  0.52263  0.61485  1.0000
  H   H5774     1.0  0.81536  0.58098  0.71264  1.0000
  H   H5775     1.0  0.81681  0.56044  0.71913  1.0000
  H   H5776     1.0  0.98929  0.52991  0.76442  1.0000
  H   H5777     1.0  0.74719  0.62808  0.75873  1.0000
  N   N320      1.0  0.81207  0.50133  0.71205  1.0000
  H   H5778     1.0  0.83416  0.56742  0.71040  1.0000
  H   H5779     1.0  0.81278  0.50690  0.68736  1.0000
  H   H5780     1.0  0.85252  0.65986  0.77132  1.0000
  C   C4833     1.0  0.78053  0.67084  0.63072  1.0000
  H   H5781     1.0  0.83330  0.69742  0.64359  1.0000
  H   H5782     1.0  0.95882  0.51372  0.74100  1.0000
  S   S1285     1.0  0.97629  0.59144  0.73253  1.0000
  C   C4834     1.0  0.80543  0.59312  0.59861  1.0000
  H   H5783     1.0  0.82326  0.69103  0.66297  1.0000
  S   S1286     1.0  0.85891  0.53790  0.76738  1.0000
  C   C4835     1.0  0.88799  0.52671  0.65996  1.0000
  C   C4836     1.0  0.88998  0.49854  0.67121  1.0000
  H   H5784     1.0  0.80796  0.57137  0.75608  1.0000
  H   H5785     1.0  0.90566  0.58192  0.76317  1.0000
  H   H5786     1.0  0.82865  0.49199  0.69352  1.0000
  H   H5787     1.0  0.82788  0.48310  0.64722  1.0000
  S   S1287     1.0  0.79955  0.48519  0.61976  1.0000
  H   H5788     1.0  0.81542  0.62701  0.62655  1.0000
  C   C4837     1.0  0.84641  0.60684  0.73237  1.0000
  H   H5789     1.0  0.93042  0.51735  0.73900  1.0000
  C   C4838     1.0  0.91246  0.50930  0.66554  1.0000
  H   H5790     1.0  0.80407  0.67817  0.67681  1.0000
  H   H5791     1.0  0.86899  0.51777  0.65758  1.0000
  C   C4839     1.0  0.79014  0.61407  0.63635  1.0000
  C   C4840     1.0  0.83313  0.49349  0.64294  1.0000
  H   H5792     1.0  0.93650  0.49778  0.73672  1.0000
  H   H5793     1.0  0.79740  0.61111  0.64511  1.0000
  C   C4841     1.0  0.89072  0.51568  0.68635  1.0000
  C   C4842     1.0  0.89372  0.54052  0.65567  1.0000
  H   H5794     1.0  0.80568  0.52582  0.71161  1.0000
  C   C4843     1.0  0.82547  0.68085  0.62966  1.0000
  H   H5795     1.0  0.72877  0.64105  0.75772  1.0000
  S   S1288     1.0  0.82551  0.72567  0.60688  1.0000
  H   H5796     1.0  0.79862  0.65429  0.69491  1.0000
  C   C4844     1.0  0.80667  0.66790  0.67224  1.0000
  H   H5797     1.0  0.82920  0.50942  0.71811  1.0000
  H   H5798     1.0  0.78048  0.48669  0.59734  1.0000
  H   H5799     1.0  0.83584  0.54656  0.60942  1.0000
  C   C4845     1.0  0.88740  0.60203  0.76706  1.0000
  H   H5800     1.0  0.85139  0.61039  0.70757  1.0000
  H   H5801     1.0  0.80151  0.56455  0.74324  1.0000
  H   H5802     1.0  0.87729  0.49946  0.67647  1.0000
  H   H5803     1.0  0.94404  0.59385  0.73414  1.0000
  H   H5804     1.0  0.91629  0.50847  0.65315  1.0000
  H   H5805     1.0  0.71867  0.60236  0.77197  1.0000
  C   C4846     1.0  0.82378  0.70555  0.59085  1.0000
  C   C4847     1.0  0.87468  0.52740  0.65443  1.0000
  C   C4848     1.0  0.72499  0.61173  0.76518  1.0000
  C   C4849     1.0  0.81342  0.66825  0.65630  1.0000
  N   N321      1.0  0.95108  0.51321  0.72114  1.0000
  C   C4850     1.0  0.96197  0.50691  0.73188  1.0000
  C   C4851     1.0  0.93560  0.51007  0.73023  1.0000
  C   C4852     1.0  0.95678  0.50459  0.70855  1.0000
  C   C4853     1.0  0.94989  0.52999  0.71411  1.0000
  C   C4854     1.0  0.93791  0.53856  0.70599  1.0000
  C   C4855     1.0  0.96100  0.53810  0.71427  1.0000
  C   C4856     1.0  0.93657  0.55442  0.69932  1.0000
  C   C4857     1.0  0.95946  0.55399  0.70769  1.0000
  C   C4858     1.0  0.94719  0.56217  0.70038  1.0000
  C   C4859     1.0  0.82725  0.60574  0.58722  1.0000
  H   H5806     1.0  0.89149  0.56437  0.64298  1.0000
  H   H5807     1.0  0.97428  0.50684  0.72565  1.0000
  C   C4860     1.0  0.80433  0.48810  0.71633  1.0000
  C   C4861     1.0  0.83949  0.59843  0.74650  1.0000
  H   H5808     1.0  0.92712  0.51206  0.72292  1.0000
  H   H5809     1.0  0.96823  0.50694  0.70126  1.0000
  C   C4862     1.0  0.73566  0.63260  0.76593  1.0000
  H   H5810     1.0  0.94841  0.50782  0.70082  1.0000
  H   H5811     1.0  0.92937  0.53315  0.70478  1.0000
  H   H5812     1.0  0.91791  0.49809  0.67260  1.0000
  H   H5813     1.0  0.92705  0.56080  0.69357  1.0000
  C   C4863     1.0  0.84579  0.60394  0.71853  1.0000
  H   H5814     1.0  0.94582  0.57455  0.69563  1.0000
  N   N322      1.0  0.84990  0.65202  0.74548  1.0000
  C   C4864     1.0  0.86703  0.64980  0.74364  1.0000
  C   C4865     1.0  0.84475  0.63836  0.75664  1.0000
  C   C4866     1.0  0.84714  0.65248  0.73019  1.0000
  C   C4867     1.0  0.84134  0.66610  0.75158  1.0000
  C   C4868     1.0  0.82936  0.67743  0.74499  1.0000
  C   C4869     1.0  0.84422  0.66834  0.76510  1.0000
  C   C4870     1.0  0.86188  0.50342  0.74635  1.0000
  N   N323      1.0  0.81776  0.68261  0.64579  1.0000
  H   H5815     1.0  0.87048  0.64741  0.75487  1.0000
  H   H5816     1.0  0.87373  0.63957  0.73852  1.0000
  H   H5817     1.0  0.87123  0.66026  0.73603  1.0000
  H   H5818     1.0  0.84701  0.63704  0.76821  1.0000
  H   H5819     1.0  0.85099  0.62735  0.75287  1.0000
  H   H5820     1.0  0.83196  0.63944  0.75826  1.0000
  H   H5821     1.0  0.84978  0.66313  0.72150  1.0000
  H   H5822     1.0  0.85456  0.64232  0.72537  1.0000
  H   H5823     1.0  0.83483  0.65210  0.73108  1.0000
  H   H5824     1.0  0.78039  0.68241  0.62344  1.0000
  C   C4871     1.0  0.93174  0.60885  0.76341  1.0000
  C   C4872     1.0  0.85978  0.53629  0.61072  1.0000
  H   H5825     1.0  0.83908  0.67765  0.65370  1.0000
  H   H5826     1.0  0.82789  0.51199  0.69226  1.0000
  C   C4873     1.0  0.83349  0.55577  0.74041  1.0000
  H   H5827     1.0  0.86872  0.56462  0.63328  1.0000
  H   H5828     1.0  0.83633  0.67153  0.62932  1.0000
  S   S1289     1.0  0.87927  0.60299  0.75149  1.0000
  H   H5829     1.0  0.82914  0.69167  0.62228  1.0000
  C   C4874     1.0  0.80846  0.62811  0.61798  1.0000
  N   N324      1.0  0.79166  0.62922  0.62545  1.0000
  H   H5830     1.0  0.81494  0.63000  0.65792  1.0000
  H   H5831     1.0  0.79482  0.69217  0.64091  1.0000
  H   H5832     1.0  0.81337  0.61777  0.61276  1.0000
  H   H5833     1.0  0.89237  0.49613  0.65949  1.0000
  H   H5834     1.0  0.77070  0.65250  0.66845  1.0000
  H   H5835     1.0  0.89606  0.50562  0.69473  1.0000
  H   H5836     1.0  0.95851  0.49186  0.71326  1.0000
  C   C4875     1.0  0.94505  0.60113  0.76927  1.0000
  H   H5837     1.0  0.82075  0.65344  0.63934  1.0000
  C   C4876     1.0  0.82252  0.56998  0.71827  1.0000
  C   C4877     1.0  0.78281  0.63141  0.61342  1.0000
  H   H5838     1.0  0.82256  0.68922  0.57857  1.0000
  C   C4878     1.0  0.86600  0.50841  0.62055  1.0000
  C   C4879     1.0  0.92245  0.62232  0.76801  1.0000
  C   C4880     1.0  0.77502  0.66888  0.64672  1.0000
  H   H5839     1.0  0.79270  0.72485  0.61376  1.0000
  H   H5840     1.0  0.83835  0.49437  0.65216  1.0000
  H   H5841     1.0  0.89452  0.52601  0.68674  1.0000
  S   S1290     1.0  0.99143  0.56532  0.76939  1.0000
  H   H5842     1.0  0.83347  0.55483  0.75272  1.0000
  C   C4881     1.0  0.81540  0.71560  0.60084  1.0000
  H   H5843     1.0  0.81768  0.49865  0.73411  1.0000
  S   S1291     1.0  0.77393  0.72276  0.67335  1.0000
  H   H5844     1.0  0.83632  0.70427  0.58682  1.0000
  H   H5845     1.0  0.81052  0.63836  0.60847  1.0000
  H   H5846     1.0  0.86327  0.54736  0.60651  1.0000
  H   H5847     1.0  0.77985  0.62989  0.65717  1.0000
  C   C4882     1.0  0.80799  0.57296  0.74367  1.0000
  C   C4883     1.0  0.85029  0.50753  0.62221  1.0000
  H   H5848     1.0  0.84593  0.55430  0.73402  1.0000
  H   H5849     1.0  0.81198  0.69873  0.74618  1.0000
  C   C4884     1.0  0.84429  0.53584  0.61237  1.0000
  C   C4885     1.0  0.83765  0.49029  0.61679  1.0000
  H   H5850     1.0  0.91768  0.51815  0.66710  1.0000
  N   N325      1.0  0.89512  0.51274  0.67051  1.0000
  C   C4886     1.0  0.86796  0.54093  0.64485  1.0000
  C   C4887     1.0  0.82342  0.49944  0.72161  1.0000
  C   C4888     1.0  0.77497  0.65401  0.65598  1.0000
  H   H5851     1.0  0.82922  0.54567  0.74010  1.0000
  C   C4889     1.0  0.80358  0.69532  0.64506  1.0000
  H   H5852     1.0  0.80431  0.63001  0.68572  1.0000
  H   H5853     1.0  0.80642  0.70621  0.63698  1.0000
  H   H5854     1.0  0.78597  0.62101  0.60832  1.0000
  H   H5855     1.0  0.78516  0.64122  0.60342  1.0000
  H   H5856     1.0  0.79777  0.69834  0.65651  1.0000
  H   H5857     1.0  0.76998  0.63358  0.61836  1.0000
  C   C4890     1.0  0.80343  0.65427  0.68269  1.0000
  C   C4891     1.0  0.78030  0.64104  0.64930  1.0000
  C   C4892     1.0  0.82880  0.68734  0.65179  1.0000
  C   C4893     1.0  0.84816  0.49820  0.75439  1.0000
  C   C4894     1.0  0.80660  0.64062  0.67753  1.0000
  C   C4895     1.0  0.78591  0.64264  0.63299  1.0000
  H   H5858     1.0  0.77777  0.61400  0.64252  1.0000
  C   C4896     1.0  0.83216  0.58684  0.74686  1.0000
  C   C4897     1.0  0.98598  0.51895  0.77185  1.0000
  H   H5859     1.0  0.92833  0.60413  0.75566  1.0000
  H   H5860     1.0  0.82741  0.58029  0.75811  1.0000
  H   H5861     1.0  0.82592  0.67652  0.73502  1.0000
  H   H5862     1.0  0.82327  0.50367  0.64173  1.0000
  H   H5863     1.0  0.95213  0.59050  0.76584  1.0000
  H   H5864     1.0  0.71795  0.61973  0.75686  1.0000
  H   H5865     1.0  0.84596  0.49020  0.60535  1.0000
  H   H5866     1.0  0.82731  0.50133  0.77234  1.0000
  Fe  Fe647     1.0  0.79962  0.62840  0.76925  1.0000
  H   H5867     1.0  0.83303  0.48901  0.72040  1.0000
  H   H5868     1.0  0.79280  0.51458  0.72590  1.0000
  C   C4898     1.0  0.90006  0.59001  0.77061  1.0000
  S   S1292     1.0  0.84346  0.48276  0.75024  1.0000
  C   C4899     1.0  0.82114  0.69032  0.75136  1.0000
  H   H5869     1.0  0.83246  0.61475  0.57874  1.0000
  H   H5870     1.0  0.91180  0.62793  0.76385  1.0000
  S   S1293     1.0  0.81527  0.72815  0.64967  1.0000
  H   H5871     1.0  0.79070  0.49754  0.69840  1.0000
  H   H5872     1.0  0.73769  0.63922  0.77330  1.0000
  H   H5873     1.0  0.87084  0.62204  0.77400  1.0000
  H   H5874     1.0  0.98500  0.60188  0.69161  1.0000
  S   S1294     1.0  0.78960  0.68892  0.58518  1.0000
  H   H5875     1.0  0.97633  0.51706  0.76800  1.0000
  S   S1295     1.0  0.80062  0.61890  0.57567  1.0000
  H   H5876     1.0  0.74238  0.57710  0.96232  1.0000
  H   H5877     1.0  0.92302  0.64222  0.80347  1.0000
  Fe  Fe648     1.0  0.74128  0.63888  0.93785  1.0000
  S   S1296     1.0  0.75326  0.63077  0.91583  1.0000
  S   S1297     1.0  0.71782  0.65512  0.94264  1.0000
  Fe  Fe649     1.0  0.75727  0.60703  0.93137  1.0000
  C   C4900     1.0  0.91027  0.65165  0.86946  1.0000
  Fe  Fe650     1.0  0.77525  0.63261  0.92103  1.0000
  S   S1298     1.0  0.79177  0.64533  0.90189  1.0000
  C   C4901     1.0  0.66206  0.50077  0.87838  1.0000
  S   S1299     1.0  0.76284  0.64281  0.94196  1.0000
  C   C4902     1.0  0.54530  0.72068  0.86180  1.0000
  Fe  Fe651     1.0  0.65715  0.63053  0.87723  1.0000
  S   S1300     1.0  0.66499  0.63734  0.85139  1.0000
  S   S1301     1.0  0.64265  0.61312  0.89121  1.0000
  Fe  Fe652     1.0  0.67065  0.65476  0.88310  1.0000
  S   S1302     1.0  0.67987  0.66352  0.85770  1.0000
  S   S1303     1.0  0.66829  0.66680  0.90205  1.0000
  Fe  Fe653     1.0  0.65681  0.66191  0.85470  1.0000
  S   S1304     1.0  0.64258  0.68188  0.84017  1.0000
  Fe  Fe654     1.0  0.68723  0.63827  0.85676  1.0000
  S   S1305     1.0  0.71065  0.62564  0.84528  1.0000
  S   S1306     1.0  0.64714  0.65494  0.88008  1.0000
  S   S1307     1.0  0.67986  0.62967  0.88256  1.0000
  Fe  Fe655     1.0  0.86471  0.64294  0.82242  1.0000
  S   S1308     1.0  0.86738  0.61771  0.83359  1.0000
  S   S1309     1.0  0.84443  0.65549  0.81086  1.0000
  Fe  Fe656     1.0  0.89397  0.64477  0.83140  1.0000
  S   S1310     1.0  0.89886  0.61953  0.84318  1.0000
  S   S1311     1.0  0.90755  0.66280  0.82880  1.0000
  Fe  Fe657     1.0  0.89277  0.61604  0.82256  1.0000
  S   S1312     1.0  0.90630  0.59734  0.80958  1.0000
  Fe  Fe658     1.0  0.87284  0.62373  0.85307  1.0000
  S   S1313     1.0  0.86166  0.61213  0.87713  1.0000
  S   S1314     1.0  0.88982  0.64098  0.80994  1.0000
  S   S1315     1.0  0.86831  0.64934  0.84277  1.0000
  C   C4903     1.0  0.81697  0.64162  0.79207  1.0000
  H   H5878     1.0  0.97314  0.66219  0.86955  1.0000
  C   C4904     1.0  0.72624  0.56287  0.97433  1.0000
  Fe  Fe659     1.0  0.51081  0.67309  0.87825  1.0000
  S   S1316     1.0  0.50998  0.65844  0.90233  1.0000
  S   S1317     1.0  0.53393  0.67976  0.86673  1.0000
  S   S1318     1.0  0.81733  0.61486  0.78387  1.0000
  C   C4905     1.0  0.70093  0.48942  0.96328  1.0000
  S   S1319     1.0  0.78042  0.60797  0.93468  1.0000
  H   H5879     1.0  0.64472  0.69486  0.89092  1.0000
  H   H5880     1.0  0.67822  0.65280  0.78168  1.0000
  Fe  Fe660     1.0  0.58392  0.54971  0.89595  1.0000
  S   S1320     1.0  0.60702  0.53609  0.88578  1.0000
  S   S1321     1.0  0.57480  0.54777  0.92145  1.0000
  Fe  Fe661     1.0  0.57653  0.56673  0.86510  1.0000
  S   S1322     1.0  0.59897  0.55443  0.85181  1.0000
  S   S1323     1.0  0.55970  0.58666  0.85363  1.0000
  Fe  Fe662     1.0  0.59437  0.53286  0.86960  1.0000
  S   S1324     1.0  0.60389  0.50933  0.86342  1.0000
  Fe  Fe663     1.0  0.61006  0.55835  0.86876  1.0000
  S   S1325     1.0  0.63336  0.56499  0.85934  1.0000
  S   S1326     1.0  0.57069  0.54475  0.88137  1.0000
  S   S1327     1.0  0.58807  0.57249  0.88058  1.0000
  Fe  Fe664     1.0  0.66643  0.57891  0.94243  1.0000
  C   C4906     1.0  0.64307  0.51870  0.86481  1.0000
  S   S1328     1.0  0.67790  0.59895  0.93780  1.0000
  Fe  Fe665     1.0  0.66509  0.54997  0.93384  1.0000
  H   H5881     1.0  0.56458  0.71986  0.83186  1.0000
  S   S1329     1.0  0.67956  0.53375  0.91832  1.0000
  Fe  Fe666     1.0  0.63515  0.57196  0.94478  1.0000
  S   S1330     1.0  0.61034  0.58397  0.94379  1.0000
  C   C4907     1.0  0.66153  0.70945  0.85377  1.0000
  S   S1331     1.0  0.65560  0.57534  0.92497  1.0000
  H   H5882     1.0  0.95018  0.60406  0.81039  1.0000
  H   H5883     1.0  0.63340  0.51197  0.92974  1.0000
  C   C4908     1.0  0.88071  0.61282  0.77650  1.0000
  C   C4909     1.0  0.50805  0.70980  0.91828  1.0000
  H   H5884     1.0  0.64665  0.53316  0.92647  1.0000
  C   C4910     1.0  0.58536  0.55623  0.92872  1.0000
  C   C4911     1.0  0.60131  0.55571  0.92235  1.0000
  C   C4912     1.0  0.60930  0.56358  0.92754  1.0000
  C   C4913     1.0  0.60118  0.57240  0.93867  1.0000
  C   C4914     1.0  0.58530  0.57282  0.94507  1.0000
  C   C4915     1.0  0.57747  0.56451  0.94030  1.0000
  H   H5885     1.0  0.60745  0.54932  0.91337  1.0000
  H   H5886     1.0  0.62158  0.56331  0.92250  1.0000
  H   H5887     1.0  0.57904  0.57958  0.95372  1.0000
  H   H5888     1.0  0.56515  0.56492  0.94522  1.0000
  H   H5889     1.0  0.98417  0.49467  0.79609  1.0000
  C   C4916     1.0  0.56768  0.49294  0.86117  1.0000
  C   C4917     1.0  0.57618  0.50259  0.86321  1.0000
  C   C4918     1.0  0.59254  0.49857  0.85992  1.0000
  H   H5890     1.0  0.84348  0.60747  0.79820  1.0000
  C   C4919     1.0  0.91905  0.63878  0.87787  1.0000
  H   H5891     1.0  0.55503  0.49597  0.86390  1.0000
  H   H5892     1.0  0.57009  0.51300  0.86750  1.0000
  H   H5893     1.0  0.96956  0.61644  0.78991  1.0000
  C   C4920     1.0  0.64592  0.51030  0.92533  1.0000
  C   C4921     1.0  0.52018  0.60947  0.88862  1.0000
  C   C4922     1.0  0.52149  0.61565  0.87270  1.0000
  C   C4923     1.0  0.53337  0.60830  0.86199  1.0000
  C   C4924     1.0  0.54423  0.59499  0.86717  1.0000
  C   C4925     1.0  0.54291  0.58878  0.88309  1.0000
  C   C4926     1.0  0.53077  0.59591  0.89379  1.0000
  C   C4927     1.0  0.61120  0.71710  0.85743  1.0000
  H   H5894     1.0  0.53418  0.61296  0.84968  1.0000
  H   H5895     1.0  0.55114  0.57839  0.88717  1.0000
  H   H5896     1.0  0.52968  0.59096  0.90610  1.0000
  H   H5897     1.0  0.71933  0.64211  0.91635  1.0000
  H   H5898     1.0  0.51840  0.71165  0.90937  1.0000
  C   C4928     1.0  0.89902  0.59927  0.79321  1.0000
  C   C4929     1.0  0.94264  0.61584  0.81082  1.0000
  H   H5899     1.0  0.84930  0.58987  0.78243  1.0000
  C   C4930     1.0  0.59294  0.50486  0.91646  1.0000
  H   H5900     1.0  0.71764  0.61385  0.80831  1.0000
  C   C4931     1.0  0.64583  0.48570  0.96811  1.0000
  C   C4932     1.0  0.97112  0.54346  0.80024  1.0000
  C   C4933     1.0  0.67826  0.50613  0.91388  1.0000
  H   H5901     1.0  0.88136  0.61985  0.79670  1.0000
  C   C4934     1.0  0.83681  0.64402  0.80368  1.0000
  C   C4935     1.0  0.84407  0.62845  0.80369  1.0000
  C   C4936     1.0  0.83769  0.61944  0.79814  1.0000
  C   C4937     1.0  0.60029  0.48510  0.85431  1.0000
  C   C4938     1.0  0.82313  0.65052  0.79802  1.0000
  H   H5902     1.0  0.85461  0.62330  0.80795  1.0000
  C   C4939     1.0  0.64397  0.49387  0.85136  1.0000
  H   H5903     1.0  0.81728  0.66249  0.79817  1.0000
  C   C4940     1.0  0.92700  0.66219  0.82909  1.0000
  C   C4941     1.0  0.93188  0.67622  0.82325  1.0000
  C   C4942     1.0  0.94701  0.67697  0.82297  1.0000
  C   C4943     1.0  0.95757  0.66377  0.82872  1.0000
  C   C4944     1.0  0.95282  0.64954  0.83479  1.0000
  C   C4945     1.0  0.93748  0.64874  0.83493  1.0000
  H   H5904     1.0  0.92390  0.68664  0.81878  1.0000
  H   H5905     1.0  0.95054  0.68797  0.81825  1.0000
  H   H5906     1.0  0.96092  0.63924  0.83924  1.0000
  H   H5907     1.0  0.93372  0.63788  0.83967  1.0000
  C   C4946     1.0  0.72034  0.63624  0.82795  1.0000
  C   C4947     1.0  0.73552  0.62950  0.82092  1.0000
  C   C4948     1.0  0.74334  0.63749  0.80684  1.0000
  C   C4949     1.0  0.73602  0.65224  0.79965  1.0000
  C   C4950     1.0  0.72087  0.65902  0.80674  1.0000
  C   C4951     1.0  0.71302  0.65104  0.82087  1.0000
  H   H5908     1.0  0.74127  0.61812  0.82644  1.0000
  H   H5909     1.0  0.78646  0.63059  0.81028  1.0000
  H   H5910     1.0  0.71514  0.67043  0.80124  1.0000
  H   H5911     1.0  0.70127  0.65628  0.82615  1.0000
  C   C4952     1.0  0.64099  0.59920  0.88248  1.0000
  C   C4953     1.0  0.63033  0.58974  0.89046  1.0000
  C   C4954     1.0  0.62790  0.57921  0.88341  1.0000
  C   C4955     1.0  0.63651  0.57779  0.86852  1.0000
  C   C4956     1.0  0.64765  0.58681  0.86078  1.0000
  C   C4957     1.0  0.64980  0.59764  0.86769  1.0000
  H   H5912     1.0  0.62394  0.59058  0.90213  1.0000
  H   H5913     1.0  0.61955  0.57201  0.88958  1.0000
  H   H5914     1.0  0.65436  0.58566  0.84927  1.0000
  H   H5915     1.0  0.65815  0.60482  0.86153  1.0000
  H   H5916     1.0  0.97223  0.50565  0.81031  1.0000
  H   H5917     1.0  0.83828  0.68253  0.78183  1.0000
  C   C4958     1.0  0.62229  0.70852  0.84716  1.0000
  C   C4959     1.0  0.62637  0.69227  0.85153  1.0000
  C   C4960     1.0  0.61839  0.68460  0.86562  1.0000
  C   C4961     1.0  0.60739  0.69315  0.87592  1.0000
  C   C4962     1.0  0.95922  0.64184  0.89069  1.0000
  H   H5918     1.0  0.71477  0.48351  0.92637  1.0000
  H   H5919     1.0  0.62085  0.67207  0.86871  1.0000
  H   H5920     1.0  0.60164  0.68717  0.88701  1.0000
  H   H5921     1.0  0.91572  0.62767  0.88101  1.0000
  C   C4963     1.0  0.54579  0.70475  0.86452  1.0000
  C   C4964     1.0  0.53289  0.69975  0.86385  1.0000
  C   C4965     1.0  0.51952  0.71076  0.86037  1.0000
  C   C4966     1.0  0.69157  0.51294  0.97390  1.0000
  H   H5922     1.0  0.50962  0.70700  0.85961  1.0000
  H   H5923     1.0  0.95160  0.63759  0.90200  1.0000
  C   C4967     1.0  0.81159  0.63623  0.89659  1.0000
  C   C4968     1.0  0.82149  0.64465  0.88482  1.0000
  C   C4969     1.0  0.83690  0.63736  0.87893  1.0000
  C   C4970     1.0  0.84258  0.62163  0.88488  1.0000
  C   C4971     1.0  0.83283  0.61329  0.89700  1.0000
  C   C4972     1.0  0.81732  0.62055  0.90279  1.0000
  H   H5924     1.0  0.81715  0.65681  0.88004  1.0000
  H   H5925     1.0  0.84437  0.64397  0.86984  1.0000
  H   H5926     1.0  0.83720  0.60113  0.90172  1.0000
  H   H5927     1.0  0.80976  0.61395  0.91183  1.0000
  C   C4973     1.0  0.73105  0.58937  0.93048  1.0000
  C   C4974     1.0  0.93219  0.64008  0.88199  1.0000
  C   C4975     1.0  0.70743  0.57972  0.93572  1.0000
  C   C4976     1.0  0.69842  0.59493  0.93440  1.0000
  C   C4977     1.0  0.70580  0.60731  0.93077  1.0000
  C   C4978     1.0  0.72202  0.60454  0.92902  1.0000
  C   C4979     1.0  0.64810  0.69639  0.87809  1.0000
  C   C4980     1.0  0.64709  0.72452  0.87309  1.0000
  H   H5928     1.0  0.69895  0.61912  0.92939  1.0000
  H   H5929     1.0  0.72757  0.61418  0.92641  1.0000
  C   C4981     1.0  0.70466  0.65778  0.93084  1.0000
  C   C4982     1.0  0.69011  0.66789  0.93394  1.0000
  C   C4983     1.0  0.67915  0.67036  0.92503  1.0000
  C   C4984     1.0  0.68256  0.66269  0.91295  1.0000
  C   C4985     1.0  0.69703  0.65236  0.90987  1.0000
  C   C4986     1.0  0.70812  0.64993  0.91883  1.0000
  H   H5930     1.0  0.68736  0.67399  0.94318  1.0000
  H   H5931     1.0  0.66801  0.67837  0.92745  1.0000
  H   H5932     1.0  0.69975  0.64638  0.90054  1.0000
  C   C4987     1.0  0.65343  0.52224  0.92362  1.0000
  N   N326      1.0  0.69628  0.58154  0.88904  1.0000
  C   C4988     1.0  0.69921  0.59238  0.87371  1.0000
  C   C4989     1.0  0.68610  0.57185  0.88820  1.0000
  C   C4990     1.0  0.68751  0.59063  0.90097  1.0000
  C   C4991     1.0  0.71131  0.57243  0.89316  1.0000
  C   C4992     1.0  0.72253  0.58015  0.89373  1.0000
  C   C4993     1.0  0.71495  0.55591  0.89742  1.0000
  C   C4994     1.0  0.73658  0.57188  0.89808  1.0000
  C   C4995     1.0  0.72904  0.54775  0.90179  1.0000
  C   C4996     1.0  0.73982  0.55571  0.90212  1.0000
  H   H5933     1.0  0.70654  0.58605  0.86456  1.0000
  H   H5934     1.0  0.68812  0.59900  0.87001  1.0000
  H   H5935     1.0  0.70532  0.60126  0.87370  1.0000
  H   H5936     1.0  0.69199  0.56461  0.87945  1.0000
  H   H5937     1.0  0.67499  0.57909  0.88490  1.0000
  H   H5938     1.0  0.68254  0.56409  0.89962  1.0000
  H   H5939     1.0  0.69362  0.59938  0.90131  1.0000
  H   H5940     1.0  0.67565  0.59700  0.89902  1.0000
  H   H5941     1.0  0.68606  0.58287  0.91273  1.0000
  H   H5942     1.0  0.72038  0.59270  0.89117  1.0000
  H   H5943     1.0  0.70701  0.54900  0.89770  1.0000
  H   H5944     1.0  0.74480  0.57808  0.89878  1.0000
  H   H5945     1.0  0.73152  0.53517  0.90511  1.0000
  H   H5946     1.0  0.75063  0.54938  0.90574  1.0000
  C   C4997     1.0  0.94018  0.62087  0.78436  1.0000
  C   C4998     1.0  0.97551  0.50571  0.79770  1.0000
  C   C4999     1.0  0.94677  0.56117  0.79571  1.0000
  N   N327      1.0  0.57440  0.61001  0.90605  1.0000
  C   C5000     1.0  0.56408  0.60695  0.89784  1.0000
  C   C5001     1.0  0.58875  0.59741  0.90514  1.0000
  C   C5002     1.0  0.56646  0.60884  0.92262  1.0000
  C   C5003     1.0  0.57767  0.62574  0.89934  1.0000
  C   C5004     1.0  0.56521  0.63897  0.89740  1.0000
  C   C5005     1.0  0.59304  0.62854  0.89527  1.0000
  C   C5006     1.0  0.56799  0.65395  0.89116  1.0000
  C   C5007     1.0  0.59567  0.64359  0.88929  1.0000
  C   C5008     1.0  0.58319  0.65625  0.88710  1.0000
  H   H5947     1.0  0.56935  0.60824  0.88524  1.0000
  H   H5948     1.0  0.56212  0.59487  0.90230  1.0000
  H   H5949     1.0  0.55220  0.61462  0.89937  1.0000
  H   H5950     1.0  0.59565  0.59804  0.89300  1.0000
  H   H5951     1.0  0.58594  0.58572  0.90929  1.0000
  H   H5952     1.0  0.59632  0.59767  0.91262  1.0000
  H   H5953     1.0  0.55521  0.61755  0.92420  1.0000
  H   H5954     1.0  0.56370  0.59717  0.92807  1.0000
  H   H5955     1.0  0.57398  0.61061  0.92936  1.0000
  H   H5956     1.0  0.55315  0.63790  0.90085  1.0000
  H   H5957     1.0  0.60329  0.61930  0.89657  1.0000
  H   H5958     1.0  0.55825  0.66386  0.88959  1.0000
  H   H5959     1.0  0.60751  0.64540  0.88623  1.0000
  H   H5960     1.0  0.58529  0.66789  0.88235  1.0000
  H   H5961     1.0  0.65187  0.52065  0.85372  1.0000
  C   C5009     1.0  0.64932  0.49994  0.96689  1.0000
  C   C5010     1.0  0.88655  0.61148  0.78950  1.0000
  C   C5011     1.0  0.72374  0.57695  0.93371  1.0000
  H   H5962     1.0  0.93033  0.61437  0.81502  1.0000
  H   H5963     1.0  0.80645  0.64680  0.78776  1.0000
  C   C5012     1.0  0.60516  0.49253  0.92029  1.0000
  H   H5964     1.0  0.60879  0.72966  0.85438  1.0000
  H   H5965     1.0  0.70191  0.57008  0.93834  1.0000
  H   H5966     1.0  0.96106  0.56436  0.80902  1.0000
  H   H5967     1.0  0.68681  0.62799  0.95394  1.0000
  C   C5013     1.0  0.78482  0.63595  0.81990  1.0000
  C   C5014     1.0  0.91456  0.66590  0.86514  1.0000
  S   S1332     1.0  0.64500  0.57788  0.96147  1.0000
  N   N328      1.0  0.95086  0.65633  0.88165  1.0000
  H   H5968     1.0  0.65537  0.68505  0.87573  1.0000
  H   H5969     1.0  0.74216  0.61410  0.79237  1.0000
  H   H5970     1.0  0.65121  0.71311  0.84837  1.0000
  S   S1333     1.0  0.74550  0.66240  0.78182  1.0000
  H   H5971     1.0  0.50412  0.69249  0.90899  1.0000
  H   H5972     1.0  0.98091  0.54108  0.80558  1.0000
  N   N329      1.0  0.65661  0.70910  0.87065  1.0000
  C   C5015     1.0  0.82426  0.62604  0.79208  1.0000
  H   H5973     1.0  0.95635  0.66960  0.89459  1.0000
  Fe  Fe667     1.0  0.65513  0.55235  0.96740  1.0000
  H   H5974     1.0  0.70084  0.59515  0.96587  1.0000
  C   C5016     1.0  0.68397  0.63964  0.80340  1.0000
  H   H5975     1.0  0.80673  0.62332  0.82485  1.0000
  C   C5017     1.0  0.67075  0.70507  0.87715  1.0000
  H   H5976     1.0  0.61082  0.72840  0.81599  1.0000
  H   H5977     1.0  0.64752  0.50938  0.95693  1.0000
  C   C5018     1.0  0.68691  0.64409  0.78727  1.0000
  H   H5978     1.0  0.55614  0.69630  0.86726  1.0000
  H   H5979     1.0  0.64259  0.52760  0.87111  1.0000
  H   H5980     1.0  0.67859  0.71330  0.87137  1.0000
  N   N330      1.0  0.63434  0.62924  0.93100  1.0000
  C   C5019     1.0  0.64954  0.62676  0.91973  1.0000
  C   C5020     1.0  0.63741  0.62601  0.94672  1.0000
  C   C5021     1.0  0.62577  0.61764  0.93110  1.0000
  C   C5022     1.0  0.62577  0.64555  0.92675  1.0000
  C   C5023     1.0  0.61077  0.64967  0.92311  1.0000
  C   C5024     1.0  0.63273  0.65793  0.92558  1.0000
  C   C5025     1.0  0.60341  0.66526  0.91845  1.0000
  C   C5026     1.0  0.62532  0.67344  0.92085  1.0000
  C   C5027     1.0  0.61069  0.67711  0.91726  1.0000
  H   H5981     1.0  0.65813  0.63244  0.92121  1.0000
  H   H5982     1.0  0.65521  0.61423  0.92064  1.0000
  H   H5983     1.0  0.64794  0.63144  0.90768  1.0000
  H   H5984     1.0  0.64485  0.63341  0.94736  1.0000
  H   H5985     1.0  0.64380  0.61375  0.95019  1.0000
  H   H5986     1.0  0.62630  0.62796  0.95554  1.0000
  H   H5987     1.0  0.62338  0.61907  0.91953  1.0000
  H   H5988     1.0  0.63264  0.60552  0.93400  1.0000
  H   H5989     1.0  0.61454  0.61825  0.93990  1.0000
  H   H5990     1.0  0.60454  0.64109  0.92362  1.0000
  H   H5991     1.0  0.64421  0.65566  0.92796  1.0000
  H   H5992     1.0  0.59202  0.66819  0.91560  1.0000
  H   H5993     1.0  0.63111  0.68262  0.91976  1.0000
  H   H5994     1.0  0.60501  0.68917  0.91344  1.0000
  N   N331      1.0  0.94475  0.62675  0.79548  1.0000
  C   C5028     1.0  0.93540  0.64242  0.79752  1.0000
  C   C5029     1.0  0.71285  0.62637  0.78534  1.0000
  C   C5030     1.0  0.96141  0.62791  0.79012  1.0000
  H   H5995     1.0  0.66752  0.70488  0.88979  1.0000
  H   H5996     1.0  0.66493  0.48988  0.88710  1.0000
  H   H5997     1.0  0.91542  0.57914  0.78646  1.0000
  H   H5998     1.0  0.63719  0.48943  0.89641  1.0000
  H   H5999     1.0  0.66177  0.51034  0.88375  1.0000
  H   H6000     1.0  0.72369  0.49009  0.93773  1.0000
  H   H6001     1.0  0.69447  0.63852  0.96222  1.0000
  C   C5031     1.0  0.67080  0.49411  0.91583  1.0000
  H   H6002     1.0  0.93573  0.65101  0.78623  1.0000
  H   H6003     1.0  0.68069  0.49497  0.94512  1.0000
  H   H6004     1.0  0.75515  0.63236  0.80178  1.0000
  C   C5032     1.0  0.77969  0.54931  0.97471  1.0000
  H   H6005     1.0  0.61267  0.49379  0.92692  1.0000
  H   H6006     1.0  0.96497  0.63291  0.79796  1.0000
  H   H6007     1.0  0.83345  0.52281  0.77911  1.0000
  C   C5033     1.0  0.94916  0.60693  0.77970  1.0000
  C   C5034     1.0  0.71227  0.48967  0.93596  1.0000
  N   N332      1.0  0.64701  0.50261  0.87412  1.0000
  C   C5035     1.0  0.90572  0.58852  0.78375  1.0000
  H   H6008     1.0  0.62312  0.50231  0.88585  1.0000
  H   H6009     1.0  0.64148  0.48485  0.95868  1.0000
  N   N333      1.0  0.85317  0.56770  0.79841  1.0000
  C   C5036     1.0  0.86506  0.55284  0.79924  1.0000
  C   C5037     1.0  0.83813  0.56436  0.79856  1.0000
  C   C5038     1.0  0.85771  0.57841  0.78337  1.0000
  C   C5039     1.0  0.85247  0.57458  0.81138  1.0000
  C   C5040     1.0  0.83884  0.57702  0.82333  1.0000
  C   C5041     1.0  0.86603  0.57829  0.81276  1.0000
  C   C5042     1.0  0.83906  0.58230  0.83609  1.0000
  C   C5043     1.0  0.86611  0.58354  0.82556  1.0000
  C   C5044     1.0  0.85269  0.58544  0.83726  1.0000
  H   H6010     1.0  0.86237  0.54469  0.81064  1.0000
  H   H6011     1.0  0.96483  0.50544  0.79430  1.0000
  H   H6012     1.0  0.87705  0.55454  0.79760  1.0000
  H   H6013     1.0  0.83426  0.55579  0.80924  1.0000
  C   C5045     1.0  0.69012  0.60144  0.97278  1.0000
  H   H6014     1.0  0.82877  0.57520  0.79752  1.0000
  H   H6015     1.0  0.86945  0.58061  0.78168  1.0000
  S   S1334     1.0  0.74370  0.61505  0.95299  1.0000
  C   C5046     1.0  0.73903  0.60857  0.78469  1.0000
  H   H6016     1.0  0.82790  0.57481  0.82316  1.0000
  H   H6017     1.0  0.87681  0.57694  0.80407  1.0000
  H   H6018     1.0  0.82865  0.58376  0.84525  1.0000
  H   H6019     1.0  0.87675  0.58602  0.82641  1.0000
  H   H6020     1.0  0.85291  0.58934  0.84727  1.0000
  N   N334      1.0  0.56367  0.63984  0.84740  1.0000
  C   C5047     1.0  0.55179  0.63695  0.86198  1.0000
  C   C5048     1.0  0.56096  0.65690  0.84104  1.0000
  C   C5049     1.0  0.56109  0.63275  0.83592  1.0000
  C   C5050     1.0  0.57949  0.63289  0.85065  1.0000
  C   C5051     1.0  0.58957  0.64203  0.85106  1.0000
  C   C5052     1.0  0.58511  0.61649  0.85397  1.0000
  C   C5053     1.0  0.60451  0.63514  0.85396  1.0000
  C   C5054     1.0  0.60011  0.60975  0.85678  1.0000
  C   C5055     1.0  0.60977  0.61906  0.85675  1.0000
  H   H6021     1.0  0.55296  0.64255  0.87073  1.0000
  H   H6022     1.0  0.53967  0.64180  0.86006  1.0000
  H   H6023     1.0  0.55279  0.62433  0.86715  1.0000
  H   H6024     1.0  0.54915  0.66177  0.83829  1.0000
  H   H6025     1.0  0.56978  0.65990  0.83022  1.0000
  H   H6026     1.0  0.56115  0.66329  0.84958  1.0000
  H   H6027     1.0  0.56051  0.62033  0.84054  1.0000
  H   H6028     1.0  0.54976  0.63859  0.83239  1.0000
  H   H6029     1.0  0.57061  0.63341  0.82527  1.0000
  H   H6030     1.0  0.58625  0.65453  0.84912  1.0000
  H   H6031     1.0  0.57802  0.60867  0.85439  1.0000
  H   H6032     1.0  0.60439  0.59723  0.85880  1.0000
  H   H6033     1.0  0.62140  0.61380  0.85884  1.0000
  C   C5056     1.0  0.66967  0.51998  0.91832  1.0000
  S   S1335     1.0  0.97639  0.66625  0.82768  1.0000
  H   H6034     1.0  0.93808  0.57174  0.79732  1.0000
  H   H6035     1.0  0.73420  0.59832  0.79185  1.0000
  H   H6036     1.0  0.94127  0.68002  0.88437  1.0000
  S   S1336     1.0  0.50071  0.65791  0.87010  1.0000
  H   H6037     1.0  0.55528  0.72442  0.86243  1.0000
  H   H6038     1.0  0.94560  0.61992  0.81971  1.0000
  H   H6039     1.0  0.67791  0.69328  0.87587  1.0000
  H   H6040     1.0  0.90796  0.67573  0.85815  1.0000
  Fe  Fe668     1.0  0.49826  0.64437  0.89479  1.0000
  H   H6041     1.0  0.86568  0.54686  0.79010  1.0000
  C   C5057     1.0  0.60407  0.70941  0.87201  1.0000
  H   H6042     1.0  0.96531  0.65293  0.85959  1.0000
  C   C5058     1.0  0.93692  0.65448  0.87770  1.0000
  H   H6043     1.0  0.63944  0.50558  0.84552  1.0000
  C   C5059     1.0  0.92771  0.66733  0.86910  1.0000
  H   H6044     1.0  0.69047  0.51259  0.95124  1.0000
  H   H6045     1.0  0.96371  0.63246  0.88407  1.0000
  H   H6046     1.0  0.69291  0.62527  0.82320  1.0000
  S   S1337     1.0  0.64356  0.54614  0.95228  1.0000
  H   H6047     1.0  0.95743  0.67286  0.86021  1.0000
  H   H6048     1.0  0.90033  0.65053  0.86593  1.0000
  H   H6049     1.0  0.70612  0.50177  0.93159  1.0000
  H   H6050     1.0  0.95413  0.53112  0.77852  1.0000
  H   H6051     1.0  0.93078  0.67854  0.86505  1.0000
  C   C5060     1.0  0.58590  0.48960  0.90295  1.0000
  H   H6052     1.0  0.57819  0.48943  0.89605  1.0000
  H   H6053     1.0  0.91854  0.63851  0.78178  1.0000
  H   H6054     1.0  0.93992  0.64707  0.80489  1.0000
  H   H6055     1.0  0.61291  0.48198  0.85160  1.0000
  H   H6056     1.0  0.70737  0.62305  0.95351  1.0000
  H   H6057     1.0  0.93717  0.66535  0.90163  1.0000
  H   H6058     1.0  0.62834  0.71450  0.83621  1.0000
  H   H6059     1.0  0.93493  0.55495  0.78193  1.0000
  C   C5061     1.0  0.95625  0.53812  0.78506  1.0000
  H   H6060     1.0  0.93851  0.62959  0.88835  1.0000
  C   C5062     1.0  0.94618  0.66835  0.89096  1.0000
  C   C5063     1.0  0.58840  0.72242  0.82446  1.0000
  C   C5064     1.0  0.96214  0.66133  0.86719  1.0000
  H   H6061     1.0  0.97844  0.60965  0.82013  1.0000
  Fe  Fe669     1.0  0.76639  0.61806  0.95531  1.0000
  H   H6062     1.0  0.67309  0.64489  0.81034  1.0000
  C   C5065     1.0  0.92649  0.62828  0.77839  1.0000
  N   N335      1.0  0.80686  0.63521  0.84998  1.0000
  C   C5066     1.0  0.81251  0.64943  0.84803  1.0000
  C   C5067     1.0  0.80005  0.62960  0.86663  1.0000
  C   C5068     1.0  0.82069  0.62302  0.84530  1.0000
  C   C5069     1.0  0.79474  0.63894  0.84087  1.0000
  C   C5070     1.0  0.79643  0.63185  0.82843  1.0000
  C   C5071     1.0  0.78072  0.65016  0.84428  1.0000
  C   C5072     1.0  0.76919  0.65416  0.83568  1.0000
  C   C5073     1.0  0.77128  0.64714  0.82345  1.0000
  H   H6063     1.0  0.80344  0.65838  0.85353  1.0000
  H   H6064     1.0  0.82277  0.64690  0.85331  1.0000
  H   H6065     1.0  0.81628  0.65480  0.83551  1.0000
  H   H6066     1.0  0.79145  0.63895  0.87197  1.0000
  H   H6067     1.0  0.80917  0.62497  0.87361  1.0000
  H   H6068     1.0  0.79401  0.62010  0.86834  1.0000
  H   H6069     1.0  0.82686  0.62680  0.83313  1.0000
  H   H6070     1.0  0.82951  0.62047  0.85248  1.0000
  H   H6071     1.0  0.81732  0.61192  0.84667  1.0000
  H   H6072     1.0  0.77865  0.65599  0.85360  1.0000
  H   H6073     1.0  0.75859  0.66281  0.83845  1.0000
  H   H6074     1.0  0.76242  0.65048  0.81666  1.0000
  H   H6075     1.0  0.66944  0.71751  0.84746  1.0000
  S   S1338     1.0  0.75137  0.58595  0.92852  1.0000
  C   C5074     1.0  0.65469  0.49608  0.92187  1.0000
  C   C5075     1.0  0.50265  0.71831  0.92991  1.0000
  N   N336      1.0  0.98187  0.51950  0.78852  1.0000
  C   C5076     1.0  0.64506  0.48205  0.84406  1.0000
  H   H6076     1.0  0.61211  0.64230  0.85402  1.0000
  H   H6077     1.0  0.68080  0.60467  0.96610  1.0000
  H   H6078     1.0  0.73068  0.56518  0.93483  1.0000
  H   H6079     1.0  0.63133  0.52137  0.86208  1.0000
  H   H6080     1.0  0.63341  0.50978  0.89523  1.0000
  H   H6081     1.0  0.66791  0.69781  0.85143  1.0000
  S   S1339     1.0  0.50522  0.61835  0.90220  1.0000
  H   H6082     1.0  0.69078  0.50443  0.90954  1.0000
  S   S1340     1.0  0.67751  0.55384  0.94975  1.0000
  H   H6083     1.0  0.59092  0.51561  0.92014  1.0000
  C   C5077     1.0  0.64820  0.49045  0.86591  1.0000
  C   C5078     1.0  0.63466  0.50098  0.88851  1.0000
  H   H6084     1.0  0.62532  0.71738  0.88695  1.0000
  H   H6085     1.0  0.83921  0.55917  0.78861  1.0000
  C   C5079     1.0  0.70108  0.63753  0.77834  1.0000
  S   S1341     1.0  0.59223  0.71981  0.88606  1.0000
  C   C5080     1.0  0.69556  0.62663  0.96082  1.0000
  C   C5081     1.0  0.96991  0.53377  0.79118  1.0000
  H   H6086     1.0  0.57405  0.51315  0.90459  1.0000
  H   H6087     1.0  0.67190  0.50074  0.86800  1.0000
  C   C5082     1.0  0.98931  0.60131  0.82135  1.0000
  H   H6088     1.0  0.59316  0.71049  0.82971  1.0000
  H   H6089     1.0  0.96966  0.64362  0.89341  1.0000
  C   C5083     1.0  0.58341  0.50343  0.90773  1.0000
  C   C5084     1.0  0.53456  0.72329  0.97184  1.0000
  H   H6090     1.0  0.63749  0.69847  0.87359  1.0000
  H   H6091     1.0  0.51316  0.62587  0.86860  1.0000
  C   C5085     1.0  0.69413  0.50557  0.96176  1.0000
  C   C5086     1.0  0.63128  0.72681  0.88154  1.0000
  C   C5087     1.0  0.57233  0.72772  0.82568  1.0000
  C   C5088     1.0  0.95973  0.55697  0.80234  1.0000
  C   C5089     1.0  0.70942  0.62203  0.80183  1.0000
  S   S1342     1.0  0.98170  0.58592  0.80408  1.0000
  H   H6092     1.0  0.77862  0.54575  0.96450  1.0000
  C   C5090     1.0  0.49997  0.69896  0.91805  1.0000
  C   C5091     1.0  0.69515  0.62856  0.81063  1.0000
  H   H6093     1.0  0.68614  0.52520  0.97264  1.0000
  H   H6094     1.0  0.76902  0.57418  0.95397  1.0000
  H   H6095     1.0  0.79143  0.55207  0.97198  1.0000
  C   C5092     1.0  0.76946  0.57627  0.96517  1.0000
  C   C5093     1.0  0.94502  0.55173  0.78712  1.0000
  H   H6096     1.0  0.78103  0.57904  0.96349  1.0000
  C   C5094     1.0  0.51921  0.72670  0.85720  1.0000
  H   H6097     1.0  0.64159  0.48495  0.83307  1.0000
  H   H6098     1.0  0.77365  0.64087  0.97046  1.0000
  H   H6099     1.0  0.71801  0.56926  0.96704  1.0000
  H   H6100     1.0  0.53374  0.71765  0.95096  1.0000
  C   C5095     1.0  0.74043  0.56721  0.97170  1.0000
  H   H6101     1.0  0.95930  0.60025  0.78427  1.0000
  H   H6102     1.0  0.76062  0.58693  0.96746  1.0000
  H   H6103     1.0  0.96361  0.63530  0.77821  1.0000
  N   N337      1.0  0.70293  0.48176  0.95049  1.0000
  C   C5096     1.0  0.68735  0.48278  0.94791  1.0000
  H   H6104     1.0  0.67762  0.48321  0.91297  1.0000
  C   C5097     1.0  0.53704  0.72540  0.95582  1.0000
  H   H6105     1.0  0.75024  0.60400  0.77700  1.0000
  N   N338      1.0  0.72787  0.61985  0.77559  1.0000
  S   S1343     1.0  0.77575  0.62340  0.77556  1.0000
  H   H6106     1.0  0.54756  0.83084  0.03927  1.0000
  Fe  Fe670     1.0  0.55188  0.86486  0.10037  1.0000
  S   S1344     1.0  0.52818  0.88013  0.10647  1.0000
  S   S1345     1.0  0.56166  0.85337  0.12173  1.0000
  Fe  Fe671     1.0  0.55265  0.87520  0.06581  1.0000
  S   S1346     1.0  0.52918  0.89137  0.06956  1.0000
  S   S1347     1.0  0.56419  0.87671  0.04043  1.0000
  Fe  Fe672     1.0  0.53750  0.89819  0.08684  1.0000
  S   S1348     1.0  0.53154  0.92311  0.08921  1.0000
  Fe  Fe673     1.0  0.52222  0.87173  0.08873  1.0000
  S   S1349     1.0  0.55390  0.98019  0.16751  1.0000
  S   S1350     1.0  0.56168  0.88356  0.08174  1.0000
  S   S1351     1.0  0.54527  0.85486  0.08406  1.0000
  Fe  Fe674     1.0  0.56722  0.95843  0.13416  1.0000
  S   S1352     1.0  0.58425  0.96507  0.14341  1.0000
  S   S1353     1.0  0.57723  0.94425  0.11576  1.0000
  H   H6107     1.0  0.51198  0.86608  0.05848  1.0000
  H   H6108     1.0  0.52038  0.88307  0.03307  1.0000
  H   H6109     1.0  0.49927  0.83425  0.01492  1.0000
  C   C5098     1.0  0.52589  0.83476  0.12620  1.0000
  Fe  Fe675     1.0  0.57880  0.76895  0.15887  1.0000
  Fe  Fe676     1.0  0.56948  0.95672  0.16677  1.0000
  H   H6110     1.0  0.53221  0.84319  0.12604  1.0000
  H   H6111     1.0  0.53357  0.78437  0.14760  1.0000
  S   S1354     1.0  0.55367  0.94852  0.15763  1.0000
  H   H6112     1.0  0.50619  0.84138  0.05989  1.0000
  H   H6113     1.0  0.53327  0.90617  0.12763  1.0000
  H   H6114     1.0  0.56174  0.90815  0.02349  1.0000
  C   C5099     1.0  0.51835  0.86800  0.01992  1.0000
  C   C5100     1.0  0.50982  0.83915  0.12720  1.0000
  Fe  Fe677     1.0  0.53930  0.97289  0.15626  1.0000
  Fe  Fe678     1.0  0.49490  0.75761  0.97558  1.0000
  C   C5101     1.0  0.50936  0.84858  0.04855  1.0000
  N   N339      1.0  0.53511  0.79258  0.12306  1.0000
  C   C5102     1.0  0.56061  0.89479  0.14972  1.0000
  C   C5103     1.0  0.49445  0.81949  0.09136  1.0000
  C   C5104     1.0  0.56879  0.88802  0.17447  1.0000
  H   H6115     1.0  0.49440  0.74799  0.13638  1.0000
  C   C5105     1.0  0.59971  0.85792  0.16990  1.0000
  C   C5106     1.0  0.56925  0.90663  0.14474  1.0000
  H   H6116     1.0  0.54519  0.94233  0.05976  1.0000
  H   H6117     1.0  0.56540  0.95524  0.02011  1.0000
  H   H6118     1.0  0.51950  0.78754  0.11223  1.0000
  N   N340      1.0  0.55191  0.89273  0.13934  1.0000
  H   H6119     1.0  0.49652  0.78584  0.98361  1.0000
  H   H6120     1.0  0.52240  0.87530  0.00881  1.0000
  H   H6121     1.0  0.55666  0.88825  0.11648  1.0000
  S   S1355     1.0  0.53153  0.75136  0.16455  1.0000
  C   C5107     1.0  0.51496  0.85389  0.02051  1.0000
  S   S1356     1.0  0.50443  0.75285  0.99661  1.0000
  H   H6122     1.0  0.53121  0.93564  0.03595  1.0000
  C   C5108     1.0  0.54251  0.78483  0.13648  1.0000
  H   H6123     1.0  0.55122  0.79090  0.13708  1.0000
  H   H6124     1.0  0.57393  0.80207  0.15516  1.0000
  H   H6125     1.0  0.58394  0.93433  0.98103  1.0000
  H   H6126     1.0  0.51860  0.94778  0.16764  1.0000
  H   H6127     1.0  0.53173  0.92579  0.05575  1.0000
  H   H6128     1.0  0.55654  0.79945  0.10915  1.0000
  C   C5109     1.0  0.52871  0.73247  0.16766  1.0000
  H   H6129     1.0  0.53934  0.91514  0.04082  1.0000
  H   H6130     1.0  0.55001  0.76215  0.99613  1.0000
  C   C5110     1.0  0.50908  0.82239  0.08992  1.0000
  H   H6131     1.0  0.50264  0.80548  0.12616  1.0000
  C   C5111     1.0  0.51047  0.84365  0.03492  1.0000
  C   C5112     1.0  0.57297  0.92003  0.00173  1.0000
  H   H6132     1.0  0.51985  0.82498  0.01308  1.0000
  C   C5113     1.0  0.53853  0.73343  0.97817  1.0000
  H   H6133     1.0  0.57882  0.95662  0.99316  1.0000
  H   H6134     1.0  0.58526  0.83245  0.15981  1.0000
  H   H6135     1.0  0.56456  0.90546  0.04809  1.0000
  C   C5114     1.0  0.52536  0.78246  0.12222  1.0000
  C   C5115     1.0  0.57737  0.90904  0.15433  1.0000
  C   C5116     1.0  0.57717  0.89974  0.16916  1.0000
  H   H6136     1.0  0.55413  0.78188  0.10665  1.0000
  N   N341      1.0  0.50754  0.82826  0.03608  1.0000
  C   C5117     1.0  0.54662  0.75357  0.99196  1.0000
  C   C5118     1.0  0.56893  0.83323  0.12500  1.0000
  C   C5119     1.0  0.56834  0.82469  0.14030  1.0000
  C   C5120     1.0  0.57439  0.80860  0.14332  1.0000
  C   C5121     1.0  0.58128  0.80106  0.13103  1.0000
  C   C5122     1.0  0.58192  0.80962  0.11571  1.0000
  C   C5123     1.0  0.57558  0.82570  0.11268  1.0000
  H   H6137     1.0  0.56304  0.83047  0.14984  1.0000
  C   C5124     1.0  0.56718  0.94515  0.01552  1.0000
  H   H6138     1.0  0.58729  0.80380  0.10618  1.0000
  H   H6139     1.0  0.57613  0.83229  0.10085  1.0000
  C   C5125     1.0  0.54440  0.92938  0.09602  1.0000
  C   C5126     1.0  0.56032  0.92235  0.09377  1.0000
  C   C5127     1.0  0.57035  0.92749  0.09936  1.0000
  C   C5128     1.0  0.56446  0.93931  0.10769  1.0000
  C   C5129     1.0  0.54854  0.94643  0.10987  1.0000
  C   C5130     1.0  0.53859  0.94164  0.10381  1.0000
  H   H6140     1.0  0.56497  0.91298  0.08772  1.0000
  H   H6141     1.0  0.58268  0.92201  0.09758  1.0000
  H   H6142     1.0  0.54392  0.95561  0.11622  1.0000
  H   H6143     1.0  0.52628  0.94720  0.10549  1.0000
  H   H6144     1.0  0.58364  0.91838  0.15027  1.0000
  C   C5131     1.0  0.51040  0.83726  0.08976  1.0000
  H   H6145     1.0  0.51938  0.81308  0.08914  1.0000
  S   S1357     1.0  0.57515  0.74512  0.16184  1.0000
  H   H6146     1.0  0.53248  0.77074  0.12074  1.0000
  C   C5132     1.0  0.54359  0.87978  0.14614  1.0000
  H   H6147     1.0  0.52165  0.83926  0.08907  1.0000
  H   H6148     1.0  0.51939  0.81681  0.05496  1.0000
  S   S1358     1.0  0.55058  0.83134  0.00736  1.0000
  C   C5133     1.0  0.55455  0.84418  0.01615  1.0000
  C   C5134     1.0  0.56017  0.85741  0.00740  1.0000
  C   C5135     1.0  0.56315  0.86733  0.01493  1.0000
  C   C5136     1.0  0.56025  0.86423  0.03120  1.0000
  C   C5137     1.0  0.55446  0.85111  0.03990  1.0000
  C   C5138     1.0  0.55180  0.84106  0.03240  1.0000
  H   H6149     1.0  0.56239  0.85989  0.99487  1.0000
  H   H6150     1.0  0.56771  0.87742  0.00812  1.0000
  H   H6151     1.0  0.55225  0.84856  0.05241  1.0000
  C   C5139     1.0  0.56518  0.91896  0.01727  1.0000
  C   C5140     1.0  0.59884  0.86509  0.14270  1.0000
  C   C5141     1.0  0.56204  0.93147  0.02468  1.0000
  C   C5142     1.0  0.55138  0.94398  0.04729  1.0000
  C   C5143     1.0  0.59000  0.84218  0.15921  1.0000
  C   C5144     1.0  0.57784  0.93358  0.99307  1.0000
  H   H6152     1.0  0.57173  0.87849  0.12706  1.0000
  C   C5145     1.0  0.57495  0.94611  0.99994  1.0000
  C   C5146     1.0  0.56335  0.91685  0.05080  1.0000
  H   H6153     1.0  0.55190  0.86843  0.14888  1.0000
  H   H6154     1.0  0.60706  0.87799  0.15374  1.0000
  H   H6155     1.0  0.53412  0.75388  0.99770  1.0000
  C   C5147     1.0  0.56288  0.88948  0.12475  1.0000
  C   C5148     1.0  0.53841  0.92648  0.04349  1.0000
  H   H6156     1.0  0.54891  0.77266  0.13601  1.0000
  H   H6157     1.0  0.56264  0.94680  0.04671  1.0000
  H   H6158     1.0  0.54397  0.95420  0.04093  1.0000
  H   H6159     1.0  0.53145  0.81634  0.03589  1.0000
  H   H6160     1.0  0.57535  0.91861  0.04902  1.0000
  N   N342      1.0  0.55395  0.92987  0.04124  1.0000
  H   H6161     1.0  0.52386  0.73640  0.14510  1.0000
  C   C5149     1.0  0.54761  0.79360  0.10869  1.0000
  C   C5150     1.0  0.52613  0.80837  0.12485  1.0000
  C   C5151     1.0  0.53393  0.81959  0.12515  1.0000
  H   H6162     1.0  0.54266  0.80021  0.09837  1.0000
  H   H6163     1.0  0.51659  0.85100  0.00950  1.0000
  H   H6164     1.0  0.58992  0.85005  0.13483  1.0000
  H   H6165     1.0  0.54637  0.81673  0.12446  1.0000
  H   H6166     1.0  0.56931  0.89879  0.11854  1.0000
  H   H6167     1.0  0.54543  0.91730  0.12951  1.0000
  C   C5152     1.0  0.51268  0.86273  0.04786  1.0000
  C   C5153     1.0  0.56065  0.88546  0.16494  1.0000
  H   H6168     1.0  0.56966  0.91432  0.13341  1.0000
  C   C5154     1.0  0.54005  0.90717  0.13553  1.0000
  H   H6169     1.0  0.55784  0.91566  0.06336  1.0000
  H   H6170     1.0  0.51762  0.80408  0.04434  1.0000
  H   H6171     1.0  0.50530  0.81385  0.02220  1.0000
  H   H6172     1.0  0.53744  0.87844  0.13786  1.0000
  H   H6173     1.0  0.51632  0.78042  0.13313  1.0000
  H   H6174     1.0  0.57531  0.91021  0.99644  1.0000
  C   C5155     1.0  0.50964  0.81310  0.12636  1.0000
  S   S1359     1.0  0.58887  0.78093  0.13471  1.0000
  C   C5156     1.0  0.50802  0.82529  0.02087  1.0000
  H   H6175     1.0  0.53165  0.91016  0.14619  1.0000
  C   C5157     1.0  0.49706  0.84926  0.09110  1.0000
  S   S1360     1.0  0.49820  0.86770  0.09207  1.0000
  C   C5158     1.0  0.59264  0.85228  0.14467  1.0000
  C   C5159     1.0  0.51729  0.87237  0.03356  1.0000
  C   C5160     1.0  0.51950  0.81585  0.04315  1.0000
  H   H6176     1.0  0.60092  0.87286  0.13140  1.0000
  C   C5161     1.0  0.49333  0.78388  0.99614  1.0000
  Fe  Fe679     1.0  0.55217  0.83606  0.98152  1.0000
  C   C5162     1.0  0.59356  0.84466  0.17230  1.0000
  C   C5163     1.0  0.60236  0.86791  0.15529  1.0000
  S   S1361     1.0  0.51380  0.98063  0.16588  1.0000
  H   H6177     1.0  0.53456  0.88176  0.15679  1.0000
  C   C5164     1.0  0.49648  0.76881  0.00522  1.0000
  H   H6178     1.0  0.55371  0.74192  0.99624  1.0000
  H   H6179     1.0  0.55442  0.87622  0.16982  1.0000
  C   C5165     1.0  0.50169  0.82829  0.12749  1.0000
  H   H6180     1.0  0.50368  0.85106  0.12746  1.0000
  S   S1362     1.0  0.55406  0.77843  0.16967  1.0000
  H   H6181     1.0  0.61648  0.73475  0.17148  1.0000
  H   H6182     1.0  0.49520  0.75475  0.02836  1.0000
  Fe  Fe680     1.0  0.55074  0.75423  0.17394  1.0000
  C   C5166     1.0  0.49262  0.76636  0.02136  1.0000
  S   S1363     1.0  0.49304  0.80050  0.09289  1.0000
  Fe  Fe681     1.0  0.57804  0.86205  0.23490  1.0000
  S   S1364     1.0  0.60126  0.84655  0.22750  1.0000
  S   S1365     1.0  0.56263  0.87806  0.21906  1.0000
  Fe  Fe682     1.0  0.57748  0.84920  0.26903  1.0000
  S   S1366     1.0  0.60031  0.83205  0.26482  1.0000
  S   S1367     1.0  0.56529  0.85580  0.29178  1.0000
  Fe  Fe683     1.0  0.60826  0.85192  0.24668  1.0000
  S   S1368     1.0  0.63187  0.85609  0.24514  1.0000
  Fe  Fe684     1.0  0.59135  0.82795  0.24616  1.0000
  S   S1369     1.0  0.59673  0.80436  0.24046  1.0000
  S   S1370     1.0  0.58601  0.86941  0.25201  1.0000
  S   S1371     1.0  0.56758  0.84314  0.25237  1.0000
  H   H6183     1.0  0.58965  0.86095  0.32126  1.0000
  H   H6184     1.0  0.49994  0.88128  0.26943  1.0000
  H   H6185     1.0  0.51013  0.92649  0.18930  1.0000
  C   C5167     1.0  0.52152  0.89334  0.24497  1.0000
  S   S1372     1.0  0.55259  0.78849  0.20747  1.0000
  C   C5168     1.0  0.75290  0.81496  0.31061  1.0000
  C   C5169     1.0  0.56045  0.92288  0.19604  1.0000
  H   H6186     1.0  0.58336  0.90175  0.17663  1.0000
  H   H6187     1.0  0.51927  0.90485  0.24790  1.0000
  H   H6188     1.0  0.59354  0.81334  0.18008  1.0000
  H   H6189     1.0  0.62016  0.81882  0.36095  1.0000
  H   H6190     1.0  0.85622  0.74981  0.35239  1.0000
  C   C5170     1.0  0.63992  0.82552  0.28988  1.0000
  S   S1373     1.0  0.50619  0.82904  0.33132  1.0000
  Fe  Fe685     1.0  0.76821  0.93185  0.35325  1.0000
  H   H6191     1.0  0.67537  0.90738  0.37186  1.0000
  Fe  Fe686     1.0  0.98954  0.82650  0.35449  1.0000
  Fe  Fe687     1.0  0.74483  0.93328  0.33466  1.0000
  C   C5171     1.0  0.50709  0.93827  0.19093  1.0000
  C   C5172     1.0  0.64177  0.82012  0.31739  1.0000
  Fe  Fe688     1.0  0.88754  0.82243  0.35105  1.0000
  S   S1374     1.0  0.89738  0.81858  0.32702  1.0000
  H   H6192     1.0  0.66900  0.89008  0.37424  1.0000
  Fe  Fe689     1.0  0.85733  0.84366  0.34314  1.0000
  S   S1375     1.0  0.86468  0.84179  0.31826  1.0000
  S   S1376     1.0  0.83468  0.85780  0.35406  1.0000
  Fe  Fe690     1.0  0.87321  0.81635  0.32797  1.0000
  S   S1377     1.0  0.87006  0.79500  0.32286  1.0000
  Fe  Fe691     1.0  0.88797  0.84417  0.32002  1.0000
  S   S1378     1.0  0.90144  0.86094  0.30281  1.0000
  S   S1379     1.0  0.86415  0.81813  0.35273  1.0000
  S   S1380     1.0  0.87984  0.84820  0.34409  1.0000
  Fe  Fe692     1.0  0.78758  0.74684  0.30835  1.0000
  H   H6193     1.0  0.69203  0.94142  0.36039  1.0000
  C   C5173     1.0  0.90334  0.85975  0.36768  1.0000
  Fe  Fe693     1.0  0.79657  0.77144  0.31892  1.0000
  S   S1381     1.0  0.78737  0.76137  0.34380  1.0000
  S   S1382     1.0  0.80354  0.79422  0.31495  1.0000
  C   C5174     1.0  0.67899  0.94672  0.32918  1.0000
  C   C5175     1.0  0.55089  0.85817  0.37041  1.0000
  Fe  Fe694     1.0  0.76695  0.75993  0.33589  1.0000
  S   S1383     1.0  0.74416  0.76926  0.35104  1.0000
  H   H6194     1.0  0.91986  0.74669  0.36286  1.0000
  S   S1384     1.0  0.77542  0.77129  0.31108  1.0000
  Fe  Fe695     1.0  0.66145  0.86911  0.30998  1.0000
  S   S1385     1.0  0.66196  0.84807  0.32960  1.0000
  S   S1386     1.0  0.63845  0.87763  0.30222  1.0000
  Fe  Fe696     1.0  0.69390  0.87203  0.31055  1.0000
  S   S1387     1.0  0.69673  0.85124  0.33008  1.0000
  S   S1388     1.0  0.71509  0.88262  0.30108  1.0000
  Fe  Fe697     1.0  0.68677  0.84030  0.31732  1.0000
  S   S1389     1.0  0.69717  0.81676  0.31159  1.0000
  Fe  Fe698     1.0  0.67181  0.86113  0.34038  1.0000
  C   C5176     1.0  0.81738  0.76992  0.35767  1.0000
  S   S1390     1.0  0.68566  0.86039  0.29680  1.0000
  S   S1391     1.0  0.66957  0.88287  0.32174  1.0000
  Fe  Fe699     1.0  0.77949  0.92587  0.32097  1.0000
  S   S1392     1.0  0.79724  0.90902  0.30773  1.0000
  S   S1393     1.0  0.72142  0.92722  0.33928  1.0000
  S   S1394     1.0  0.76449  0.91464  0.34251  1.0000
  H   H6195     1.0  0.50820  0.89492  0.27339  1.0000
  C   C5177     1.0  0.52859  0.86241  0.24016  1.0000
  S   S1395     1.0  0.50618  0.94386  0.24681  1.0000
  H   H6196     1.0  0.67821  0.97601  0.33178  1.0000
  S   S1396     1.0  0.77715  0.73544  0.33264  1.0000
  C   C5178     1.0  0.57774  0.86282  0.35977  1.0000
  N   N343      1.0  0.53725  0.97622  0.21691  1.0000
  C   C5179     1.0  0.73101  0.74406  0.24800  1.0000
  H   H6197     1.0  0.69761  0.95540  0.34319  1.0000
  C   C5180     1.0  0.57440  0.92566  0.19703  1.0000
  S   S1397     1.0  0.51736  0.91592  0.28402  1.0000
  H   H6198     1.0  0.52559  0.85210  0.27939  1.0000
  H   H6199     1.0  0.51273  0.87527  0.28286  1.0000
  C   C5181     1.0  0.74985  0.88165  0.34707  1.0000
  H   H6200     1.0  0.91810  0.90362  0.36456  1.0000
  H   H6201     1.0  0.76640  0.89657  0.37525  1.0000
  Fe  Fe700     1.0  0.97106  0.85767  0.33978  1.0000
  H   H6202     1.0  0.87554  0.76586  0.34281  1.0000
  H   H6203     1.0  0.81472  0.74637  0.36281  1.0000
  N   N344      1.0  0.67263  0.95838  0.35248  1.0000
  S   S1398     1.0  0.79138  0.73668  0.28750  1.0000
  N   N345      1.0  0.75780  0.97664  0.37429  1.0000
  H   H6204     1.0  0.57347  0.82385  0.18536  1.0000
  C   C5182     1.0  0.70437  0.89530  0.37423  1.0000
  H   H6205     1.0  0.98972  0.82045  0.29967  1.0000
  H   H6206     1.0  0.56655  0.86115  0.34220  1.0000
  C   C5183     1.0  0.71690  0.89501  0.31168  1.0000
  C   C5184     1.0  0.70462  0.89974  0.32358  1.0000
  C   C5185     1.0  0.70611  0.90990  0.33168  1.0000
  C   C5186     1.0  0.71998  0.91505  0.32827  1.0000
  C   C5187     1.0  0.73239  0.91016  0.31652  1.0000
  C   C5188     1.0  0.73078  0.90026  0.30814  1.0000
  H   H6207     1.0  0.69386  0.89584  0.32634  1.0000
  H   H6208     1.0  0.69644  0.91395  0.34053  1.0000
  H   H6209     1.0  0.74313  0.91414  0.31378  1.0000
  H   H6210     1.0  0.74026  0.89676  0.29883  1.0000
  C   C5189     1.0  0.73110  0.78251  0.34011  1.0000
  C   C5190     1.0  0.73144  0.78097  0.32533  1.0000
  C   C5191     1.0  0.72083  0.79147  0.31675  1.0000
  C   C5192     1.0  0.71014  0.80377  0.32273  1.0000
  C   C5193     1.0  0.70993  0.80545  0.33742  1.0000
  C   C5194     1.0  0.72029  0.79471  0.34618  1.0000
  H   H6211     1.0  0.73966  0.77150  0.32064  1.0000
  H   H6212     1.0  0.72099  0.79011  0.30540  1.0000
  H   H6213     1.0  0.70157  0.81482  0.34216  1.0000
  H   H6214     1.0  0.71996  0.79588  0.35764  1.0000
  C   C5195     1.0  0.82496  0.87211  0.34070  1.0000
  C   C5196     1.0  0.81619  0.88605  0.34485  1.0000
  C   C5197     1.0  0.80770  0.89739  0.33471  1.0000
  C   C5198     1.0  0.80800  0.89488  0.32034  1.0000
  C   C5199     1.0  0.81690  0.88099  0.31609  1.0000
  C   C5200     1.0  0.82539  0.86960  0.32628  1.0000
  H   H6215     1.0  0.81598  0.88812  0.35591  1.0000
  H   H6216     1.0  0.80101  0.90814  0.33799  1.0000
  H   H6217     1.0  0.81708  0.87899  0.30501  1.0000
  H   H6218     1.0  0.83190  0.85874  0.32312  1.0000
  C   C5201     1.0  0.85133  0.79478  0.32131  1.0000
  C   C5202     1.0  0.83930  0.80814  0.32112  1.0000
  C   C5203     1.0  0.82467  0.80781  0.31920  1.0000
  C   C5204     1.0  0.82192  0.79408  0.31769  1.0000
  C   C5205     1.0  0.83382  0.78061  0.31833  1.0000
  C   C5206     1.0  0.84851  0.78098  0.32008  1.0000
  H   H6219     1.0  0.84139  0.81882  0.32203  1.0000
  H   H6220     1.0  0.81549  0.81825  0.31875  1.0000
  H   H6221     1.0  0.83182  0.77000  0.31714  1.0000
  H   H6222     1.0  0.85778  0.77062  0.32020  1.0000
  C   C5207     1.0  0.91749  0.86325  0.30833  1.0000
  C   C5208     1.0  0.92480  0.87533  0.29940  1.0000
  C   C5209     1.0  0.93752  0.87773  0.30334  1.0000
  C   C5210     1.0  0.93604  0.85575  0.32518  1.0000
  C   C5211     1.0  0.92303  0.85348  0.32134  1.0000
  H   H6223     1.0  0.92065  0.88288  0.28933  1.0000
  H   H6224     1.0  0.75992  0.80971  0.31970  1.0000
  H   H6225     1.0  0.60485  0.82576  0.34074  1.0000
  H   H6226     1.0  0.91747  0.84405  0.32827  1.0000
  C   C5212     1.0  0.60448  0.86271  0.33484  1.0000
  H   H6227     1.0  0.86223  0.91980  0.31958  1.0000
  C   C5213     1.0  0.91278  0.86661  0.37255  1.0000
  H   H6228     1.0  0.79363  0.86519  0.34775  1.0000
  S   S1399     1.0  0.55628  0.74751  0.19757  1.0000
  H   H6229     1.0  0.79314  0.97170  0.32298  1.0000
  H   H6230     1.0  0.91287  0.75196  0.33629  1.0000
  S   S1400     1.0  0.66492  0.86420  0.36490  1.0000
  C   C5214     1.0  0.50799  0.89562  0.31090  1.0000
  H   H6231     1.0  0.54899  0.87885  0.25309  1.0000
  H   H6232     1.0  0.58401  0.77320  0.21231  1.0000
  H   H6233     1.0  0.66484  0.91937  0.32230  1.0000
  S   S1401     1.0  0.50203  0.85683  0.36035  1.0000
  H   H6234     1.0  0.75696  0.87960  0.32329  1.0000
  C   C5215     1.0  0.62612  0.81906  0.34893  1.0000
  C   C5216     1.0  0.86296  0.88785  0.31947  1.0000
  H   H6235     1.0  0.51582  0.88648  0.30544  1.0000
  H   H6236     1.0  0.55498  0.84622  0.36819  1.0000
  H   H6237     1.0  0.87136  0.87665  0.31809  1.0000
  C   C5217     1.0  0.62515  0.82358  0.32195  1.0000
  H   H6238     1.0  0.83466  0.80622  0.35959  1.0000
  H   H6239     1.0  0.95405  0.76534  0.37422  1.0000
  S   S1402     1.0  0.97627  0.87011  0.35484  1.0000
  H   H6240     1.0  0.70402  0.87249  0.36239  1.0000
  H   H6241     1.0  0.75996  0.81165  0.29955  1.0000
  H   H6242     1.0  0.58313  0.85280  0.20032  1.0000
  C   C5218     1.0  0.87682  0.90239  0.29602  1.0000
  S   S1403     1.0  0.78516  0.94151  0.33250  1.0000
  S   S1404     1.0  0.58744  0.76339  0.18084  1.0000
  H   H6243     1.0  0.65778  0.97820  0.34087  1.0000
  H   H6244     1.0  0.61775  0.82690  0.31371  1.0000
  H   H6245     1.0  0.53266  0.84597  0.22597  1.0000
  C   C5219     1.0  0.84098  0.93639  0.31726  1.0000
  H   H6246     1.0  0.58403  0.81262  0.19981  1.0000
  Fe  Fe701     1.0  0.49907  0.93144  0.27131  1.0000
  H   H6247     1.0  0.81671  0.80748  0.37434  1.0000
  H   H6248     1.0  0.74599  0.88407  0.37013  1.0000
  C   C5220     1.0  0.52661  0.85134  0.26765  1.0000
  H   H6249     1.0  0.61643  0.86480  0.35096  1.0000
  C   C5221     1.0  0.58524  0.82050  0.18816  1.0000
  H   H6250     1.0  0.53191  0.89310  0.23511  1.0000
  H   H6251     1.0  0.65188  0.84452  0.29978  1.0000
  H   H6252     1.0  0.91678  0.87891  0.34059  1.0000
  H   H6253     1.0  0.74283  0.80921  0.31435  1.0000
  H   H6254     1.0  0.84663  0.88575  0.30073  1.0000
  H   H6255     1.0  0.73782  0.88705  0.34627  1.0000
  C   C5222     1.0  0.60580  0.82825  0.19340  1.0000
  H   H6256     1.0  0.60432  0.81991  0.20491  1.0000
  C   C5223     1.0  0.57713  0.86183  0.34480  1.0000
  H   H6257     1.0  0.94157  0.87190  0.36871  1.0000
  C   C5224     1.0  0.50786  0.96551  0.18083  1.0000
  H   H6258     1.0  0.56791  0.89470  0.27043  1.0000
  H   H6259     1.0  0.52919  0.82649  0.27460  1.0000
  H   H6260     1.0  0.89929  0.76974  0.33047  1.0000
  Fe  Fe702     1.0  0.76382  0.95847  0.32574  1.0000
  Fe  Fe703     1.0  0.49332  0.84199  0.35036  1.0000
  C   C5225     1.0  0.49822  0.89187  0.32552  1.0000
  H   H6261     1.0  0.49601  0.98050  0.19672  1.0000
  C   C5226     1.0  0.58398  0.79959  0.23213  1.0000
  C   C5227     1.0  0.58931  0.78671  0.22521  1.0000
  C   C5228     1.0  0.57974  0.78305  0.21776  1.0000
  C   C5229     1.0  0.56468  0.79216  0.21736  1.0000
  C   C5230     1.0  0.55923  0.80486  0.22456  1.0000
  C   C5231     1.0  0.56886  0.80861  0.23188  1.0000
  H   H6262     1.0  0.60096  0.77965  0.22543  1.0000
  C   C5232     1.0  0.85192  0.92267  0.31490  1.0000
  H   H6263     1.0  0.54760  0.81191  0.22426  1.0000
  H   H6264     1.0  0.56462  0.81846  0.23729  1.0000
  C   C5233     1.0  0.63345  0.86264  0.26076  1.0000
  C   C5234     1.0  0.62050  0.86563  0.27283  1.0000
  C   C5235     1.0  0.62216  0.87037  0.28541  1.0000
  C   C5236     1.0  0.63671  0.87219  0.28600  1.0000
  C   C5237     1.0  0.64964  0.86921  0.27394  1.0000
  C   C5238     1.0  0.64800  0.86445  0.26135  1.0000
  H   H6265     1.0  0.60930  0.86404  0.27257  1.0000
  H   H6266     1.0  0.61224  0.87223  0.29491  1.0000
  H   H6267     1.0  0.66090  0.87063  0.27427  1.0000
  H   H6268     1.0  0.65803  0.86218  0.25203  1.0000
  C   C5239     1.0  0.54881  0.84822  0.30208  1.0000
  C   C5240     1.0  0.53825  0.85548  0.31354  1.0000
  C   C5241     1.0  0.52502  0.84979  0.32211  1.0000
  C   C5242     1.0  0.52240  0.83654  0.31967  1.0000
  C   C5243     1.0  0.53284  0.82929  0.30806  1.0000
  C   C5244     1.0  0.54604  0.83520  0.29916  1.0000
  H   H6269     1.0  0.54021  0.86553  0.31590  1.0000
  H   H6270     1.0  0.51690  0.85565  0.33068  1.0000
  H   H6271     1.0  0.53085  0.81900  0.30611  1.0000
  H   H6272     1.0  0.55420  0.82951  0.29032  1.0000
  C   C5245     1.0  0.82468  0.93123  0.30362  1.0000
  Fe  Fe704     1.0  0.56210  0.77104  0.19205  1.0000
  C   C5246     1.0  0.49867  0.94148  0.20533  1.0000
  C   C5247     1.0  0.91443  0.89276  0.37181  1.0000
  C   C5248     1.0  0.49919  0.96873  0.19510  1.0000
  H   H6273     1.0  0.96602  0.80150  0.35959  1.0000
  H   H6274     1.0  0.77215  0.97433  0.35170  1.0000
  C   C5249     1.0  0.56681  0.89660  0.21143  1.0000
  N   N346      1.0  0.91886  0.88043  0.36289  1.0000
  C   C5250     1.0  0.58050  0.89954  0.21283  1.0000
  H   H6275     1.0  0.56791  0.84771  0.19529  1.0000
  H   H6276     1.0  0.58843  0.89050  0.21906  1.0000
  C   C5251     1.0  0.49666  0.92296  0.31009  1.0000
  S   S1405     1.0  0.96405  0.83802  0.35898  1.0000
  C   C5252     1.0  0.61753  0.82299  0.33752  1.0000
  H   H6277     1.0  0.64907  0.81262  0.35376  1.0000
  C   C5253     1.0  0.57061  0.90869  0.32812  1.0000
  C   C5254     1.0  0.66622  0.92727  0.32838  1.0000
  H   H6278     1.0  0.66487  0.83611  0.28407  1.0000
  H   H6279     1.0  0.54556  0.86613  0.36076  1.0000
  C   C5255     1.0  0.88904  0.75410  0.36066  1.0000
  H   H6280     1.0  0.68370  0.89537  0.35792  1.0000
  C   C5256     1.0  0.53076  0.84754  0.23764  1.0000
  C   C5257     1.0  0.65757  0.92771  0.34341  1.0000
  H   H6281     1.0  0.72156  0.74552  0.24248  1.0000
  N   N347      1.0  0.59096  0.83421  0.18787  1.0000
  H   H6282     1.0  0.52556  0.96529  0.23950  1.0000
  H   H6283     1.0  0.61473  0.86262  0.32537  1.0000
  C   C5258     1.0  0.93613  0.87596  0.35846  1.0000
  H   H6284     1.0  0.64845  0.84264  0.36225  1.0000
  C   C5259     1.0  0.52876  0.83656  0.26501  1.0000
  H   H6285     1.0  0.51121  0.89328  0.24080  1.0000
  C   C5260     1.0  0.55665  0.90838  0.20326  1.0000
  H   H6286     1.0  0.86693  0.87917  0.29313  1.0000
  H   H6287     1.0  0.55451  0.95451  0.21724  1.0000
  C   C5261     1.0  0.51192  0.95027  0.17873  1.0000
  H   H6288     1.0  0.81890  0.95129  0.31344  1.0000
  H   H6289     1.0  0.61022  0.83762  0.19507  1.0000
  C   C5262     1.0  0.66215  0.95839  0.36808  1.0000
  H   H6290     1.0  0.76140  0.74355  0.36838  1.0000
  N   N348      1.0  0.90068  0.76401  0.35467  1.0000
  C   C5263     1.0  0.60542  0.86393  0.34927  1.0000
  H   H6291     1.0  0.66907  0.83025  0.30287  1.0000
  C   C5264     1.0  0.77632  0.87151  0.33462  1.0000
  C   C5265     1.0  0.89283  0.78016  0.35610  1.0000
  H   H6292     1.0  0.94547  0.81056  0.36255  1.0000
  C   C5266     1.0  0.82256  0.78069  0.36199  1.0000
  H   H6293     1.0  0.72131  0.76665  0.25352  1.0000
  H   H6294     1.0  0.56765  0.97154  0.19788  1.0000
  H   H6295     1.0  0.52909  0.87181  0.23001  1.0000
  H   H6296     1.0  0.81279  0.77332  0.34725  1.0000
  C   C5267     1.0  0.91357  0.75893  0.36312  1.0000
  C   C5268     1.0  0.82740  0.94067  0.31160  1.0000
  C   C5269     1.0  0.53855  0.88081  0.26268  1.0000
  H   H6297     1.0  0.97833  0.84865  0.29718  1.0000
  H   H6298     1.0  0.53757  0.89226  0.26516  1.0000
  C   C5270     1.0  0.82968  0.80399  0.37233  1.0000
  C   C5271     1.0  0.53078  0.83467  0.25004  1.0000
  H   H6299     1.0  0.88368  0.78526  0.34920  1.0000
  N   N349      1.0  0.74766  0.83211  0.30864  1.0000
  C   C5272     1.0  0.73822  0.83535  0.32381  1.0000
  C   C5273     1.0  0.73743  0.83772  0.29727  1.0000
  C   C5274     1.0  0.76073  0.84028  0.30337  1.0000
  C   C5275     1.0  0.77670  0.83230  0.30144  1.0000
  C   C5276     1.0  0.75765  0.85675  0.30038  1.0000
  C   C5277     1.0  0.78874  0.84036  0.29681  1.0000
  C   C5278     1.0  0.76977  0.86472  0.29563  1.0000
  C   C5279     1.0  0.78529  0.85653  0.29388  1.0000
  H   H6300     1.0  0.74558  0.83181  0.33255  1.0000
  H   H6301     1.0  0.72860  0.82893  0.32845  1.0000
  H   H6302     1.0  0.73260  0.84791  0.32295  1.0000
  H   H6303     1.0  0.73151  0.85021  0.29633  1.0000
  H   H6304     1.0  0.74425  0.83628  0.28548  1.0000
  H   H6305     1.0  0.72785  0.83130  0.30059  1.0000
  H   H6306     1.0  0.78029  0.81979  0.30342  1.0000
  H   H6307     1.0  0.74581  0.86363  0.30165  1.0000
  H   H6308     1.0  0.80082  0.83394  0.29542  1.0000
  H   H6309     1.0  0.76710  0.87732  0.29320  1.0000
  H   H6310     1.0  0.79466  0.86274  0.29017  1.0000
  H   H6311     1.0  0.87587  0.91119  0.28498  1.0000
  C   C5280     1.0  0.64173  0.84811  0.37172  1.0000
  H   H6312     1.0  0.85150  0.88510  0.32621  1.0000
  S   S1406     1.0  0.57993  0.94337  0.18742  1.0000
  C   C5281     1.0  0.64239  0.81552  0.34487  1.0000
  H   H6313     1.0  0.53264  0.82315  0.24802  1.0000
  H   H6314     1.0  0.84301  0.94376  0.32352  1.0000
  H   H6315     1.0  0.83245  0.91069  0.29511  1.0000
  C   C5282     1.0  0.84959  0.91284  0.30669  1.0000
  C   C5283     1.0  0.83553  0.91749  0.30119  1.0000
  H   H6316     1.0  0.81396  0.93448  0.29942  1.0000
  H   H6317     1.0  0.88169  0.90703  0.30310  1.0000
  H   H6318     1.0  0.86726  0.89283  0.32673  1.0000
  H   H6319     1.0  0.82181  0.79207  0.35435  1.0000
  C   C5284     1.0  0.54366  0.96072  0.21293  1.0000
  H   H6320     1.0  0.88729  0.78074  0.36841  1.0000
  C   C5285     1.0  0.76982  0.96742  0.36377  1.0000
  C   C5286     1.0  0.65942  0.83355  0.29670  1.0000
  S   S1407     1.0  0.95908  0.87209  0.32045  1.0000
  H   H6321     1.0  0.55721  0.88210  0.30585  1.0000
  H   H6322     1.0  0.78097  0.96270  0.36784  1.0000
  H   H6323     1.0  0.70910  0.89714  0.36150  1.0000
  H   H6324     1.0  0.59612  0.89787  0.28970  1.0000
  C   C5287     1.0  0.59036  0.86173  0.33258  1.0000
  N   N350      1.0  0.52425  0.88025  0.25846  1.0000
  H   H6325     1.0  0.53517  0.95300  0.21805  1.0000
  S   S1408     1.0  0.49280  0.92661  0.22081  1.0000
  C   C5288     1.0  0.57445  0.89591  0.27842  1.0000
  C   C5289     1.0  0.58848  0.90071  0.30029  1.0000
  C   C5290     1.0  0.59577  0.90117  0.31158  1.0000
  H   H6326     1.0  0.58099  0.88399  0.28290  1.0000
  H   H6327     1.0  0.58293  0.90312  0.27107  1.0000
  S   S1409     1.0  0.80967  0.74820  0.31376  1.0000
  H   H6328     1.0  0.80079  0.86511  0.36852  1.0000
  C   C5291     1.0  0.58423  0.91408  0.20572  1.0000
  H   H6329     1.0  0.56851  0.88097  0.18611  1.0000
  H   H6330     1.0  0.64960  0.96193  0.36745  1.0000
  Fe  Fe705     1.0  0.79851  0.73813  0.33813  1.0000
  H   H6331     1.0  0.61513  0.82210  0.18509  1.0000
  C   C5292     1.0  0.69863  0.87116  0.37503  1.0000
  C   C5293     1.0  0.49490  0.95670  0.20741  1.0000
  H   H6332     1.0  0.54637  0.96163  0.20017  1.0000
  C   C5294     1.0  0.57923  0.84291  0.19900  1.0000
  C   C5295     1.0  0.75453  0.74233  0.26278  1.0000
  N   N351      1.0  0.56379  0.86358  0.37275  1.0000
  H   H6333     1.0  0.78482  0.86893  0.32426  1.0000
  C   C5296     1.0  0.55190  0.89347  0.29905  1.0000
  H   H6334     1.0  0.89073  0.84158  0.37326  1.0000
  H   H6335     1.0  0.54679  0.89101  0.29057  1.0000
  C   C5297     1.0  0.52625  0.86477  0.25534  1.0000
  H   H6336     1.0  0.68391  0.93609  0.30972  1.0000
  H   H6337     1.0  0.63185  0.83704  0.29033  1.0000
  H   H6338     1.0  0.56372  0.91205  0.33881  1.0000
  C   C5298     1.0  0.67687  0.93679  0.32127  1.0000
  H   H6339     1.0  0.85645  0.78475  0.36310  1.0000
  N   N352      1.0  0.56378  0.90301  0.29131  1.0000
  C   C5299     1.0  0.57191  0.90387  0.30279  1.0000
  H   H6340     1.0  0.54173  0.89925  0.30695  1.0000
  H   H6341     1.0  0.94303  0.88717  0.29632  1.0000
  H   H6342     1.0  0.57690  0.83537  0.21084  1.0000
  C   C5300     1.0  0.58688  0.90501  0.32552  1.0000
  H   H6343     1.0  0.59499  0.91621  0.20658  1.0000
  H   H6344     1.0  0.60845  0.89856  0.30948  1.0000
  C   C5301     1.0  0.75466  0.87970  0.36078  1.0000
  C   C5302     1.0  0.67020  0.94768  0.34441  1.0000
  C   C5303     1.0  0.67948  0.89516  0.37052  1.0000
  H   H6345     1.0  0.94043  0.84810  0.33507  1.0000
  C   C5304     1.0  0.51070  0.88295  0.27157  1.0000
  C   C5305     1.0  0.78124  0.86938  0.34831  1.0000
  C   C5306     1.0  0.50702  0.91118  0.30312  1.0000
  H   H6346     1.0  0.69109  0.96095  0.36140  1.0000
  C   C5307     1.0  0.59226  0.86414  0.36153  1.0000
  C   C5308     1.0  0.65942  0.93778  0.35135  1.0000
  H   H6347     1.0  0.64940  0.92017  0.34899  1.0000
  C   C5309     1.0  0.56320  0.90825  0.31690  1.0000
  C   C5310     1.0  0.73070  0.75636  0.25432  1.0000
  H   H6348     1.0  0.54396  0.96918  0.23891  1.0000
  H   H6349     1.0  0.59361  0.86542  0.37238  1.0000
  C   C5311     1.0  0.85765  0.88981  0.29487  1.0000
  H   H6350     1.0  0.68781  0.95344  0.32337  1.0000
  C   C5312     1.0  0.66978  0.97456  0.34316  1.0000
  C   C5313     1.0  0.94325  0.86797  0.31615  1.0000
  H   H6351     1.0  0.65501  0.79670  0.30288  1.0000
  H   H6352     1.0  0.67070  0.80328  0.30547  1.0000
  H   H6353     1.0  0.55262  0.93185  0.18966  1.0000
  C   C5314     1.0  0.66129  0.80637  0.29891  1.0000
  H   H6354     1.0  0.74286  0.92535  0.37340  1.0000
  H   H6355     1.0  0.93992  0.86641  0.35214  1.0000
  S   S1410     1.0  0.74716  0.94971  0.34738  1.0000
  H   H6356     1.0  0.85653  0.89704  0.28313  1.0000
  H   H6357     1.0  0.63292  0.81666  0.29217  1.0000
  C   C5315     1.0  0.81843  0.75475  0.36642  1.0000
  C   C5316     1.0  0.77050  0.87323  0.36192  1.0000
  C   C5317     1.0  0.55583  0.91888  0.28448  1.0000
  H   H6358     1.0  0.54993  0.91877  0.27544  1.0000
  H   H6359     1.0  0.59264  0.90531  0.33421  1.0000
  H   H6360     1.0  0.90124  0.78795  0.35181  1.0000
  H   H6361     1.0  0.66739  0.80680  0.28654  1.0000
  H   H6362     1.0  0.54095  0.87175  0.27318  1.0000
  N   N353      1.0  0.86146  0.89847  0.30424  1.0000
  H   H6363     1.0  0.55056  0.91147  0.31931  1.0000
  H   H6364     1.0  0.64664  0.82655  0.27761  1.0000
  C   C5318     1.0  0.53325  0.97369  0.23408  1.0000
  N   N354      1.0  0.65032  0.82136  0.30098  1.0000
  H   H6365     1.0  0.88581  0.89200  0.29302  1.0000
  H   H6366     1.0  0.51421  0.97554  0.21577  1.0000
  H   H6367     1.0  0.78630  0.89191  0.36545  1.0000
  S   S1411     1.0  0.75947  0.94367  0.31215  1.0000
  C   C5319     1.0  0.86552  0.74758  0.35845  1.0000
  C   C5320     1.0  0.65014  0.81596  0.32937  1.0000
  H   H6368     1.0  0.76366  0.74167  0.26853  1.0000
  H   H6369     1.0  0.66280  0.81343  0.32677  1.0000
  H   H6370     1.0  0.56428  0.92658  0.27899  1.0000
  H   H6371     1.0  0.54656  0.92439  0.29332  1.0000
  H   H6372     1.0  0.91734  0.77059  0.33343  1.0000
  C   C5321     1.0  0.87669  0.75670  0.35304  1.0000
  H   H6373     1.0  0.54598  0.90620  0.20221  1.0000
  C   C5322     1.0  0.76065  0.87757  0.33403  1.0000
  H   H6374     1.0  0.60244  0.86073  0.17935  1.0000
  H   H6375     1.0  0.95216  0.79143  0.35885  1.0000
  C   C5323     1.0  0.95405  0.79932  0.36500  1.0000
  C   C5324     1.0  0.90784  0.76402  0.33804  1.0000
  C   C5325     1.0  0.74242  0.75548  0.26170  1.0000
  Fe  Fe706     1.0  0.58123  0.74032  0.18491  1.0000
  H   H6376     1.0  0.90003  0.89098  0.35083  1.0000
  C   C5326     1.0  0.91301  0.88725  0.34835  1.0000
  H   H6377     1.0  0.91779  0.89762  0.34140  1.0000
  H   H6378     1.0  0.73918  0.97286  0.36665  1.0000
  H   H6379     1.0  0.66415  0.96664  0.37380  1.0000
  H   H6380     1.0  0.49606  0.93500  0.30419  1.0000
  H   H6381     1.0  0.92238  0.76627  0.35805  1.0000
  H   H6382     1.0  0.76598  0.95727  0.36307  1.0000
  H   H6383     1.0  0.90000  0.86422  0.35663  1.0000
  H   H6384     1.0  0.94132  0.88582  0.35070  1.0000
  S   S1412     1.0  0.90113  0.80999  0.36941  1.0000
  H   H6385     1.0  0.78097  0.73385  0.37047  1.0000
  C   C5327     1.0  0.86629  0.73558  0.37161  1.0000
  C   C5328     1.0  0.68900  0.95387  0.35445  1.0000
  H   H6386     1.0  0.49856  0.87986  0.33133  1.0000
  C   C5329     1.0  0.55782  0.87992  0.37432  1.0000
  H   H6387     1.0  0.74215  0.76500  0.26662  1.0000
  H   H6388     1.0  0.65232  0.93747  0.36296  1.0000
  Fe  Fe707     1.0  0.97102  0.84949  0.37376  1.0000
  C   C5330     1.0  0.88937  0.74187  0.37416  1.0000
  C   C5331     1.0  0.99071  0.84418  0.29701  1.0000
  H   H6389     1.0  0.55460  0.88767  0.36347  1.0000
  H   H6390     1.0  0.75013  0.96621  0.53734  1.0000
  H   H6391     1.0  0.92303  0.73344  0.53833  1.0000
  C   C5332     1.0  0.69074  0.96603  0.47123  1.0000
  S   S1413     1.0  0.91283  0.74194  0.40481  1.0000
  C   C5333     1.0  0.86411  0.79520  0.41157  1.0000
  C   C5334     1.0  0.89109  0.79146  0.39709  1.0000
  H   H6392     1.0  0.97582  0.78288  0.48782  1.0000
  H   H6393     1.0  0.78759  0.73201  0.55637  1.0000
  Fe  Fe708     1.0  0.69227  0.92627  0.41915  1.0000
  H   H6394     1.0  0.92174  0.75665  0.48809  1.0000
  H   H6395     1.0  0.66779  0.87181  0.39577  1.0000
  H   H6396     1.0  0.51028  0.86868  0.48549  1.0000
  H   H6397     1.0  0.88256  0.77569  0.41759  1.0000
  H   H6398     1.0  0.85689  0.77107  0.38127  1.0000
  Fe  Fe709     1.0  0.85797  0.73265  0.42237  1.0000
  C   C5335     1.0  0.94582  0.78254  0.49655  1.0000
  C   C5336     1.0  0.80999  0.74797  0.54178  1.0000
  H   H6399     1.0  0.79041  0.74684  0.40066  1.0000
  Fe  Fe710     1.0  0.86463  0.75432  0.53751  1.0000
  C   C5337     1.0  0.61916  0.85061  0.39317  1.0000
  S   S1414     1.0  0.84874  0.76264  0.52090  1.0000
  H   H6400     1.0  0.97900  0.74332  0.52974  1.0000
  Fe  Fe711     1.0  0.85887  0.76184  0.43084  1.0000
  Fe  Fe712     1.0  0.89548  0.75593  0.54308  1.0000
  S   S1415     1.0  0.91702  0.76612  0.53349  1.0000
  C   C5338     1.0  0.99127  0.75204  0.50662  1.0000
  S   S1416     1.0  0.87130  0.77082  0.54692  1.0000
  H   H6401     1.0  0.95409  0.80197  0.55101  1.0000
  H   H6402     1.0  0.69615  0.96868  0.44107  1.0000
  Fe  Fe713     1.0  0.60488  0.86654  0.53404  1.0000
  S   S1417     1.0  0.58485  0.88666  0.53804  1.0000
  S   S1418     1.0  0.61252  0.85793  0.51182  1.0000
  Fe  Fe714     1.0  0.60205  0.89594  0.54419  1.0000
  S   S1419     1.0  0.60703  0.91925  0.53133  1.0000
  S   S1420     1.0  0.62234  0.87668  0.53856  1.0000
  C   C5339     1.0  0.82468  0.75026  0.37957  1.0000
  Fe  Fe715     1.0  0.55337  0.87882  0.42381  1.0000
  S   S1421     1.0  0.56451  0.85452  0.43418  1.0000
  S   S1422     1.0  0.53149  0.88599  0.41436  1.0000
  Fe  Fe716     1.0  0.57841  0.89233  0.42827  1.0000
  S   S1423     1.0  0.59201  0.86903  0.43838  1.0000
  S   S1424     1.0  0.58412  0.91435  0.42886  1.0000
  Fe  Fe717     1.0  0.58684  0.86116  0.41962  1.0000
  S   S1425     1.0  0.60185  0.84499  0.40425  1.0000
  Fe  Fe718     1.0  0.56843  0.86475  0.45191  1.0000
  S   S1426     1.0  0.56132  0.85716  0.47793  1.0000
  S   S1427     1.0  0.57546  0.88502  0.40816  1.0000
  S   S1428     1.0  0.55513  0.88854  0.44282  1.0000
  Fe  Fe719     1.0  0.70571  0.93513  0.54339  1.0000
  S   S1429     1.0  0.68863  0.95775  0.54519  1.0000
  H   H6403     1.0  0.88212  0.76190  0.48166  1.0000
  Fe  Fe720     1.0  0.69315  0.93021  0.51835  1.0000
  H   H6404     1.0  0.51520  0.89086  0.44550  1.0000
  S   S1430     1.0  0.69457  0.91439  0.50320  1.0000
  Fe  Fe721     1.0  0.67106  0.94569  0.54365  1.0000
  C   C5340     1.0  0.82755  0.77888  0.56374  1.0000
  H   H6405     1.0  0.76738  0.91378  0.41012  1.0000
  S   S1431     1.0  0.68770  0.92267  0.54413  1.0000
  Fe  Fe722     1.0  0.66344  0.93181  0.40669  1.0000
  S   S1432     1.0  0.66888  0.92058  0.43000  1.0000
  S   S1433     1.0  0.65326  0.91986  0.39511  1.0000
  H   H6406     1.0  0.93393  0.78337  0.50421  1.0000
  Fe  Fe723     1.0  0.66174  0.94461  0.43413  1.0000
  S   S1434     1.0  0.64844  0.94739  0.45802  1.0000
  N   N355      1.0  0.81198  0.92807  0.56407  1.0000
  C   C5341     1.0  0.68147  0.92329  0.49094  1.0000
  C   C5342     1.0  0.68621  0.92227  0.47540  1.0000
  C   C5343     1.0  0.67608  0.92976  0.46531  1.0000
  C   C5344     1.0  0.66105  0.93807  0.47076  1.0000
  C   C5345     1.0  0.65618  0.93885  0.48640  1.0000
  C   C5346     1.0  0.66639  0.93144  0.49650  1.0000
  C   C5347     1.0  0.51015  0.89986  0.57377  1.0000
  H   H6407     1.0  0.67988  0.92873  0.45340  1.0000
  H   H6408     1.0  0.93187  0.84935  0.42406  1.0000
  H   H6409     1.0  0.66250  0.93186  0.50863  1.0000
  H   H6410     1.0  0.90156  0.89566  0.37636  1.0000
  H   H6411     1.0  0.65013  0.87926  0.51011  1.0000
  C   C5348     1.0  0.60312  0.91616  0.41889  1.0000
  C   C5349     1.0  0.60876  0.92849  0.41977  1.0000
  C   C5350     1.0  0.62419  0.92972  0.41247  1.0000
  C   C5351     1.0  0.63387  0.91876  0.40405  1.0000
  C   C5352     1.0  0.62809  0.90672  0.40278  1.0000
  C   C5353     1.0  0.61277  0.90528  0.41036  1.0000
  H   H6412     1.0  0.60121  0.93712  0.42608  1.0000
  H   H6413     1.0  0.62853  0.93918  0.41328  1.0000
  H   H6414     1.0  0.63554  0.89841  0.39608  1.0000
  H   H6415     1.0  0.60840  0.89583  0.40951  1.0000
  C   C5354     1.0  0.61835  0.92581  0.53966  1.0000
  C   C5355     1.0  0.50392  0.86525  0.47872  1.0000
  C   C5356     1.0  0.97397  0.75061  0.38236  1.0000
  C   C5357     1.0  0.76397  0.86744  0.39042  1.0000
  C   C5358     1.0  0.63693  0.94145  0.53654  1.0000
  C   C5359     1.0  0.62775  0.93606  0.53019  1.0000
  H   H6416     1.0  0.76694  0.76318  0.39512  1.0000
  S   S1435     1.0  0.94725  0.79595  0.45154  1.0000
  H   H6417     1.0  0.64391  0.94956  0.52918  1.0000
  H   H6418     1.0  0.62790  0.93987  0.51792  1.0000
  C   C5360     1.0  0.59811  0.85680  0.50314  1.0000
  C   C5361     1.0  0.58226  0.85943  0.51048  1.0000
  C   C5362     1.0  0.57103  0.85902  0.50289  1.0000
  C   C5363     1.0  0.57560  0.85633  0.48782  1.0000
  C   C5364     1.0  0.59147  0.85344  0.48064  1.0000
  C   C5365     1.0  0.60269  0.85356  0.48833  1.0000
  H   H6419     1.0  0.57867  0.86170  0.52202  1.0000
  H   H6420     1.0  0.55878  0.86106  0.50859  1.0000
  H   H6421     1.0  0.59514  0.85085  0.46925  1.0000
  H   H6422     1.0  0.61495  0.85110  0.48279  1.0000
  H   H6423     1.0  0.95332  0.77149  0.50170  1.0000
  H   H6424     1.0  0.53155  0.86474  0.44537  1.0000
  H   H6425     1.0  0.95138  0.73690  0.52766  1.0000
  H   H6426     1.0  0.67560  0.88804  0.52598  1.0000
  Fe  Fe724     1.0  0.96549  0.77391  0.45113  1.0000
  C   C5366     1.0  0.90430  0.73606  0.47534  1.0000
  H   H6427     1.0  0.51694  0.88944  0.46464  1.0000
  H   H6428     1.0  0.74401  0.97112  0.39771  1.0000
  S   S1436     1.0  0.85827  0.73823  0.56045  1.0000
  H   H6429     1.0  0.92975  0.81165  0.49398  1.0000
  H   H6430     1.0  0.70770  0.86406  0.38163  1.0000
  C   C5367     1.0  0.95232  0.75822  0.55529  1.0000
  H   H6431     1.0  0.64454  0.94518  0.49070  1.0000
  C   C5368     1.0  0.52665  0.86154  0.45802  1.0000
  C   C5369     1.0  0.72974  0.91778  0.39630  1.0000
  H   H6432     1.0  0.85396  0.74924  0.47169  1.0000
  H   H6433     1.0  0.97123  0.79961  0.42295  1.0000
  H   H6434     1.0  0.74380  0.90660  0.42920  1.0000
  C   C5370     1.0  0.86247  0.73463  0.51298  1.0000
  C   C5371     1.0  0.85458  0.74999  0.50827  1.0000
  C   C5372     1.0  0.85132  0.75517  0.49346  1.0000
  H   H6435     1.0  0.62369  0.83516  0.37790  1.0000
  H   H6436     1.0  0.78125  0.88798  0.38628  1.0000
  C   C5373     1.0  0.62449  0.86171  0.39680  1.0000
  H   H6437     1.0  0.84518  0.76704  0.48980  1.0000
  S   S1437     1.0  0.71311  0.90830  0.42550  1.0000
  C   C5374     1.0  0.91412  0.81009  0.57373  1.0000
  H   H6438     1.0  0.79431  0.94872  0.55878  1.0000
  H   H6439     1.0  0.61788  0.86696  0.40648  1.0000
  H   H6440     1.0  0.65918  0.90529  0.56101  1.0000
  C   C5375     1.0  0.51060  0.85048  0.40521  1.0000
  H   H6441     1.0  0.65346  0.87126  0.55081  1.0000
  C   C5376     1.0  0.51337  0.87697  0.40090  1.0000
  C   C5377     1.0  0.52408  0.87201  0.41057  1.0000
  C   C5378     1.0  0.52837  0.85618  0.41722  1.0000
  C   C5379     1.0  0.52154  0.84547  0.41465  1.0000
  H   H6442     1.0  0.81055  0.75080  0.55258  1.0000
  H   H6443     1.0  0.50520  0.85247  0.48283  1.0000
  H   H6444     1.0  0.53669  0.85215  0.42458  1.0000
  H   H6445     1.0  0.52455  0.83329  0.42016  1.0000
  S   S1438     1.0  0.84936  0.78752  0.42597  1.0000
  N   N356      1.0  0.66890  0.88517  0.55096  1.0000
  H   H6446     1.0  0.53406  0.86442  0.46411  1.0000
  C   C5380     1.0  0.78818  0.73529  0.40487  1.0000
  C   C5381     1.0  0.62778  0.84381  0.38064  1.0000
  C   C5382     1.0  0.68449  0.88256  0.55435  1.0000
  C   C5383     1.0  0.69775  0.88615  0.54271  1.0000
  H   H6447     1.0  0.70702  0.97017  0.40257  1.0000
  N   N357      1.0  0.76608  0.74166  0.39064  1.0000
  C   C5384     1.0  0.87951  0.78648  0.40962  1.0000
  C   C5385     1.0  0.75690  0.91487  0.40626  1.0000
  H   H6448     1.0  0.93505  0.78351  0.40089  1.0000
  H   H6449     1.0  0.64488  0.89608  0.55947  1.0000
  H   H6450     1.0  0.76060  0.85680  0.39018  1.0000
  N   N358      1.0  0.95234  0.79268  0.38189  1.0000
  H   H6451     1.0  0.74575  0.73177  0.40207  1.0000
  H   H6452     1.0  0.97894  0.78549  0.39479  1.0000
  H   H6453     1.0  0.68964  0.86428  0.37742  1.0000
  H   H6454     1.0  0.76849  0.86501  0.40112  1.0000
  C   C5386     1.0  0.69092  0.88844  0.40670  1.0000
  H   H6455     1.0  0.92881  0.80496  0.54429  1.0000
  C   C5387     1.0  0.73263  0.93692  0.56042  1.0000
  H   H6456     1.0  0.83527  0.75665  0.39392  1.0000
  H   H6457     1.0  0.82315  0.91358  0.54760  1.0000
  H   H6458     1.0  0.84858  0.81624  0.40264  1.0000
  N   N359      1.0  0.64611  0.89261  0.48762  1.0000
  C   C5388     1.0  0.63636  0.90602  0.49438  1.0000
  C   C5389     1.0  0.64580  0.87844  0.50028  1.0000
  C   C5390     1.0  0.66252  0.89443  0.48225  1.0000
  C   C5391     1.0  0.64036  0.89202  0.47429  1.0000
  C   C5392     1.0  0.63981  0.90481  0.46135  1.0000
  C   C5393     1.0  0.63564  0.87884  0.47344  1.0000
  C   C5394     1.0  0.63515  0.90433  0.44830  1.0000
  C   C5395     1.0  0.63103  0.87850  0.46027  1.0000
  C   C5396     1.0  0.63078  0.89122  0.44774  1.0000
  H   H6459     1.0  0.62388  0.90517  0.49833  1.0000
  H   H6460     1.0  0.64010  0.90667  0.50466  1.0000
  H   H6461     1.0  0.63693  0.91736  0.48604  1.0000
  H   H6462     1.0  0.63367  0.87666  0.50514  1.0000
  C   C5397     1.0  0.92569  0.73514  0.41737  1.0000
  H   H6463     1.0  0.65324  0.86784  0.49626  1.0000
  H   H6464     1.0  0.67031  0.88442  0.47740  1.0000
  H   H6465     1.0  0.66371  0.90502  0.47298  1.0000
  H   H6466     1.0  0.66717  0.89547  0.49180  1.0000
  H   H6467     1.0  0.64310  0.91530  0.46114  1.0000
  H   H6468     1.0  0.63532  0.86864  0.48281  1.0000
  H   H6469     1.0  0.63502  0.91421  0.43854  1.0000
  H   H6470     1.0  0.62748  0.86835  0.45983  1.0000
  H   H6471     1.0  0.62716  0.89096  0.43757  1.0000
  C   C5398     1.0  0.50089  0.86579  0.45318  1.0000
  C   C5399     1.0  0.96413  0.82334  0.41062  1.0000
  C   C5400     1.0  0.66527  0.86994  0.55286  1.0000
  C   C5401     1.0  0.74362  0.91075  0.41701  1.0000
  C   C5402     1.0  0.98778  0.76195  0.39353  1.0000
  C   C5403     1.0  0.82987  0.78645  0.39713  1.0000
  S   S1439     1.0  0.95848  0.75428  0.47012  1.0000
  C   C5404     1.0  0.98620  0.74919  0.38927  1.0000
  H   H6472     1.0  0.97893  0.79521  0.53221  1.0000
  C   C5405     1.0  0.98711  0.75048  0.52268  1.0000
  H   H6473     1.0  0.89795  0.82940  0.39847  1.0000
  H   H6474     1.0  0.82678  0.79095  0.55661  1.0000
  S   S1440     1.0  0.76360  0.96750  0.56169  1.0000
  Fe  Fe725     1.0  0.88901  0.74024  0.41950  1.0000
  C   C5406     1.0  0.92060  0.75788  0.56353  1.0000
  H   H6475     1.0  0.78117  0.92926  0.56233  1.0000
  C   C5407     1.0  0.79668  0.78716  0.55811  1.0000
  H   H6476     1.0  0.68279  0.96344  0.48276  1.0000
  C   C5408     1.0  0.61802  0.92109  0.55557  1.0000
  C   C5409     1.0  0.69371  0.97988  0.44465  1.0000
  C   C5410     1.0  0.85632  0.74512  0.48321  1.0000
  C   C5411     1.0  0.67215  0.87784  0.42871  1.0000
  H   H6477     1.0  0.81308  0.94917  0.54625  1.0000
  C   C5412     1.0  0.66612  0.87324  0.41883  1.0000
  C   C5413     1.0  0.63651  0.93691  0.55245  1.0000
  C   C5414     1.0  0.87816  0.73277  0.37944  1.0000
  S   S1441     1.0  0.84627  0.74264  0.44344  1.0000
  C   C5415     1.0  0.91968  0.74647  0.48536  1.0000
  C   C5416     1.0  0.93630  0.78984  0.38852  1.0000
  C   C5417     1.0  0.71207  0.88440  0.54646  1.0000
  N   N360      1.0  0.90651  0.75068  0.47745  1.0000
  H   H6478     1.0  0.91468  0.84065  0.40748  1.0000
  C   C5418     1.0  0.74307  0.92159  0.38555  1.0000
  C   C5419     1.0  0.91140  0.84603  0.39640  1.0000
  H   H6479     1.0  0.49827  0.87021  0.39086  1.0000
  H   H6480     1.0  0.69727  0.89084  0.53067  1.0000
  H   H6481     1.0  0.83299  0.90981  0.56306  1.0000
  H   H6482     1.0  0.92895  0.82658  0.44578  1.0000
  C   C5420     1.0  0.50992  0.88676  0.45799  1.0000
  Fe  Fe726     1.0  0.86738  0.75349  0.56955  1.0000
  H   H6483     1.0  0.73195  0.97631  0.50378  1.0000
  H   H6484     1.0  0.83367  0.81208  0.37666  1.0000
  C   C5421     1.0  0.89200  0.75745  0.48773  1.0000
  C   C5422     1.0  0.93841  0.74191  0.41459  1.0000
  H   H6485     1.0  0.92720  0.80089  0.38790  1.0000
  N   N361      1.0  0.95244  0.79607  0.49484  1.0000
  H   H6486     1.0  0.50557  0.84097  0.46384  1.0000
  C   C5423     1.0  0.68688  0.87586  0.56967  1.0000
  H   H6487     1.0  0.72182  0.88789  0.53748  1.0000
  N   N362      1.0  0.58072  0.90707  0.47930  1.0000
  C   C5424     1.0  0.56757  0.91574  0.47161  1.0000
  C   C5425     1.0  0.59005  0.89436  0.47132  1.0000
  C   C5426     1.0  0.57396  0.89969  0.49547  1.0000
  C   C5427     1.0  0.59060  0.91778  0.47832  1.0000
  C   C5428     1.0  0.59232  0.92161  0.49161  1.0000
  C   C5429     1.0  0.59842  0.92522  0.46364  1.0000
  C   C5430     1.0  0.60115  0.93237  0.49013  1.0000
  C   C5431     1.0  0.60740  0.93578  0.46232  1.0000
  C   C5432     1.0  0.60872  0.93938  0.47553  1.0000
  H   H6488     1.0  0.57170  0.92074  0.45908  1.0000
  H   H6489     1.0  0.55982  0.90809  0.47212  1.0000
  H   H6490     1.0  0.56035  0.92555  0.47709  1.0000
  H   H6491     1.0  0.59466  0.89865  0.45875  1.0000
  H   H6492     1.0  0.58289  0.88613  0.47192  1.0000
  H   H6493     1.0  0.60009  0.88758  0.47673  1.0000
  H   H6494     1.0  0.56608  0.90845  0.50206  1.0000
  H   H6495     1.0  0.56678  0.89158  0.49576  1.0000
  H   H6496     1.0  0.58329  0.89268  0.50183  1.0000
  H   H6497     1.0  0.58695  0.91654  0.50332  1.0000
  H   H6498     1.0  0.59750  0.92300  0.45305  1.0000
  H   H6499     1.0  0.60220  0.93523  0.50041  1.0000
  H   H6500     1.0  0.61334  0.94126  0.45097  1.0000
  H   H6501     1.0  0.61562  0.94765  0.47447  1.0000
  H   H6502     1.0  0.65566  0.89668  0.53315  1.0000
  H   H6503     1.0  0.82875  0.73854  0.51415  1.0000
  H   H6504     1.0  0.81951  0.75245  0.53257  1.0000
  H   H6505     1.0  0.57483  0.85901  0.39210  1.0000
  H   H6506     1.0  0.88838  0.74872  0.49834  1.0000
  C   C5433     1.0  0.68467  0.88519  0.42268  1.0000
  H   H6507     1.0  0.67067  0.90579  0.53275  1.0000
  Fe  Fe727     1.0  0.61558  0.86497  0.56346  1.0000
  H   H6508     1.0  0.55734  0.85258  0.39709  1.0000
  H   H6509     1.0  0.79868  0.75470  0.53866  1.0000
  H   H6510     1.0  0.66710  0.87574  0.44106  1.0000
  C   C5434     1.0  0.90978  0.76226  0.46274  1.0000
  C   C5435     1.0  0.91121  0.77718  0.46292  1.0000
  C   C5436     1.0  0.91126  0.75934  0.44798  1.0000
  C   C5437     1.0  0.91332  0.78862  0.44927  1.0000
  C   C5438     1.0  0.91326  0.77089  0.43440  1.0000
  C   C5439     1.0  0.91424  0.78552  0.43505  1.0000
  H   H6511     1.0  0.91067  0.78014  0.47364  1.0000
  H   H6512     1.0  0.91080  0.74824  0.44660  1.0000
  H   H6513     1.0  0.91443  0.79992  0.44972  1.0000
  H   H6514     1.0  0.91397  0.76841  0.42335  1.0000
  H   H6515     1.0  0.91577  0.79446  0.42455  1.0000
  H   H6516     1.0  0.94912  0.76646  0.53179  1.0000
  H   H6517     1.0  0.97400  0.82252  0.40088  1.0000
  C   C5440     1.0  0.72996  0.91250  0.41204  1.0000
  C   C5441     1.0  0.71378  0.87852  0.56172  1.0000
  H   H6518     1.0  0.57463  0.84199  0.38630  1.0000
  C   C5442     1.0  0.92766  0.76238  0.54790  1.0000
  H   H6519     1.0  0.49782  0.89383  0.46073  1.0000
  C   C5443     1.0  0.96415  0.77792  0.38442  1.0000
  N   N363      1.0  0.51011  0.86989  0.46177  1.0000
  N   N364      1.0  0.68331  0.97950  0.46033  1.0000
  C   C5444     1.0  0.66774  0.89427  0.53501  1.0000
  H   H6520     1.0  0.71938  0.91873  0.39236  1.0000
  H   H6521     1.0  0.69417  0.95511  0.46692  1.0000
  C   C5445     1.0  0.56786  0.85386  0.38759  1.0000
  C   C5446     1.0  0.95386  0.80456  0.38915  1.0000
  C   C5447     1.0  0.82623  0.91918  0.55527  1.0000
  H   H6522     1.0  0.97885  0.79215  0.50703  1.0000
  C   C5448     1.0  0.94220  0.81044  0.48773  1.0000
  H   H6523     1.0  0.92798  0.80152  0.51944  1.0000
  S   S1442     1.0  0.60002  0.85279  0.55851  1.0000
  S   S1443     1.0  0.88933  0.74119  0.53100  1.0000
  H   H6524     1.0  0.83898  0.77540  0.56725  1.0000
  C   C5449     1.0  0.86043  0.80936  0.40116  1.0000
  Fe  Fe728     1.0  0.96803  0.73996  0.45228  1.0000
  H   H6525     1.0  0.83579  0.77544  0.40398  1.0000
  H   H6526     1.0  0.90394  0.81272  0.56891  1.0000
  H   H6527     1.0  0.93314  0.78295  0.38218  1.0000
  H   H6528     1.0  0.79393  0.85938  0.38863  1.0000
  H   H6529     1.0  0.89811  0.73910  0.38095  1.0000
  H   H6530     1.0  0.80161  0.93742  0.54401  1.0000
  H   H6531     1.0  0.92013  0.88933  0.38185  1.0000
  H   H6532     1.0  0.85746  0.79075  0.37983  1.0000
  S   S1444     1.0  0.59650  0.88517  0.56974  1.0000
  S   S1445     1.0  0.67524  0.95254  0.51771  1.0000
  C   C5450     1.0  0.96782  0.79687  0.52916  1.0000
  C   C5451     1.0  0.68503  0.88390  0.39626  1.0000
  S   S1446     1.0  0.97814  0.77837  0.56717  1.0000
  H   H6533     1.0  0.95716  0.74329  0.42364  1.0000
  C   C5452     1.0  0.94351  0.76287  0.54381  1.0000
  C   C5453     1.0  0.65671  0.89385  0.56186  1.0000
  C   C5454     1.0  0.75655  0.92043  0.39054  1.0000
  H   H6534     1.0  0.70029  0.89458  0.40289  1.0000
  C   C5455     1.0  0.79875  0.78275  0.57363  1.0000
  C   C5456     1.0  0.96259  0.81042  0.42310  1.0000
  H   H6535     1.0  0.94231  0.81065  0.47557  1.0000
  H   H6536     1.0  0.92701  0.85100  0.56974  1.0000
  C   C5457     1.0  0.67261  0.87597  0.40290  1.0000
  H   H6537     1.0  0.50999  0.88919  0.39572  1.0000
  C   C5458     1.0  0.97698  0.77615  0.39117  1.0000
  C   C5459     1.0  0.76908  0.75760  0.38523  1.0000
  H   H6538     1.0  0.96678  0.79395  0.47216  1.0000
  Fe  Fe729     1.0  0.58123  0.87386  0.56308  1.0000
  H   H6539     1.0  0.75321  0.87674  0.39218  1.0000
  C   C5460     1.0  0.74944  0.74300  0.39890  1.0000
  C   C5461     1.0  0.79083  0.86100  0.37733  1.0000
  C   C5462     1.0  0.49972  0.85014  0.45575  1.0000
  H   H6540     1.0  0.69782  0.91586  0.47108  1.0000
  H   H6541     1.0  0.94607  0.82097  0.48750  1.0000
  C   C5463     1.0  0.73682  0.94835  0.54731  1.0000
  C   C5464     1.0  0.80134  0.91756  0.57318  1.0000
  H   H6542     1.0  0.95281  0.80015  0.40189  1.0000
  C   C5465     1.0  0.95388  0.80060  0.53978  1.0000
  C   C5466     1.0  0.62691  0.92684  0.56200  1.0000
  H   H6543     1.0  0.80643  0.78729  0.54821  1.0000
  H   H6544     1.0  0.74146  0.75138  0.39156  1.0000
  S   S1447     1.0  0.71310  0.94036  0.51748  1.0000
  S   S1448     1.0  0.68761  0.93545  0.39528  1.0000
  H   H6545     1.0  0.73295  0.94972  0.53682  1.0000
  S   S1449     1.0  0.68565  0.94973  0.42492  1.0000
  C   C5467     1.0  0.94550  0.75239  0.57071  1.0000
  S   S1450     1.0  0.72125  0.92452  0.56027  1.0000
  C   C5468     1.0  0.78612  0.91962  0.57069  1.0000
  H   H6546     1.0  0.76446  0.96176  0.39514  1.0000
  C   C5469     1.0  0.96760  0.79515  0.51461  1.0000
  H   H6547     1.0  0.52814  0.84871  0.46133  1.0000
  S   S1451     1.0  0.50130  0.83706  0.40312  1.0000
  C   C5470     1.0  0.95325  0.79721  0.51029  1.0000
  C   C5471     1.0  0.96320  0.76479  0.37979  1.0000
  S   S1452     1.0  0.97301  0.76019  0.43272  1.0000
  C   C5472     1.0  0.50675  0.86623  0.39810  1.0000
  H   H6548     1.0  0.82586  0.73831  0.38614  1.0000
  H   H6549     1.0  0.68945  0.88867  0.43039  1.0000
  H   H6550     1.0  0.94463  0.81541  0.38746  1.0000
  C   C5473     1.0  0.80491  0.94137  0.55279  1.0000
  N   N365      1.0  0.83492  0.78750  0.38011  1.0000
  H   H6551     1.0  0.66530  0.86270  0.56477  1.0000
  C   C5474     1.0  0.75151  0.95593  0.56119  1.0000
  H   H6552     1.0  0.94080  0.75073  0.40420  1.0000
  H   H6553     1.0  0.89446  0.73830  0.46952  1.0000
  S   S1453     1.0  0.95440  0.85382  0.39584  1.0000
  C   C5475     1.0  0.87201  0.81430  0.38845  1.0000
  H   H6554     1.0  0.75690  0.79585  0.56455  1.0000
  H   H6555     1.0  0.91756  0.73785  0.49656  1.0000
  H   H6556     1.0  0.96449  0.75857  0.55217  1.0000
  Fe  Fe730     1.0  0.69461  0.96211  0.51917  1.0000
  C   C5476     1.0  0.89798  0.84660  0.37710  1.0000
  C   C5477     1.0  0.63860  0.86575  0.38807  1.0000
  C   C5478     1.0  0.78172  0.79177  0.55494  1.0000
  Fe  Fe731     1.0  0.67854  0.95846  0.40207  1.0000
  H   H6557     1.0  0.67400  0.86313  0.54473  1.0000
  C   C5479     1.0  0.81981  0.73264  0.51497  1.0000
  S   S1454     1.0  0.64819  0.94351  0.56039  1.0000
  S   S1455     1.0  0.88023  0.75042  0.44055  1.0000
  C   C5480     1.0  0.93930  0.80053  0.52158  1.0000
  H   H6558     1.0  0.66036  0.97468  0.47133  1.0000
  C   C5481     1.0  0.96789  0.79410  0.48385  1.0000
  C   C5482     1.0  0.91661  0.85932  0.38721  1.0000
  C   C5483     1.0  0.94041  0.83848  0.42370  1.0000
  S   S1456     1.0  0.65379  0.95554  0.41176  1.0000
  C   C5484     1.0  0.74654  0.95765  0.54761  1.0000
  C   C5485     1.0  0.75424  0.96582  0.38956  1.0000
  C   C5486     1.0  0.82991  0.76092  0.38401  1.0000
  H   H6559     1.0  0.96521  0.80817  0.38396  1.0000
  H   H6560     1.0  0.83435  0.92676  0.54788  1.0000
  H   H6561     1.0  0.74722  0.74705  0.40980  1.0000
  H   H6562     1.0  0.86907  0.82510  0.38024  1.0000
  S   S1457     1.0  0.89183  0.73932  0.56621  1.0000
  H   H6563     1.0  0.88129  0.77634  0.57001  1.0000
  H   H6564     1.0  0.61065  0.91331  0.56298  1.0000
  H   H6565     1.0  0.81702  0.78749  0.40118  1.0000
  H   H6566     1.0  0.54100  0.85778  0.38080  1.0000
  C   C5487     1.0  0.94755  0.73783  0.42568  1.0000
  C   C5488     1.0  0.90205  0.83970  0.39137  1.0000
  S   S1458     1.0  0.98398  0.74107  0.49866  1.0000
  S   S1459     1.0  0.86844  0.75299  0.40910  1.0000
  H   H6567     1.0  0.83290  0.79573  0.40061  1.0000
  H   H6568     1.0  0.65564  0.88743  0.57412  1.0000
  H   H6569     1.0  0.88649  0.80237  0.56439  1.0000
  Fe  Fe732     1.0  0.98278  0.74875  0.47360  1.0000
  H   H6570     1.0  0.89330  0.76719  0.49182  1.0000
  H   H6571     1.0  0.70136  0.96817  0.47324  1.0000
  H   H6572     1.0  0.90280  0.78428  0.39545  1.0000
  C   C5489     1.0  0.93877  0.82561  0.43599  1.0000
  H   H6573     1.0  0.94477  0.78147  0.48516  1.0000
  H   H6574     1.0  0.64280  0.87414  0.39102  1.0000
  C   C5490     1.0  0.95303  0.83738  0.41100  1.0000
  H   H6575     1.0  0.93072  0.74120  0.47794  1.0000
  H   H6576     1.0  0.65639  0.86748  0.42350  1.0000
  C   C5491     1.0  0.94985  0.81161  0.43575  1.0000
  H   H6577     1.0  0.67004  0.96659  0.45474  1.0000
  N   N366      1.0  0.69181  0.88643  0.37935  1.0000
  H   H6578     1.0  0.75135  0.95524  0.38838  1.0000
  H   H6579     1.0  0.49379  0.88898  0.43870  1.0000
  H   H6580     1.0  0.78036  0.79529  0.54303  1.0000
  C   C5492     1.0  0.49314  0.87691  0.44193  1.0000
  H   H6581     1.0  0.82823  0.77091  0.55633  1.0000
  H   H6582     1.0  0.82416  0.94309  0.56823  1.0000
  H   H6583     1.0  0.92385  0.86376  0.39162  1.0000
  H   H6584     1.0  0.82619  0.73378  0.49033  1.0000
  H   H6585     1.0  0.97365  0.80381  0.48220  1.0000
  C   C5493     1.0  0.88726  0.80518  0.38631  1.0000
  C   C5494     1.0  0.66825  0.97687  0.45966  1.0000
  H   H6586     1.0  0.95371  0.83517  0.56430  1.0000
  H   H6587     1.0  0.90820  0.75869  0.56698  1.0000
  C   C5495     1.0  0.93966  0.80236  0.53600  1.0000
  H   H6588     1.0  0.55446  0.90158  0.57416  1.0000
  C   C5496     1.0  0.76848  0.79211  0.56703  1.0000
  H   H6589     1.0  0.62648  0.92334  0.57434  1.0000
  H   H6590     1.0  0.91939  0.78573  0.57395  1.0000
  H   H6591     1.0  0.71444  0.88909  0.37976  1.0000
  H   H6592     1.0  0.54721  0.88118  0.38385  1.0000
  H   H6593     1.0  0.97280  0.74063  0.37907  1.0000
  H   H6594     1.0  0.52643  0.88101  0.56439  1.0000
  C   C5497     1.0  0.87726  0.79912  0.57408  1.0000
  S   S1460     1.0  0.77313  0.92536  0.37704  1.0000
  C   C5498     1.0  0.92960  0.75231  0.57481  1.0000
  H   H6595     1.0  0.51683  0.90840  0.56660  1.0000
  N   N367      1.0  0.77567  0.87223  0.37613  1.0000
  H   H6596     1.0  0.76127  0.76532  0.37739  1.0000
  H   H6597     1.0  0.78126  0.75752  0.37839  1.0000
  H   H6598     1.0  0.69993  0.90707  0.37688  1.0000
  S   S1461     1.0  0.98921  0.76968  0.45605  1.0000
  S   S1462     1.0  0.68276  0.98065  0.38518  1.0000
  C   C5499     1.0  0.73763  0.93526  0.57393  1.0000
  C   C5500     1.0  0.51559  0.88442  0.57250  1.0000
  C   C5501     1.0  0.74679  0.94493  0.57442  1.0000
  C   C5502     1.0  0.70130  0.87398  0.57324  1.0000
  H   H6599     1.0  0.56663  0.88442  0.37703  1.0000
  C   C5503     1.0  0.76847  0.73554  0.37669  1.0000
  H   H6600     1.0  0.99012  0.75686  0.54212  1.0000
  H   H6601     1.0  0.72482  0.87745  0.56463  1.0000
  H   H6602     1.0  0.66418  0.94676  0.37598  1.0000
  H   H6603     1.0  0.91097  0.83347  0.57450  1.0000
  C   C5504     1.0  0.81666  0.93461  0.57464  1.0000
  C   C5505     1.0  0.85220  0.78336  0.37590  1.0000
  H   H6604     1.0  0.79061  0.84943  0.37596  1.0000
  C   C5506     1.0  0.64720  0.85904  0.37548  1.0000
  C   C5507     1.0  0.77753  0.88777  0.37583  1.0000
  S   S1463     1.0  0.99196  0.73256  0.45736  1.0000
  H   H6605     1.0  0.90911  0.75996  0.37543  1.0000
  C   C5508     1.0  0.82878  0.77656  0.37551  1.0000
  C   C5509     1.0  0.92669  0.76461  0.61538  1.0000
  H   H6606     1.0  0.79281  0.88344  0.66632  1.0000
  S   S1464     1.0  0.50722  0.91091  0.65977  1.0000
  Fe  Fe733     1.0  0.78841  0.95252  0.60830  1.0000
  S   S1465     1.0  0.76962  0.96038  0.62795  1.0000
  S   S1466     1.0  0.81312  0.94101  0.61051  1.0000
  Fe  Fe734     1.0  0.75481  0.94976  0.61981  1.0000
  S   S1467     1.0  0.73790  0.93592  0.63694  1.0000
  H   H6607     1.0  0.92533  0.82735  0.61021  1.0000
  S   S1468     1.0  0.77416  0.94044  0.60135  1.0000
  H   H6608     1.0  0.75085  0.90120  0.68368  1.0000
  Fe  Fe735     1.0  0.70542  0.87124  0.62985  1.0000
  S   S1469     1.0  0.70855  0.85281  0.65127  1.0000
  S   S1470     1.0  0.72434  0.88312  0.61432  1.0000
  Fe  Fe736     1.0  0.67269  0.86813  0.63197  1.0000
  S   S1471     1.0  0.67294  0.84896  0.65337  1.0000
  S   S1472     1.0  0.65138  0.88076  0.62210  1.0000
  Fe  Fe737     1.0  0.68375  0.86348  0.66138  1.0000
  S   S1473     1.0  0.67616  0.86827  0.68534  1.0000
  Fe  Fe738     1.0  0.69767  0.83967  0.64160  1.0000
  S   S1474     1.0  0.70714  0.81389  0.64399  1.0000
  S   S1475     1.0  0.68178  0.88342  0.64086  1.0000
  S   S1476     1.0  0.69629  0.85737  0.61924  1.0000
  Fe  Fe739     1.0  0.58788  0.88413  0.75947  1.0000
  H   H6609     1.0  0.87498  0.78588  0.61576  1.0000
  C   C5510     1.0  0.67777  0.93059  0.58377  1.0000
  Fe  Fe740     1.0  0.57132  0.87935  0.73709  1.0000
  S   S1477     1.0  0.57717  0.85341  0.74483  1.0000
  S   S1478     1.0  0.55856  0.89489  0.71861  1.0000
  C   C5511     1.0  0.98730  0.91430  0.67807  1.0000
  Fe  Fe741     1.0  0.60098  0.85646  0.74408  1.0000
  S   S1479     1.0  0.62082  0.83975  0.73240  1.0000
  H   H6610     1.0  0.66507  0.90677  0.61770  1.0000
  S   S1480     1.0  0.59555  0.88219  0.73453  1.0000
  Fe  Fe742     1.0  0.79215  0.76910  0.63443  1.0000
  S   S1481     1.0  0.81813  0.76159  0.62587  1.0000
  S   S1482     1.0  0.78107  0.79387  0.62457  1.0000
  H   H6611     1.0  0.69656  0.81757  0.71572  1.0000
  H   H6612     1.0  0.98605  0.89163  0.69245  1.0000
  Fe  Fe743     1.0  0.81822  0.75111  0.65091  1.0000
  S   S1483     1.0  0.83580  0.75021  0.66418  1.0000
  C   C5512     1.0  0.88628  0.78739  0.61673  1.0000
  S   S1484     1.0  0.78303  0.97475  0.59081  1.0000
  S   S1485     1.0  0.79262  0.76020  0.65967  1.0000
  S   S1486     1.0  0.78667  0.74776  0.63185  1.0000
  H   H6613     1.0  0.74646  0.76059  0.69936  1.0000
  Fe  Fe744     1.0  0.84858  0.85516  0.62428  1.0000
  S   S1487     1.0  0.86553  0.84875  0.63986  1.0000
  S   S1488     1.0  0.82340  0.86788  0.62945  1.0000
  C   C5513     1.0  0.78500  0.78304  0.58564  1.0000
  S   S1489     1.0  0.88922  0.82758  0.61523  1.0000
  H   H6614     1.0  0.66706  0.92450  0.62936  1.0000
  Fe  Fe745     1.0  0.86950  0.82468  0.63605  1.0000
  S   S1490     1.0  0.87121  0.80328  0.65521  1.0000
  Fe  Fe746     1.0  0.88380  0.85228  0.61767  1.0000
  S   S1491     1.0  0.90325  0.86536  0.61090  1.0000
  S   S1492     1.0  0.85113  0.83082  0.62246  1.0000
  H   H6615     1.0  0.50219  0.93173  0.68063  1.0000
  C   C5514     1.0  0.77660  0.90917  0.57922  1.0000
  C   C5515     1.0  0.53820  0.92260  0.74686  1.0000
  S   S1493     1.0  0.95659  0.74474  0.58500  1.0000
  C   C5516     1.0  0.49397  0.87746  0.59322  1.0000
  S   S1494     1.0  0.98344  0.88016  0.61515  1.0000
  S   S1495     1.0  0.52534  0.86935  0.68204  1.0000
  H   H6616     1.0  0.98605  0.81334  0.64230  1.0000
  S   S1496     1.0  0.50995  0.91608  0.61573  1.0000
  H   H6617     1.0  0.81591  0.75358  0.57974  1.0000
  H   H6618     1.0  0.52588  0.92839  0.75099  1.0000
  H   H6619     1.0  0.93094  0.85626  0.58535  1.0000
  H   H6620     1.0  0.89743  0.75255  0.64055  1.0000
  S   S1497     1.0  0.59050  0.90505  0.76593  1.0000
  Fe  Fe747     1.0  0.81268  0.73935  0.62537  1.0000
  S   S1498     1.0  0.95303  0.85948  0.64976  1.0000
  C   C5517     1.0  0.52366  0.90274  0.60547  1.0000
  C   C5518     1.0  0.52365  0.88690  0.61012  1.0000
  C   C5519     1.0  0.53444  0.87646  0.60164  1.0000
  C   C5520     1.0  0.54560  0.88170  0.58871  1.0000
  C   C5521     1.0  0.66438  0.91558  0.60666  1.0000
  C   C5522     1.0  0.53474  0.90803  0.59242  1.0000
  H   H6621     1.0  0.51518  0.88266  0.62004  1.0000
  H   H6622     1.0  0.53414  0.86426  0.60509  1.0000
  C   C5523     1.0  0.87406  0.78444  0.57701  1.0000
  H   H6623     1.0  0.53482  0.92029  0.58878  1.0000
  Fe  Fe748     1.0  0.76676  0.96349  0.58588  1.0000
  H   H6624     1.0  0.56725  0.96251  0.76548  1.0000
  H   H6625     1.0  0.66033  0.91026  0.59942  1.0000
  H   H6626     1.0  0.68235  0.79567  0.69568  1.0000
  H   H6627     1.0  0.82825  0.75744  0.58959  1.0000
  C   C5524     1.0  0.94107  0.76648  0.61626  1.0000
  Fe  Fe749     1.0  0.97739  0.86319  0.63758  1.0000
  H   H6628     1.0  0.75041  0.94366  0.58498  1.0000
  H   H6629     1.0  0.91479  0.84756  0.58900  1.0000
  H   H6630     1.0  0.95293  0.77958  0.62337  1.0000
  S   S1499     1.0  0.55864  0.86817  0.57835  1.0000
  H   H6631     1.0  0.81353  0.93126  0.64941  1.0000
  C   C5525     1.0  0.54376  0.94681  0.73105  1.0000
  C   C5526     1.0  0.91345  0.78562  0.62860  1.0000
  C   C5527     1.0  0.85284  0.79060  0.59847  1.0000
  C   C5528     1.0  0.93987  0.86000  0.63862  1.0000
  C   C5529     1.0  0.92640  0.85401  0.64591  1.0000
  C   C5530     1.0  0.91529  0.85508  0.63747  1.0000
  C   C5531     1.0  0.91740  0.86251  0.62177  1.0000
  C   C5532     1.0  0.93095  0.86835  0.61446  1.0000
  C   C5533     1.0  0.94224  0.86692  0.62278  1.0000
  H   H6632     1.0  0.92449  0.84864  0.65816  1.0000
  H   H6633     1.0  0.90487  0.85059  0.64323  1.0000
  H   H6634     1.0  0.93265  0.87419  0.60233  1.0000
  H   H6635     1.0  0.95255  0.87157  0.61703  1.0000
  H   H6636     1.0  0.55213  0.95460  0.72625  1.0000
  C   C5534     1.0  0.89778  0.76274  0.61011  1.0000
  C   C5535     1.0  0.98181  0.90064  0.68314  1.0000
  H   H6637     1.0  0.67904  0.82464  0.70867  1.0000
  C   C5536     1.0  0.84514  0.76549  0.66094  1.0000
  C   C5537     1.0  0.85352  0.76489  0.67176  1.0000
  C   C5538     1.0  0.86116  0.77671  0.66989  1.0000
  C   C5539     1.0  0.86059  0.78928  0.65714  1.0000
  C   C5540     1.0  0.85232  0.78989  0.64613  1.0000
  C   C5541     1.0  0.84459  0.77797  0.64802  1.0000
  H   H6638     1.0  0.85405  0.75522  0.68170  1.0000
  H   H6639     1.0  0.86761  0.77606  0.67837  1.0000
  H   H6640     1.0  0.85200  0.79938  0.63612  1.0000
  H   H6641     1.0  0.83833  0.77833  0.63951  1.0000
  C   C5542     1.0  0.54891  0.88739  0.70922  1.0000
  C   C5543     1.0  0.53868  0.89778  0.70016  1.0000
  C   C5544     1.0  0.53111  0.89232  0.69212  1.0000
  C   C5545     1.0  0.53400  0.87642  0.69277  1.0000
  C   C5546     1.0  0.54438  0.86600  0.70169  1.0000
  C   C5547     1.0  0.55166  0.87144  0.71007  1.0000
  H   H6642     1.0  0.53642  0.91012  0.69955  1.0000
  H   H6643     1.0  0.52303  0.90046  0.68546  1.0000
  H   H6644     1.0  0.54658  0.85366  0.70232  1.0000
  H   H6645     1.0  0.55934  0.86331  0.71719  1.0000
  C   C5548     1.0  0.72767  0.80838  0.63828  1.0000
  C   C5549     1.0  0.73518  0.79262  0.64146  1.0000
  C   C5550     1.0  0.75157  0.78805  0.63747  1.0000
  C   C5551     1.0  0.76052  0.79923  0.62994  1.0000
  C   C5552     1.0  0.75301  0.81496  0.62653  1.0000
  C   C5553     1.0  0.73664  0.81955  0.63083  1.0000
  H   H6646     1.0  0.72830  0.78392  0.64712  1.0000
  H   H6647     1.0  0.75726  0.77589  0.64009  1.0000
  H   H6648     1.0  0.75982  0.82366  0.62058  1.0000
  H   H6649     1.0  0.73096  0.83172  0.62821  1.0000
  C   C5554     1.0  0.66012  0.86092  0.69779  1.0000
  C   C5555     1.0  0.65623  0.84816  0.69559  1.0000
  C   C5556     1.0  0.64424  0.84163  0.70636  1.0000
  C   C5557     1.0  0.63568  0.84821  0.71905  1.0000
  C   C5558     1.0  0.63917  0.86132  0.72098  1.0000
  C   C5559     1.0  0.65155  0.86750  0.71049  1.0000
  H   H6650     1.0  0.66276  0.84301  0.68589  1.0000
  H   H6651     1.0  0.64157  0.83148  0.70486  1.0000
  H   H6652     1.0  0.63266  0.86640  0.73081  1.0000
  H   H6653     1.0  0.65455  0.87736  0.71227  1.0000
  C   C5560     1.0  0.64663  0.87231  0.60967  1.0000
  C   C5561     1.0  0.65523  0.85785  0.60674  1.0000
  C   C5562     1.0  0.65128  0.85141  0.59663  1.0000
  C   C5563     1.0  0.63883  0.85944  0.58931  1.0000
  C   C5564     1.0  0.63021  0.87388  0.59230  1.0000
  C   C5565     1.0  0.63406  0.88026  0.60254  1.0000
  H   H6654     1.0  0.66490  0.85162  0.61228  1.0000
  H   H6655     1.0  0.65794  0.84019  0.59438  1.0000
  H   H6656     1.0  0.78562  0.77975  0.59774  1.0000
  N   N368      1.0  0.69755  0.80999  0.69524  1.0000
  C   C5566     1.0  0.81606  0.92067  0.61569  1.0000
  C   C5567     1.0  0.80329  0.91359  0.62104  1.0000
  C   C5568     1.0  0.80567  0.89737  0.62506  1.0000
  C   C5569     1.0  0.82084  0.88814  0.62377  1.0000
  C   C5570     1.0  0.83367  0.89517  0.61835  1.0000
  C   C5571     1.0  0.83127  0.91145  0.61434  1.0000
  H   H6657     1.0  0.79157  0.92061  0.62254  1.0000
  H   H6658     1.0  0.79575  0.89195  0.62932  1.0000
  H   H6659     1.0  0.84543  0.88810  0.61747  1.0000
  C   C5572     1.0  0.81290  0.89297  0.66013  1.0000
  C   C5573     1.0  0.91239  0.77435  0.62129  1.0000
  C   C5574     1.0  0.80876  0.92089  0.65378  1.0000
  H   H6660     1.0  0.66971  0.94187  0.58547  1.0000
  H   H6661     1.0  0.81085  0.79600  0.63467  1.0000
  H   H6662     1.0  0.62737  0.89145  0.60479  1.0000
  H   H6663     1.0  0.76171  0.93353  0.65338  1.0000
  H   H6664     1.0  0.90396  0.75045  0.61360  1.0000
  S   S1500     1.0  0.49965  0.88149  0.65144  1.0000
  C   C5575     1.0  0.73461  0.92076  0.63097  1.0000
  C   C5576     1.0  0.72359  0.91222  0.64061  1.0000
  C   C5577     1.0  0.72033  0.90053  0.63569  1.0000
  C   C5578     1.0  0.72827  0.89726  0.62120  1.0000
  C   C5579     1.0  0.73956  0.90548  0.61182  1.0000
  C   C5580     1.0  0.74269  0.91724  0.61663  1.0000
  H   H6665     1.0  0.71729  0.91487  0.65174  1.0000
  H   H6666     1.0  0.71162  0.89417  0.64304  1.0000
  H   H6667     1.0  0.74568  0.90289  0.60066  1.0000
  H   H6668     1.0  0.75117  0.92367  0.60911  1.0000
  C   C5581     1.0  0.97911  0.82542  0.60376  1.0000
  H   H6669     1.0  0.67763  0.87201  0.57903  1.0000
  H   H6670     1.0  0.75299  0.90445  0.65506  1.0000
  H   H6671     1.0  0.71220  0.82648  0.68895  1.0000
  H   H6672     1.0  0.84327  0.78736  0.60779  1.0000
  H   H6673     1.0  0.74030  0.77460  0.67389  1.0000
  N   N369      1.0  0.80407  0.81904  0.63936  1.0000
  C   C5582     1.0  0.80488  0.83502  0.63009  1.0000
  C   C5583     1.0  0.81212  0.80811  0.62895  1.0000
  C   C5584     1.0  0.78729  0.81836  0.64458  1.0000
  C   C5585     1.0  0.81137  0.81446  0.65292  1.0000
  C   C5586     1.0  0.81979  0.82385  0.65581  1.0000
  C   C5587     1.0  0.81072  0.79986  0.66341  1.0000
  C   C5588     1.0  0.82721  0.81876  0.66831  1.0000
  C   C5589     1.0  0.81801  0.79499  0.67597  1.0000
  C   C5590     1.0  0.82630  0.80438  0.67837  1.0000
  H   H6674     1.0  0.81717  0.83617  0.62481  1.0000
  H   H6675     1.0  0.79888  0.83828  0.62027  1.0000
  H   H6676     1.0  0.79923  0.84385  0.63730  1.0000
  H   H6677     1.0  0.82488  0.80788  0.62521  1.0000
  H   H6678     1.0  0.80724  0.81131  0.61838  1.0000
  H   H6679     1.0  0.78102  0.82564  0.65322  1.0000
  H   H6680     1.0  0.78126  0.82247  0.63472  1.0000
  H   H6681     1.0  0.78557  0.80633  0.64992  1.0000
  H   H6682     1.0  0.82116  0.83504  0.64842  1.0000
  H   H6683     1.0  0.80502  0.79183  0.66169  1.0000
  H   H6684     1.0  0.83413  0.82579  0.66993  1.0000
  H   H6685     1.0  0.81783  0.78354  0.68347  1.0000
  H   H6686     1.0  0.83251  0.80028  0.68772  1.0000
  N   N370      1.0  0.55748  0.87880  0.63787  1.0000
  C   C5591     1.0  0.55260  0.89367  0.62704  1.0000
  C   C5592     1.0  0.54553  0.86943  0.64165  1.0000
  C   C5593     1.0  0.55757  0.88258  0.65251  1.0000
  C   C5594     1.0  0.57279  0.87019  0.63041  1.0000
  C   C5595     1.0  0.57436  0.86546  0.61652  1.0000
  C   C5596     1.0  0.58650  0.86644  0.63639  1.0000
  C   C5597     1.0  0.58866  0.85746  0.60913  1.0000
  C   C5598     1.0  0.60079  0.85846  0.62884  1.0000
  C   C5599     1.0  0.60183  0.85392  0.61530  1.0000
  H   H6687     1.0  0.55171  0.89185  0.61595  1.0000
  H   H6688     1.0  0.54088  0.90035  0.63200  1.0000
  H   H6689     1.0  0.56115  0.90118  0.62406  1.0000
  H   H6690     1.0  0.54362  0.86713  0.63119  1.0000
  H   H6691     1.0  0.53396  0.87542  0.64759  1.0000
  H   H6692     1.0  0.54889  0.85801  0.64958  1.0000
  H   H6693     1.0  0.54581  0.88902  0.65772  1.0000
  H   H6694     1.0  0.56045  0.87186  0.66150  1.0000
  H   H6695     1.0  0.56582  0.89016  0.65056  1.0000
  H   H6696     1.0  0.56456  0.86796  0.61115  1.0000
  H   H6697     1.0  0.58651  0.86953  0.64685  1.0000
  H   H6698     1.0  0.58952  0.85405  0.59849  1.0000
  H   H6699     1.0  0.61118  0.85581  0.63342  1.0000
  H   H6700     1.0  0.61288  0.84769  0.60950  1.0000
  H   H6701     1.0  0.84939  0.81319  0.60300  1.0000
  S   S1501     1.0  0.50709  0.94579  0.72612  1.0000
  C   C5600     1.0  0.76570  0.90403  0.65311  1.0000
  N   N371      1.0  0.67968  0.91980  0.59884  1.0000
  H   H6702     1.0  0.89158  0.79431  0.60541  1.0000
  H   H6703     1.0  0.80071  0.88430  0.60197  1.0000
  H   H6704     1.0  0.51656  0.97602  0.75867  1.0000
  C   C5601     1.0  0.68539  0.92708  0.60800  1.0000
  C   C5602     1.0  0.67762  0.92861  0.62341  1.0000
  C   C5603     1.0  0.69943  0.93253  0.60169  1.0000
  C   C5604     1.0  0.68359  0.93528  0.63178  1.0000
  C   C5605     1.0  0.70529  0.93918  0.61014  1.0000
  C   C5606     1.0  0.69737  0.94059  0.62514  1.0000
  H   H6705     1.0  0.88297  0.79453  0.62552  1.0000
  C   C5607     1.0  0.79676  0.89414  0.66335  1.0000
  C   C5608     1.0  0.81889  0.90632  0.65533  1.0000
  C   C5609     1.0  0.54042  0.93421  0.77180  1.0000
  S   S1502     1.0  0.86634  0.86069  0.60230  1.0000
  H   H6706     1.0  0.90361  0.76785  0.59813  1.0000
  C   C5610     1.0  0.89001  0.76423  0.63693  1.0000
  Fe  Fe750     1.0  0.49925  0.90668  0.64070  1.0000
  N   N372      1.0  0.89696  0.77218  0.62115  1.0000
  C   C5611     1.0  0.94172  0.77808  0.62291  1.0000
  H   H6707     1.0  0.70619  0.93126  0.59028  1.0000
  H   H6708     1.0  0.67769  0.93605  0.64362  1.0000
  H   H6709     1.0  0.71635  0.94273  0.60525  1.0000
  H   H6710     1.0  0.70222  0.94534  0.63182  1.0000
  Fe  Fe751     1.0  0.97836  0.75373  0.57985  1.0000
  H   H6711     1.0  0.92424  0.74791  0.58673  1.0000
  H   H6712     1.0  0.71981  0.97420  0.58730  1.0000
  Fe  Fe752     1.0  0.50581  0.88625  0.67138  1.0000
  C   C5612     1.0  0.98232  0.92570  0.66579  1.0000
  H   H6713     1.0  0.69349  0.83435  0.68386  1.0000
  C   C5613     1.0  0.49665  0.90421  0.58479  1.0000
  C   C5614     1.0  0.85636  0.80517  0.59583  1.0000
  C   C5615     1.0  0.50452  0.93731  0.70095  1.0000
  C   C5616     1.0  0.93618  0.79167  0.58233  1.0000
  H   H6714     1.0  0.95908  0.88283  0.66145  1.0000
  H   H6715     1.0  0.54145  0.91201  0.75574  1.0000
  H   H6716     1.0  0.70840  0.82211  0.67273  1.0000
  Fe  Fe753     1.0  0.87028  0.83566  0.60185  1.0000
  N   N373      1.0  0.54900  0.93324  0.74312  1.0000
  C   C5617     1.0  0.56483  0.92483  0.73652  1.0000
  S   S1503     1.0  0.56324  0.88309  0.76132  1.0000
  N   N374      1.0  0.93720  0.83157  0.58616  1.0000
  C   C5618     1.0  0.54953  0.93866  0.75664  1.0000
  C   C5619     1.0  0.55929  0.94895  0.75480  1.0000
  H   H6717     1.0  0.62061  0.88015  0.58672  1.0000
  H   H6718     1.0  0.80785  0.76001  0.59756  1.0000
  H   H6719     1.0  0.92839  0.79635  0.63469  1.0000
  C   C5620     1.0  0.70995  0.97655  0.58153  1.0000
  H   H6720     1.0  0.57355  0.93224  0.73229  1.0000
  H   H6721     1.0  0.56929  0.91476  0.74537  1.0000
  H   H6722     1.0  0.56483  0.92029  0.72652  1.0000
  C   C5621     1.0  0.80627  0.90451  0.58474  1.0000
  H   H6723     1.0  0.69149  0.80457  0.67653  1.0000
  H   H6724     1.0  0.80622  0.94079  0.58197  1.0000
  C   C5622     1.0  0.70317  0.82378  0.68476  1.0000
  C   C5623     1.0  0.93204  0.81917  0.58285  1.0000
  S   S1504     1.0  0.59573  0.85855  0.76894  1.0000
  H   H6725     1.0  0.56663  0.95280  0.74367  1.0000
  H   H6726     1.0  0.67580  0.81603  0.68772  1.0000
  H   H6727     1.0  0.68357  0.80478  0.71849  1.0000
  S   S1505     1.0  0.74623  0.97185  0.60370  1.0000
  H   H6728     1.0  0.73031  0.76920  0.72320  1.0000
  H   H6729     1.0  0.77206  0.89186  0.65279  1.0000
  H   H6730     1.0  0.53219  0.95383  0.73585  1.0000
  H   H6731     1.0  0.78554  0.93388  0.65516  1.0000
  C   C5624     1.0  0.68887  0.81432  0.71023  1.0000
  C   C5625     1.0  0.79259  0.92221  0.65705  1.0000
  H   H6732     1.0  0.70828  0.79131  0.72203  1.0000
  H   H6733     1.0  0.83143  0.90538  0.65226  1.0000
  N   N375      1.0  0.76905  0.90972  0.66514  1.0000
  H   H6734     1.0  0.74666  0.92603  0.66779  1.0000
  H   H6735     1.0  0.69330  0.89712  0.60682  1.0000
  H   H6736     1.0  0.98071  0.84739  0.60636  1.0000
  C   C5626     1.0  0.78607  0.90880  0.66203  1.0000
  H   H6737     1.0  0.73439  0.92646  0.58405  1.0000
  H   H6738     1.0  0.70282  0.86909  0.58504  1.0000
  C   C5627     1.0  0.75942  0.92573  0.66505  1.0000
  H   H6739     1.0  0.76879  0.88731  0.68111  1.0000
  H   H6740     1.0  0.76156  0.93084  0.67367  1.0000
  C   C5628     1.0  0.94068  0.80356  0.58557  1.0000
  N   N376      1.0  0.60299  0.87103  0.68800  1.0000
  C   C5629     1.0  0.61246  0.88078  0.68997  1.0000
  C   C5630     1.0  0.59088  0.88115  0.67944  1.0000
  C   C5631     1.0  0.59464  0.86412  0.70366  1.0000
  C   C5632     1.0  0.61337  0.85927  0.67928  1.0000
  C   C5633     1.0  0.61634  0.84305  0.68603  1.0000
  C   C5634     1.0  0.62130  0.86396  0.66367  1.0000
  C   C5635     1.0  0.62636  0.83230  0.67750  1.0000
  C   C5636     1.0  0.63126  0.85308  0.65527  1.0000
  C   C5637     1.0  0.63378  0.83729  0.66214  1.0000
  H   H6741     1.0  0.61824  0.88730  0.67869  1.0000
  H   H6742     1.0  0.60519  0.88948  0.69693  1.0000
  H   H6743     1.0  0.62189  0.87351  0.69607  1.0000
  H   H6744     1.0  0.58246  0.88962  0.68618  1.0000
  H   H6745     1.0  0.58392  0.87411  0.67726  1.0000
  H   H6746     1.0  0.59593  0.88820  0.66816  1.0000
  H   H6747     1.0  0.60287  0.85743  0.71130  1.0000
  H   H6748     1.0  0.58651  0.87319  0.70969  1.0000
  H   H6749     1.0  0.58747  0.85640  0.70308  1.0000
  H   H6750     1.0  0.61132  0.83837  0.69798  1.0000
  H   H6751     1.0  0.62016  0.87609  0.65789  1.0000
  H   H6752     1.0  0.62852  0.82001  0.68290  1.0000
  H   H6753     1.0  0.63730  0.85692  0.64341  1.0000
  H   H6754     1.0  0.64167  0.82895  0.65560  1.0000
  N   N377      1.0  0.95452  0.90790  0.65569  1.0000
  C   C5638     1.0  0.94044  0.92077  0.65677  1.0000
  C   C5639     1.0  0.96192  0.90827  0.63909  1.0000
  C   C5640     1.0  0.94917  0.89308  0.66242  1.0000
  C   C5641     1.0  0.96576  0.90984  0.66354  1.0000
  C   C5642     1.0  0.97178  0.92352  0.65856  1.0000
  H   H6755     1.0  0.94319  0.93227  0.65062  1.0000
  H   H6756     1.0  0.93152  0.91932  0.65147  1.0000
  H   H6757     1.0  0.93493  0.92128  0.66910  1.0000
  H   H6758     1.0  0.96487  0.91963  0.63264  1.0000
  H   H6759     1.0  0.95433  0.90578  0.63292  1.0000
  H   H6760     1.0  0.94306  0.89213  0.67483  1.0000
  H   H6761     1.0  0.94087  0.89184  0.65621  1.0000
  S   S1506     1.0  0.87348  0.82749  0.58017  1.0000
  H   H6762     1.0  0.81303  0.80045  0.58114  1.0000
  C   C5643     1.0  0.97118  0.89836  0.67605  1.0000
  H   H6763     1.0  0.76717  0.90307  0.68983  1.0000
  H   H6764     1.0  0.87814  0.76265  0.63766  1.0000
  C   C5644     1.0  0.71096  0.79650  0.69671  1.0000
  C   C5645     1.0  0.71485  0.78821  0.71119  1.0000
  C   C5646     1.0  0.72052  0.79118  0.68333  1.0000
  C   C5647     1.0  0.72754  0.77542  0.71206  1.0000
  C   C5648     1.0  0.73318  0.77843  0.68432  1.0000
  C   C5649     1.0  0.73667  0.77054  0.69866  1.0000
  H   H6765     1.0  0.96185  0.82137  0.57957  1.0000
  H   H6766     1.0  0.88881  0.77092  0.64572  1.0000
  C   C5650     1.0  0.77012  0.78774  0.58235  1.0000
  H   H6767     1.0  0.80692  0.78675  0.59855  1.0000
  H   H6768     1.0  0.71823  0.79682  0.67196  1.0000
  H   H6769     1.0  0.65506  0.92594  0.60908  1.0000
  H   H6770     1.0  0.76913  0.91135  0.64134  1.0000
  Fe  Fe754     1.0  0.78966  0.73796  0.65644  1.0000
  H   H6771     1.0  0.96761  0.88741  0.68044  1.0000
  H   H6772     1.0  0.67280  0.92569  0.57695  1.0000
  H   H6773     1.0  0.68727  0.89939  0.58916  1.0000
  H   H6774     1.0  0.82087  0.88166  0.66066  1.0000
  C   C5651     1.0  0.76379  0.89989  0.68060  1.0000
  C   C5652     1.0  0.92792  0.78759  0.62914  1.0000
  C   C5653     1.0  0.69124  0.90540  0.59579  1.0000
  C   C5654     1.0  0.86161  0.78030  0.58891  1.0000
  H   H6775     1.0  0.98708  0.93606  0.66154  1.0000
  H   H6776     1.0  0.96880  0.82471  0.61302  1.0000
  H   H6777     1.0  0.97308  0.89944  0.63790  1.0000
  H   H6778     1.0  0.51703  0.93621  0.69715  1.0000
  H   H6779     1.0  0.84120  0.91689  0.61026  1.0000
  H   H6780     1.0  0.95179  0.75889  0.61166  1.0000
  H   H6781     1.0  0.92716  0.75538  0.61005  1.0000
  C   C5655     1.0  0.95324  0.83243  0.57697  1.0000
  C   C5656     1.0  0.49614  0.93466  0.69166  1.0000
  H   H6782     1.0  0.53829  0.91858  0.73646  1.0000
  Fe  Fe755     1.0  0.57150  0.85736  0.76895  1.0000
  H   H6783     1.0  0.69916  0.97558  0.59077  1.0000
  H   H6784     1.0  0.88591  0.76214  0.60955  1.0000
  H   H6785     1.0  0.75983  0.78810  0.59179  1.0000
  C   C5657     1.0  0.54589  0.89748  0.58418  1.0000
  H   H6786     1.0  0.90312  0.79281  0.63429  1.0000
  C   C5658     1.0  0.79664  0.89417  0.59320  1.0000
  H   H6787     1.0  0.94081  0.83733  0.60591  1.0000
  C   C5659     1.0  0.68632  0.80639  0.68853  1.0000
  H   H6788     1.0  0.70283  0.90769  0.58893  1.0000
  H   H6789     1.0  0.94545  0.81704  0.60656  1.0000
  C   C5660     1.0  0.93721  0.82811  0.60291  1.0000
  C   C5661     1.0  0.78181  0.89651  0.59047  1.0000
  H   H6790     1.0  0.54232  0.94312  0.72107  1.0000
  Fe  Fe756     1.0  0.98785  0.77985  0.58635  1.0000
  N   N378      1.0  0.81433  0.77793  0.57751  1.0000
  H   H6791     1.0  0.50519  0.97644  0.68573  1.0000
  H   H6792     1.0  0.49355  0.91624  0.58556  1.0000
  C   C5662     1.0  0.50751  0.87324  0.58220  1.0000
  S   S1507     1.0  0.97718  0.79749  0.60095  1.0000
  S   S1508     1.0  0.98601  0.75596  0.60002  1.0000
  S   S1509     1.0  0.85654  0.76264  0.59125  1.0000
  H   H6793     1.0  0.54293  0.98148  0.74969  1.0000
  H   H6794     1.0  0.82345  0.92558  0.58261  1.0000
  H   H6795     1.0  0.76507  0.91093  0.57707  1.0000
  H   H6796     1.0  0.95100  0.80039  0.59024  1.0000
  C   C5663     1.0  0.98573  0.81355  0.59563  1.0000
  H   H6797     1.0  0.96867  0.93251  0.64877  1.0000
  S   S1510     1.0  0.50398  0.95139  0.76596  1.0000
  C   C5664     1.0  0.55976  0.95459  0.76723  1.0000
  H   H6798     1.0  0.95759  0.84147  0.57944  1.0000
  C   C5665     1.0  0.92704  0.84724  0.58232  1.0000
  H   H6799     1.0  0.81763  0.90220  0.58741  1.0000
  C   C5666     1.0  0.49258  0.97853  0.68971  1.0000
  C   C5667     1.0  0.49668  0.94159  0.71505  1.0000
  C   C5668     1.0  0.86860  0.80946  0.58362  1.0000
  C   C5669     1.0  0.81662  0.76161  0.58644  1.0000
  H   H6800     1.0  0.51208  0.86117  0.58146  1.0000
  H   H6801     1.0  0.77432  0.88852  0.59711  1.0000
  C   C5670     1.0  0.91850  0.82207  0.57685  1.0000
  C   C5671     1.0  0.98598  0.83816  0.60015  1.0000
  H   H6802     1.0  0.82708  0.78493  0.58991  1.0000
  C   C5672     1.0  0.92284  0.79492  0.57653  1.0000
  C   C5673     1.0  0.81533  0.78797  0.58716  1.0000
  H   H6803     1.0  0.94314  0.77988  0.58426  1.0000
  H   H6804     1.0  0.68904  0.93303  0.57626  1.0000
  H   H6805     1.0  0.71262  0.96691  0.57541  1.0000
  S   S1511     1.0  0.63463  0.85125  0.57628  1.0000
  H   H6806     1.0  0.53256  0.92651  0.77439  1.0000
  Fe  Fe757     1.0  0.56557  0.96246  0.84530  1.0000
  S   S1512     1.0  0.54269  0.96301  0.86248  1.0000
  Fe  Fe758     1.0  0.56887  0.92849  0.84459  1.0000
  S   S1513     1.0  0.54610  0.92674  0.86177  1.0000
  S   S1514     1.0  0.58107  0.90602  0.83667  1.0000
  Fe  Fe759     1.0  0.53706  0.95026  0.84815  1.0000
  H   H6807     1.0  0.59321  0.97580  0.85502  1.0000
  Fe  Fe760     1.0  0.55401  0.93949  0.87453  1.0000
  S   S1515     1.0  0.54826  0.93382  0.90063  1.0000
  S   S1516     1.0  0.55902  0.95124  0.82990  1.0000
  S   S1517     1.0  0.57766  0.93966  0.85852  1.0000
  C   C5674     1.0  0.54343  0.73773  0.94603  1.0000
  H   H6808     1.0  0.57645  0.79848  0.88583  1.0000
  C   C5675     1.0  0.54098  0.93995  0.78414  1.0000
  Fe  Fe761     1.0  0.56014  0.81777  0.95638  1.0000
  S   S1518     1.0  0.55166  0.83861  0.93893  1.0000
  S   S1519     1.0  0.57042  0.79486  0.94936  1.0000
  Fe  Fe762     1.0  0.56398  0.85102  0.94777  1.0000
  S   S1520     1.0  0.57946  0.86468  0.92843  1.0000
  Fe  Fe763     1.0  0.53157  0.84412  0.95843  1.0000
  S   S1521     1.0  0.50750  0.85294  0.95354  1.0000
  C   C5676     1.0  0.54502  0.74618  0.96853  1.0000
  S   S1522     1.0  0.57418  0.82957  0.96393  1.0000
  Fe  Fe764     1.0  0.57800  0.77300  0.85122  1.0000
  S   S1523     1.0  0.55213  0.78084  0.85838  1.0000
  S   S1524     1.0  0.59274  0.78739  0.83186  1.0000
  H   H6809     1.0  0.55696  0.81154  0.87061  1.0000
  S   S1525     1.0  0.55281  0.74884  0.88547  1.0000
  H   H6810     1.0  0.64964  0.76283  0.86303  1.0000
  H   H6811     1.0  0.51864  0.74738  0.89125  1.0000
  Fe  Fe765     1.0  0.55596  0.77286  0.88252  1.0000
  S   S1526     1.0  0.54117  0.78973  0.89713  1.0000
  H   H6812     1.0  0.51729  0.83652  0.91178  1.0000
  S   S1527     1.0  0.58214  0.76664  0.87534  1.0000
  H   H6813     1.0  0.51034  0.79072  0.87984  1.0000
  C   C5677     1.0  0.57724  0.81010  0.88663  1.0000
  S   S1528     1.0  0.50764  0.76543  0.95114  1.0000
  H   H6814     1.0  0.59241  0.88104  0.82061  1.0000
  C   C5678     1.0  0.54333  0.88041  0.90230  1.0000
  H   H6815     1.0  0.56832  0.81278  0.89715  1.0000
  C   C5679     1.0  0.51251  0.92253  0.82544  1.0000
  H   H6816     1.0  0.50451  0.80055  0.95259  1.0000
  H   H6817     1.0  0.55390  0.79019  0.81396  1.0000
  H   H6818     1.0  0.54959  0.88838  0.90386  1.0000
  H   H6819     1.0  0.52290  0.76223  0.90503  1.0000
  H   H6820     1.0  0.53642  0.88374  0.79163  1.0000
  C   C5680     1.0  0.50629  0.82339  0.95298  1.0000
  C   C5681     1.0  0.50362  0.85511  0.89770  1.0000
  H   H6821     1.0  0.52776  0.89133  0.92875  1.0000
  C   C5682     1.0  0.56611  0.74323  0.81936  1.0000
  H   H6822     1.0  0.51523  0.81902  0.95970  1.0000
  C   C5683     1.0  0.56219  0.79332  0.93496  1.0000
  C   C5684     1.0  0.54772  0.80279  0.93264  1.0000
  C   C5685     1.0  0.54109  0.80127  0.92130  1.0000
  C   C5686     1.0  0.54893  0.79031  0.91223  1.0000
  C   C5687     1.0  0.56322  0.78058  0.91477  1.0000
  C   C5688     1.0  0.56988  0.78214  0.92609  1.0000
  H   H6823     1.0  0.54147  0.81108  0.93980  1.0000
  H   H6824     1.0  0.52987  0.80858  0.91958  1.0000
  H   H6825     1.0  0.56923  0.77198  0.90791  1.0000
  H   H6826     1.0  0.58103  0.77474  0.92793  1.0000
  C   C5689     1.0  0.56665  0.82936  0.80147  1.0000
  C   C5690     1.0  0.57327  0.96461  0.90241  1.0000
  C   C5691     1.0  0.59056  0.81058  0.80583  1.0000
  C   C5692     1.0  0.58275  0.80406  0.82064  1.0000
  C   C5693     1.0  0.56700  0.81058  0.82603  1.0000
  C   C5694     1.0  0.55893  0.82311  0.81642  1.0000
  C   C5695     1.0  0.52187  0.85869  0.91031  1.0000
  H   H6827     1.0  0.57661  0.87399  0.84917  1.0000
  H   H6828     1.0  0.56101  0.80607  0.83757  1.0000
  H   H6829     1.0  0.54668  0.82795  0.82055  1.0000
  C   C5696     1.0  0.55768  0.91503  0.90868  1.0000
  C   C5697     1.0  0.57079  0.90686  0.89981  1.0000
  C   C5698     1.0  0.57780  0.89159  0.90623  1.0000
  C   C5699     1.0  0.57142  0.88427  0.92134  1.0000
  C   C5700     1.0  0.55836  0.89247  0.93025  1.0000
  C   C5701     1.0  0.55164  0.90791  0.92398  1.0000
  H   H6830     1.0  0.57556  0.91231  0.88801  1.0000
  H   H6831     1.0  0.58797  0.88530  0.89935  1.0000
  H   H6832     1.0  0.55352  0.88692  0.94197  1.0000
  H   H6833     1.0  0.54155  0.91424  0.93090  1.0000
  C   C5702     1.0  0.51117  0.94755  0.83034  1.0000
  H   H6834     1.0  0.55915  0.90140  0.80495  1.0000
  H   H6835     1.0  0.55585  0.83119  0.85991  1.0000
  C   C5703     1.0  0.57921  0.86757  0.87272  1.0000
  H   H6836     1.0  0.51548  0.90999  0.82856  1.0000
  C   C5704     1.0  0.51580  0.93130  0.83395  1.0000
  H   H6837     1.0  0.59806  0.81685  0.85916  1.0000
  H   H6838     1.0  0.52879  0.87126  0.93126  1.0000
  H   H6839     1.0  0.54614  0.88072  0.88968  1.0000
  H   H6840     1.0  0.52141  0.92552  0.84359  1.0000
  C   C5705     1.0  0.58438  0.90594  0.81685  1.0000
  C   C5706     1.0  0.58142  0.91972  0.80576  1.0000
  C   C5707     1.0  0.51468  0.84892  0.90684  1.0000
  C   C5708     1.0  0.58596  0.81667  0.85901  1.0000
  C   C5709     1.0  0.58982  0.89173  0.81215  1.0000
  H   H6841     1.0  0.57754  0.93074  0.80916  1.0000
  H   H6842     1.0  0.54497  0.73952  0.93357  1.0000
  H   H6843     1.0  0.59603  0.88031  0.79297  1.0000
  N   N379      1.0  0.56896  0.77038  0.80511  1.0000
  H   H6844     1.0  0.55192  0.90046  0.78950  1.0000
  C   C5710     1.0  0.54734  0.74800  0.95224  1.0000
  H   H6845     1.0  0.53323  0.86827  0.80760  1.0000
  H   H6846     1.0  0.58906  0.80878  0.88862  1.0000
  H   H6847     1.0  0.52374  0.90439  0.88871  1.0000
  S   S1529     1.0  0.54297  0.85864  0.96596  1.0000
  C   C5711     1.0  0.56121  0.87172  0.80637  1.0000
  N   N380      1.0  0.54653  0.88314  0.81050  1.0000
  H   H6848     1.0  0.54948  0.82703  0.88075  1.0000
  C   C5712     1.0  0.58868  0.90508  0.78550  1.0000
  Fe  Fe766     1.0  0.55120  0.75628  0.86060  1.0000
  Fe  Fe767     1.0  0.57870  0.74317  0.87582  1.0000
  C   C5713     1.0  0.51073  0.76936  0.90634  1.0000
  H   H6849     1.0  0.52246  0.88783  0.80888  1.0000
  H   H6850     1.0  0.55188  0.75761  0.94416  1.0000
  C   C5714     1.0  0.53360  0.86456  0.85318  1.0000
  C   C5715     1.0  0.57962  0.85578  0.88610  1.0000
  H   H6851     1.0  0.53490  0.85913  0.83183  1.0000
  C   C5716     1.0  0.54203  0.88764  0.85168  1.0000
  N   N381      1.0  0.50324  0.76970  0.89380  1.0000
  C   C5717     1.0  0.54907  0.89895  0.80234  1.0000
  H   H6852     1.0  0.51040  0.88473  0.93072  1.0000
  C   C5718     1.0  0.53636  0.87455  0.86049  1.0000
  S   S1530     1.0  0.57685  0.74897  0.85101  1.0000
  C   C5719     1.0  0.56575  0.75789  0.96838  1.0000
  C   C5720     1.0  0.50692  0.88101  0.89528  1.0000
  H   H6853     1.0  0.55422  0.78357  0.78899  1.0000
  H   H6854     1.0  0.54444  0.89533  0.85732  1.0000
  C   C5721     1.0  0.59186  0.89128  0.79652  1.0000
  H   H6855     1.0  0.54961  0.77186  0.82506  1.0000
  H   H6856     1.0  0.49779  0.84749  0.89539  1.0000
  H   H6857     1.0  0.58086  0.87889  0.87249  1.0000
  S   S1531     1.0  0.51242  0.73224  0.92984  1.0000
  H   H6858     1.0  0.49630  0.95226  0.79915  1.0000
  C   C5722     1.0  0.52120  0.90188  0.90161  1.0000
  C   C5723     1.0  0.58252  0.82318  0.79623  1.0000
  H   H6859     1.0  0.56544  0.76496  0.78526  1.0000
  H   H6860     1.0  0.59389  0.94706  0.90662  1.0000
  C   C5724     1.0  0.57503  0.85013  0.85962  1.0000
  C   C5725     1.0  0.57586  0.83769  0.87288  1.0000
  H   H6861     1.0  0.55351  0.74687  0.82119  1.0000
  H   H6862     1.0  0.62205  0.76604  0.87748  1.0000
  H   H6863     1.0  0.58170  0.92999  0.78157  1.0000
  C   C5726     1.0  0.51824  0.87504  0.90464  1.0000
  H   H6864     1.0  0.54212  0.78199  0.97435  1.0000
  S   S1532     1.0  0.53182  0.75166  0.85325  1.0000
  S   S1533     1.0  0.51406  0.95891  0.84125  1.0000
  N   N382      1.0  0.52624  0.88503  0.90836  1.0000
  H   H6865     1.0  0.56658  0.77728  0.82616  1.0000
  H   H6866     1.0  0.52917  0.85439  0.86008  1.0000
  C   C5727     1.0  0.65349  0.73795  0.86658  1.0000
  H   H6867     1.0  0.56540  0.87310  0.79361  1.0000
  H   H6868     1.0  0.57848  0.83250  0.89704  1.0000
  C   C5728     1.0  0.50608  0.75340  0.89225  1.0000
  C   C5729     1.0  0.51105  0.77866  0.87908  1.0000
  C   C5730     1.0  0.52316  0.88302  0.92544  1.0000
  H   H6869     1.0  0.54040  0.97653  0.80597  1.0000
  H   H6870     1.0  0.57346  0.74619  0.97113  1.0000
  H   H6871     1.0  0.52361  0.77306  0.87598  1.0000
  H   H6872     1.0  0.54078  0.77715  0.95745  1.0000
  C   C5731     1.0  0.57792  0.84106  0.88628  1.0000
  S   S1534     1.0  0.50142  0.91937  0.80184  1.0000
  H   H6873     1.0  0.56841  0.76211  0.95561  1.0000
  C   C5732     1.0  0.55850  0.82309  0.87082  1.0000
  H   H6874     1.0  0.50851  0.90630  0.90612  1.0000
  H   H6875     1.0  0.54843  0.76632  0.80086  1.0000
  C   C5733     1.0  0.50384  0.95498  0.81795  1.0000
  H   H6876     1.0  0.50313  0.75273  0.88156  1.0000
  H   H6877     1.0  0.54858  0.86859  0.90839  1.0000
  Fe  Fe768     1.0  0.49819  0.74760  0.94631  1.0000
  C   C5734     1.0  0.57685  0.86476  0.85955  1.0000
  H   H6878     1.0  0.53384  0.93660  0.79556  1.0000
  C   C5735     1.0  0.58377  0.91928  0.79012  1.0000
  H   H6879     1.0  0.50413  0.76434  0.91786  1.0000
  N   N383      1.0  0.57445  0.82214  0.87245  1.0000
  H   H6880     1.0  0.57313  0.84861  0.84912  1.0000
  H   H6881     1.0  0.53432  0.87201  0.87300  1.0000
  H   H6882     1.0  0.56727  0.95572  0.90323  1.0000
  H   H6883     1.0  0.60279  0.80568  0.80162  1.0000
  H   H6884     1.0  0.50024  0.96751  0.81508  1.0000
  H   H6885     1.0  0.52890  0.97917  0.89903  1.0000
  S   S1535     1.0  0.55621  0.84488  0.78961  1.0000
  C   C5736     1.0  0.50056  0.83945  0.94852  1.0000
  C   C5737     1.0  0.58868  0.95942  0.90439  1.0000
  C   C5738     1.0  0.59745  0.97002  0.90328  1.0000
  H   H6886     1.0  0.60945  0.96596  0.90462  1.0000
  H   H6887     1.0  0.57066  0.87295  0.81102  1.0000
  C   C5739     1.0  0.58078  0.77976  0.79618  1.0000
  H   H6888     1.0  0.54965  0.90101  0.82943  1.0000
  H   H6889     1.0  0.58154  0.85800  0.89636  1.0000
  H   H6890     1.0  0.54653  0.96637  0.89231  1.0000
  H   H6891     1.0  0.58351  0.82377  0.84765  1.0000
  C   C5740     1.0  0.50522  0.93005  0.81295  1.0000
  C   C5741     1.0  0.54227  0.88087  0.82761  1.0000
  H   H6892     1.0  0.52751  0.90903  0.90462  1.0000
  H   H6893     1.0  0.53004  0.85337  0.91781  1.0000
  H   H6894     1.0  0.53847  0.90801  0.80540  1.0000
  C   C5742     1.0  0.53410  0.88061  0.80454  1.0000
  C   C5743     1.0  0.53667  0.86752  0.83699  1.0000
  H   H6895     1.0  0.50900  0.73516  0.85413  1.0000
  H   H6896     1.0  0.55104  0.95437  0.79154  1.0000
  H   H6897     1.0  0.58854  0.82787  0.78466  1.0000
  C   C5744     1.0  0.56616  0.98075  0.89931  1.0000
  H   H6898     1.0  0.57523  0.79208  0.79163  1.0000
  C   C5745     1.0  0.54502  0.89079  0.83548  1.0000
  H   H6899     1.0  0.58593  0.80455  0.85896  1.0000
  H   H6900     1.0  0.55974  0.85957  0.81120  1.0000
  C   C5746     1.0  0.59227  0.74809  0.81026  1.0000
  H   H6901     1.0  0.50333  0.89327  0.89048  1.0000
  C   C5747     1.0  0.55884  0.77131  0.79462  1.0000
  C   C5748     1.0  0.55930  0.77773  0.81812  1.0000
  H   H6902     1.0  0.61030  0.74303  0.88929  1.0000
  C   C5749     1.0  0.50021  0.81293  0.94900  1.0000
  H   H6903     1.0  0.51173  0.78101  0.90667  1.0000
  C   C5750     1.0  0.57589  0.75391  0.81138  1.0000
  C   C5751     1.0  0.54118  0.97437  0.90041  1.0000
  H   H6904     1.0  0.58830  0.78028  0.80359  1.0000
  C   C5752     1.0  0.55060  0.95009  0.78188  1.0000
  C   C5753     1.0  0.62902  0.75457  0.87637  1.0000
  H   H6905     1.0  0.60065  0.75532  0.80471  1.0000
  H   H6906     1.0  0.58839  0.77501  0.78605  1.0000
  H   H6907     1.0  0.49945  0.74641  0.90258  1.0000
  H   H6908     1.0  0.54076  0.96733  0.91248  1.0000
  C   C5754     1.0  0.50127  0.94628  0.80907  1.0000
  H   H6909     1.0  0.66542  0.73711  0.86004  1.0000
  C   C5755     1.0  0.53922  0.77308  0.97021  1.0000
  H   H6910     1.0  0.50578  0.77933  0.86931  1.0000
  C   C5756     1.0  0.49978  0.87110  0.89189  1.0000
  H   H6911     1.0  0.56931  0.76601  0.97305  1.0000
  C   C5757     1.0  0.62243  0.74163  0.88304  1.0000
  C   C5758     1.0  0.64455  0.75273  0.86822  1.0000
  C   C5759     1.0  0.59833  0.73256  0.81674  1.0000
  N   N384      1.0  0.54903  0.75739  0.97478  1.0000
  C   C5760     1.0  0.53212  0.73168  0.85785  1.0000
  S   S1536     1.0  0.53895  0.82218  0.97530  1.0000
  H   H6912     1.0  0.52657  0.77314  0.97503  1.0000
