data_image0
_chemical_formula_structural       CSFeS2FeSHSCSCHCS2HSH2SHFeS2FeS2FeHFeS3H4SFeCHCFeS2FeS2FeSFeS3HC2HCH3C8H4C6H4SH3CSC5H2CHCH3C6H4CH2FeC4HC6H2CHCHC3H2C6H4C3H2CH3C3HCNC2H3C2H5SNH3CH3C3NHCH2SHCH3CHCH2CH2CNCH2C2HCH2CHNHC4H2CFeH3CSCHCH6CHFeHFeH3CNCH8C3H2CH2CH2CH2CNC9H14CH4C4HCNCHFeCHCHNH5C3HCH3CH4CHCHCH2FeC2FeHSC2FeHCH6CNCHC2H4CHC3FeSHC2FeH2C3NH7NC2SH6S2HCH2CH2SC3FeC2H2SCSC2FeS2FeS2FeSFeS3H2CH2SCFeSHCFeS2FeS2FeSFeS3FeS2FeS2FeSFeS3H3FeS2FeS2FeSFeS3HFe2SC2SFeS2FeS2C6H7CHCHC6H4CSC2HCHCH2CHC3HCH2C6H4C4H2C6H4C6H6C6H2SHC6H4C6H4C7H3C6H2CHC2HSH2SHCSH2CH9CHFeC8HCH2CH4NC7H15NC9H11CHCHFeH2C8HNHCFeHSH6CH2SCH3CH3CNC2SC3H2CNHCH3CH3NC9H5FeHNHCH2C2NHC5H3CH2FeNHCH2CH2CH4SHCSHC2H2CH5CHC2H2C2H4CHSHCHCHC2HCH2CSCNH5CHC2HC2NH2N2HSHC2H5CH4CH4CH2CHCH3CNC3HC2HC4HSH10FeC2SHFeCHCHCH3FeCHCHCSHCSH4C2H2CH2C2HC2FeS2H2FeSC2SHSHC2SH2C2H2FeS2FeS2FeSFeS3FeSFeS3FeS2FeS2FeSFeS3HFeS2H3CFeSHCHCFeHC7H4C6H4C4HCH2CHC7H3C5SH5C2HSH2C7H2CHC7H6CHFeH6C3H3C6H4CHC4H4CSCSCHNC6HC2H8C2H4C2HNH2SHC2SH4C7HSCHC7HCH3C2H4CHC2FeCH3FeHC4HCH2FeCHCFeHFeCHS2CHCHCSC4HC2S2H2SH4CHC4HCH2CHCHCHCSH4C3H2SCSHCH4CHNHNC9H12C5FeHNCH3CHCHFeCH3C2H2CFeSC2SCH2SH3CH4NHCSCNH3C2N2HC2SH3CH2CHC3SH2CSCH2CHCH3CH2CNH5C2H4CH4NCH4CSCHFeHCSC2H2CHSH2SHCH2CHFe2H2CHCH2CHCH7C2NHNH3C3SH2CH3NC3H2C2HCSH3CNCH5C2HC3H2CH2C2H4SH3C4H3FeH2SH3CHC2HSH3SC3H2FeSHSFeS2FeS2FeSFeS3CSHCS2CHCFeS2FeS2FeSFeS3FeS2FeH2SFeH2C3HC2HCHCH2CFeHSH3C5FeNH3C7H2C2H3CSCH2CFe2C6H4C6H4C6H4C6H6CFeC7H7NH2C6H2C9H3CH2CH2FeSHC2HCSH2CSH2C2H2S2H3CNC9H14NC8SH13FeHCH2CFeH3C2H3CH7C2HCH4CHCH3CHCSCH3CHCHCHCHCH4C2SH2SHSC2HCNHCHSH3CH2SCHCHSCH2CNCH2CHNHFeH2NC6HSH3NCSHCHFeH3C2HC2HFeH2C3HS2HC2HC3H4CHCH3SCHCHC4H3SC2HCSNCHC2HCH4CFeHC2H2CH4C2HCHC3H2C3HC3H2C3HFeH2NC2HCFeH2CHCS2HC2H2CH2C2NC2H3SH4C3H2SHSH3CH2SFeCSH2C7HSH2NCHC2H2C3FeC2HC2H3C2H4C2SH2NCHCHSHC3HC3SHCHCHC3SH7FeSFeS2FeSFeS2FeS2FeS2FeSFeS3Fe2S2FeSFeS2CS2H2FeHSHCHCSFeS2FeSFeSHSH3CHCHCHFeS2FeS2CHC6H4C2H2C2H2CHCH3CHCHC6H5SHC6H4C6H4C6H5C6H4C6H4CH2CH4SH2NC5HCH11SHCH2NHC3HNC9H12NH2C2H2C2H2CH5SHC2NC8H7CHCH3CH2CSH2SCHC2SC4HFe2HC2HCSC3HC2HC2HC2H4C2HCHCH2C2SHC4H2CH2C3H2C3HCHFeC2H2CNHC2H2SC2H2C3HSH2CHCH2C3SCH2C2H4C2NHC4H2C3H2C2HNCHCHCH2CHNH4NHSCH4C4H4CH3CSC2HCHCH3CHC4HCFeH3CHCH7C2HC2H5SC3SHCH6NH3C2HCHC2HSHCHCH4CHC2HC2SH2SH2FeSH4FeSHS2HCHFeS2FeS2FeSFeS3H2SHCHFeS2FeHFeC2HSCH2C2HC2SHC6H4C4HCH2SH3C2SH4C6H6C2SCSH3C2H4CSNSHC2H6NH2C7H2CH3C3HNH2SC2HC2H8CH3CSH2CHCH2C2SC3HCHNCHCHC3H2FeH2CHC2HC2HFeH2FeHC3HCH2FeC2H2CHCH4NCH4FeHC3HNH3CS2HNFeS2FeS2FeCFeS3FeS2FeS2FeSFeS3FeS2FeS2FeSFeS3FeS2FeS3HFeS2FeSCFeHFeS3HC2HSCSHCH3FeS2FeHFeSHCS2H3C8H4CH3C2H4CHC4H2C6H5NHCHCH3C6H4C6H4C6H4C6H4C6H4C2HCHCNH2C6H4C6H4FeHFeC2HC4H2SHNC9H15CNCHSH2S2CNC9H14NC9H11CH2CSHNHCHCNHC2NH2C2HC2H2CSCHC2H2NH2C2H2C2HC2H2CH6SH4C3H2CSCHC2HCHS2CSC3FeSFeSCFe2CH2CHC3H2CNH5C2H2CHCH7C2HCSFeH3CSC2H4CH5CHC4FeHC2H2CH5C2HCHCHC2HCHCH5C2H3CH3C2H4NCHSCSHCH7CHSHC2FeCHCFeSN2HCH4CNHC2HSH2C2HCHCH2CFeCHC2HC2H6C2H3C2H6FeHCH4CS2HC2H3CHCSHCHCHC3HSCH9FeC2HCSC2H3NFeSHCSFeC3H2FeS2H3S2H2CFeSCHFeCSFeCSH3CS2HCSCHSH2SC2H4S2CHC8H4FeH2FeC3HCH2C2H4NC6H4C6H5C2H3CFeCHCSC2HC2HCNH4CSH2CH2C2SH2CNHSHCNHC2H2CHC2FeH5CHC3HSHSH2CNCHNC9H6CH5CHCH5CH2CHC2H2CH2C3H4CHC2H4SHCH3CH3C2H4FeS3FeS2HCFeS2HCH2CSCFeSHFeSFeSCFeS2H2CH2CFeS2FeS2FeSFeS3CFe2SCFeS2FeSFeS3CH2SCH3C2FeHSCHN2C7H4CH2C5H3CHNCHC3SC10H4SCSCHSH4C2HC3HC8H5C6H4CH2SC2H9CFeH2NC3H12SC2H5FeCH2C2H2N2H2CFeSHCH2CSC2H3CHSC2H3CS2FeCNH6CH3C2H2C12H8C2SH2SHC2NFeHCH3C4HCH4CNHC5HCHCSCH3CH4CSHC3H2C3SHCHC3NCH6FeH2FeC2HFeCHCHCH2C2NCHSH3CH2CHCFeC2HSFeCH2C3H3CHCSC2FeC2HFeCH2C2H2CH9CH2CH5CSFeCH7C3HCNCSHSCHC2H4SHCH3C2HC7H2C3H2NHC4HCHSH2FeSCFeS2FeSFeS2FeSHFeS2FeHFeS3FeHSFeS2Fe3S3FeS2FeS2FeSFeS3HSHSCFeS2HCSHFeSHS2HCHC2FeS2FeSCHFeSHSH2C3H4C6H4C3HC3H2CHCHC6H2C4SH2C2NC3H5C6H4C6H4C4H4CFeHCH3SCH2NH5C8H6C5H3CSC4HCFeHCHC3HC5NHCH6C2H2C2H4NC9H16CHC3H2C2HCHC3H5CH2CHCH2NC6H10NC6H11NC9H13CSCHCH3NH2CHSCNCHCHFeC3H5CH2CHSC2HC2HC2H2CHCH3CHFeH2CH5C2HC2H3NC2H2SH2NCH2CHCHCH3CHFeC3NH2C2H4C5NHCH3CNH2C2HC2HCSHFeCH2S2HCH6CH2SCHS2HSC2H3CSCHFeC4HC3SCHCH2CHSH2C2HCH5SHCNHCH2SH3FeCNH8CH3SHCH2CH2C2HCSCHCSFeSHFeS2FeSFeS3HSHFeSFeCSCNCHC2HCFeHFeHCFeS2FeHFeHS2FeS2FeS2FeSFeS3FeS2FeS2C2FeHS2FeH5CH2CHCH2SCHC6H4C7H4CHC4NCH2CHCH4SHCHC7H4CNHCH4CHNC2H3C7H5CH5FeNHC6HC2HC2HCSCHC2H4CHSH2CHCH3CNH2SC5H4CH7CH6C2H2CH4CHCH2CHCH2CHC2HSC2H3SHCNC5HSH3SH2CHCH3CSHCNHC6SH4C5HC2HCH2CH5CHC3H2CH2CHCH2CH3NC9H6S2C2H3CH4C2SHC2HCSH2C2H3CH2CHSH2NHCSHCHC2H2C2HNH2CH3C2HC3HCSHCH2SCH2SH2CH2CFeS2FeS2FeSFeS3FeS2FeS2FeSFeS3FeS2FeS2FeS2FeS2FeSFeS3H2C2H4C2H2SH2S2HSHCHCH6CH5CH3C6HCH2C6H4C6H3C7H4C6H4CH5FeH3C2HSHC8H4CHC3H2C2NCH2CHC4HCFeCHCSH3CSCHCHCH3FeHC3H2CHCNC8H4CSH5CH2CFeHNH2C5HC2SCHCH2NH2CH4SH2C2FeC5H5C2H4C2HFeHC2HC2SH3N2H2C2H4CNH2NC9H16CH2C2HC2HCHC3H2C2H4C2H3C2H2CHCHNH2CHFeCHC2H2CH6CSHCHCS2FeSHCS2FeSH2CH4CS2H2FeS2FeSFe2S3FeS2FeS2FeSFeS3H2SNHC5HCH4C6H4SHC3H2FeSHCHC3HCH4CH2SHCH2C2HC2H3CNC4HCH3FeCHC3NHC6H6CH2C4H6NC7H14CHCH2CH4SCH3CHCHCHC4HCHC2H3CHC5H3FeC2H2CHCHC2HC2SNHCH6SH3C3H2CH3NC3HFeCHFeCSCNH2C2HCHC3HCHC2HSC4HCNFeH2CHCH2CSC3H3CFeC2HCH4NCH12CSH4CH4CHC5H3FeCSHCH3FeS2FeSCSFeSCFeS2FeSFeSCSHS2CFeS2FeSFeSCSFeS2FeS2FeSFeS3FeSCSFeSHFeC2SCNC3H2C6H4C6H4C6H4C6H4C2H6SH3CS2CHCS2CHCH2CSCH2NC2HC3HFeCHCHC6H4C4HCH4C2HSC6SH3SC2H2CS2CFeH2CSH3CH3FeSH2C2H2CH2CH2NC9H14NC9H14SHCHCH2N2C2HCH2CHC2H3CH8NC9H17FeH5C2H3C3SCH2NC9H2CH3CNH7CSC4HCH2SHCH2C3H3CHSC2NHCH2C2SFeC3H2CH3CHNFeH4SC2HSH3SC4H3FeH2NCH2FeHFe2CFeSCNHSC2H3C4HC3H3SH4SH2FeCH2CHC2HCHCH2CSCHCHC3SCH3CHSH2CSCHC2FeCH7C3HCHC3H2C2HSH4CH2CHC2NCH4C2H4CHCNH2C2H2NCHCSCFeH2FeSFeSHS2C2SCFeH3FeSFeSFeS2HSHC2FeSHSFeS2FeS2FeSFeS3FeSH2C2NCHFeS2FeS2FeSFeS3HC6H4C4H2CH2C3HFeH2C6H4C3HCHCHC2HC6H4C6H4C2FeHCHC2HCH3CHCH5C6H4SH2NCHC2NC6SC2H12CH4CH2SHSCH4CH3CHCNH2CHCH3C2HC2H5C2FeSNHC7HSCHNH3CH2NC2H5CNC9H12CHC4H2FeHSH3C4HC3H3C2SCHCHC3SH5C3H7C2HC2H3CH3SH2C2H2NC2H3C2HC2HCHCH2CHC2HCHSHCH2C4H2CH2C3HC2HCFeH4C2HC2NHCH2CH2NHC4HC2H4CHCH4CHCSNHCH2C2HCH2C2HCH5CSHCSFeHCNCHCHSHCHC2H2CFeS2H2CHS2H2C2HCFeC2H4C6H7CHCH2CHCFeH2S2FeSFeS2FeHSHFeSHSFeHSH3SFeS2FeS2FeSFeS3H2CFeS2FeSH2SH2FeNHSCFeS2HSNHC2S2H4C6H4C6H4C6H4CHFeC2SCHC6H2C9H4C6H4C6H4C3H4C2H4CHCHCH4NC2FeHC8H4CH2CFeCH2C3H3SH2CH3CHNH3C2NCHCH2CH2CSHCHCH3CHS2C2H2C2HC2HCNC6H14CHSCH2FeCNC9H14NC9H15CFeHSFeHC3HCH5CH4CH2CHCH4CH2C3HCNHCH2CH3C2H3CH2FeCSCH2C4SFeCHFeHSCFeHNHCH2C3
_chemical_formula_sum              "C2880 S768 Fe384 H3456 N192"
_cell_length_a       80.5828
_cell_length_b       81.3979
_cell_length_c       81.4218
_cell_angle_alpha    75.475
_cell_angle_beta     75.4209
_cell_angle_gamma    75.4446

_space_group_name_H-M_alt    "P 1"
_space_group_IT_number       1

loop_
  _space_group_symop_operation_xyz
  'x, y, z'

loop_
  _atom_site_type_symbol
  _atom_site_label
  _atom_site_symmetry_multiplicity
  _atom_site_fract_x
  _atom_site_fract_y
  _atom_site_fract_z
  _atom_site_occupancy
  C   C1        1.0  0.03128  0.27730  0.89698  1.0000
  S   S1        1.0  0.12622  0.00726  0.74790  1.0000
  Fe  Fe1       1.0  0.07761  0.01056  0.77129  1.0000
  S   S2        1.0  0.09605  0.02154  0.78018  1.0000
  S   S3        1.0  0.04910  0.01023  0.78284  1.0000
  Fe  Fe2       1.0  0.10530  0.03077  0.75168  1.0000
  S   S4        1.0  0.11021  0.05718  0.73861  1.0000
  H   H1        1.0  0.01230  0.29266  0.83739  1.0000
  S   S5        1.0  0.08549  0.02173  0.74318  1.0000
  C   C2        1.0  0.16431  0.00040  0.82138  1.0000
  S   S6        1.0  0.20466  0.00523  0.62374  1.0000
  C   C3        1.0  0.03741  0.28448  0.84478  1.0000
  H   H2        1.0  0.13400  0.01491  0.79542  1.0000
  C   C4        1.0  0.21734  0.03009  0.77651  1.0000
  S   S7        1.0  0.02551  0.13822  0.75748  1.0000
  S   S8        1.0  0.06896  0.27432  0.85543  1.0000
  H   H3        1.0  0.03856  0.26869  0.77423  1.0000
  S   S9        1.0  0.01107  0.25867  0.62212  1.0000
  H   H4        1.0  0.03003  0.20584  0.69730  1.0000
  H   H5        1.0  0.13830  0.16388  0.65693  1.0000
  S   S10       1.0  0.17606  0.00854  0.83212  1.0000
  H   H6        1.0  0.17126  0.01004  0.77501  1.0000
  Fe  Fe3       1.0  0.20542  0.10364  0.69554  1.0000
  S   S11       1.0  0.21763  0.08072  0.71327  1.0000
  S   S12       1.0  0.20735  0.10677  0.66682  1.0000
  Fe  Fe4       1.0  0.19042  0.12489  0.72374  1.0000
  S   S13       1.0  0.20147  0.10359  0.74412  1.0000
  S   S14       1.0  0.17599  0.15144  0.72887  1.0000
  Fe  Fe5       1.0  0.22580  0.09989  0.72374  1.0000
  H   H7        1.0  0.09532  0.21941  0.83954  1.0000
  Fe  Fe6       1.0  0.19259  0.08596  0.73240  1.0000
  S   S15       1.0  0.18281  0.06280  0.75017  1.0000
  S   S16       1.0  0.21579  0.12260  0.70417  1.0000
  S   S17       1.0  0.17937  0.10758  0.71371  1.0000
  H   H8        1.0  0.15065  0.02579  0.81093  1.0000
  H   H9        1.0  0.16563  0.17989  0.68823  1.0000
  H   H10       1.0  0.17631  0.07487  0.65673  1.0000
  H   H11       1.0  0.18606  0.02157  0.75897  1.0000
  S   S18       1.0  0.10903  0.29222  0.82440  1.0000
  Fe  Fe7       1.0  0.11549  0.99697  0.77581  1.0000
  C   C5        1.0  0.21981  0.99463  0.70624  1.0000
  H   H12       1.0  0.00354  0.20871  0.81709  1.0000
  C   C6        1.0  0.01652  0.24642  0.79340  1.0000
  Fe  Fe8       1.0  0.04365  0.22427  0.72106  1.0000
  S   S19       1.0  0.06287  0.21696  0.73850  1.0000
  S   S20       1.0  0.01673  0.21873  0.73147  1.0000
  Fe  Fe9       1.0  0.06800  0.24136  0.69059  1.0000
  S   S21       1.0  0.08974  0.23574  0.70525  1.0000
  S   S22       1.0  0.06998  0.25523  0.66285  1.0000
  Fe  Fe10      1.0  0.08277  0.20927  0.71538  1.0000
  S   S23       1.0  0.09862  0.18189  0.71579  1.0000
  Fe  Fe11      1.0  0.06808  0.24376  0.72718  1.0000
  S   S24       1.0  0.06238  0.26354  0.74388  1.0000
  S   S25       1.0  0.06278  0.21459  0.69877  1.0000
  S   S26       1.0  0.04716  0.25148  0.71145  1.0000
  H   H13       1.0  0.11665  0.20976  0.67755  1.0000
  C   C7        1.0  0.99853  0.28934  0.88781  1.0000
  C   C8        1.0  0.21153  0.08224  0.62831  1.0000
  H   H14       1.0  0.11485  0.18918  0.66070  1.0000
  C   C9        1.0  0.15041  0.01104  0.70118  1.0000
  H   H15       1.0  0.14231  0.20501  0.69077  1.0000
  H   H16       1.0  0.14436  0.01156  0.67054  1.0000
  H   H17       1.0  0.15698  0.99048  0.61291  1.0000
  C   C10       1.0  0.01401  0.21337  0.78967  1.0000
  C   C11       1.0  0.02806  0.29294  0.88536  1.0000
  C   C12       1.0  0.10109  0.27818  0.76737  1.0000
  C   C13       1.0  0.10706  0.26515  0.75752  1.0000
  C   C14       1.0  0.09547  0.26070  0.74975  1.0000
  C   C15       1.0  0.07790  0.26919  0.75204  1.0000
  C   C16       1.0  0.07213  0.28240  0.76157  1.0000
  C   C17       1.0  0.08373  0.28709  0.76891  1.0000
  H   H18       1.0  0.12055  0.25830  0.75617  1.0000
  H   H19       1.0  0.10003  0.25051  0.74236  1.0000
  H   H20       1.0  0.05861  0.28916  0.76329  1.0000
  H   H21       1.0  0.07918  0.29760  0.77581  1.0000
  C   C18       1.0  0.15413  0.15963  0.72613  1.0000
  C   C19       1.0  0.14605  0.17670  0.72792  1.0000
  C   C20       1.0  0.12891  0.18373  0.72507  1.0000
  C   C21       1.0  0.11985  0.17373  0.72022  1.0000
  C   C22       1.0  0.12787  0.15662  0.71863  1.0000
  C   C23       1.0  0.14486  0.14955  0.72171  1.0000
  H   H22       1.0  0.15312  0.18456  0.73143  1.0000
  H   H23       1.0  0.12281  0.19691  0.72640  1.0000
  H   H24       1.0  0.12087  0.14881  0.71498  1.0000
  H   H25       1.0  0.15076  0.13631  0.72071  1.0000
  S   S27       1.0  0.11075  0.98719  0.71712  1.0000
  H   H26       1.0  0.00555  0.23705  0.82060  1.0000
  H   H27       1.0  0.22898  0.02695  0.92533  1.0000
  H   H28       1.0  0.21102  0.06853  0.67762  1.0000
  C   C24       1.0  0.00373  0.26822  0.56334  1.0000
  S   S28       1.0  0.21386  0.00884  0.66001  1.0000
  C   C25       1.0  0.00009  0.03892  0.78884  1.0000
  C   C26       1.0  0.15576  0.06801  0.67822  1.0000
  C   C27       1.0  0.20928  0.08999  0.65584  1.0000
  C   C28       1.0  0.21114  0.07238  0.66388  1.0000
  C   C29       1.0  0.21342  0.05968  0.65393  1.0000
  H   H29       1.0  0.01269  0.26947  0.57122  1.0000
  H   H30       1.0  0.03009  0.27389  0.81037  1.0000
  C   C30       1.0  0.20950  0.09476  0.63808  1.0000
  H   H31       1.0  0.99887  0.16656  0.76897  1.0000
  C   C31       1.0  0.13332  0.01877  0.67890  1.0000
  H   H32       1.0  0.04218  0.25398  0.80398  1.0000
  H   H33       1.0  0.02577  0.28750  0.78195  1.0000
  H   H34       1.0  0.21163  0.08622  0.61457  1.0000
  C   C32       1.0  0.02678  0.25772  0.63426  1.0000
  C   C33       1.0  0.04378  0.25912  0.62531  1.0000
  C   C34       1.0  0.05677  0.25841  0.63427  1.0000
  C   C35       1.0  0.05307  0.25585  0.65235  1.0000
  C   C36       1.0  0.03608  0.25425  0.66148  1.0000
  C   C37       1.0  0.02287  0.25540  0.65240  1.0000
  H   H35       1.0  0.04693  0.26097  0.61133  1.0000
  H   H36       1.0  0.06981  0.25974  0.62714  1.0000
  H   H37       1.0  0.03305  0.25257  0.67544  1.0000
  H   H38       1.0  0.01618  0.30691  0.80655  1.0000
  C   C38       1.0  0.04311  0.25552  0.86188  1.0000
  H   H39       1.0  0.00349  0.16296  0.82315  1.0000
  H   H40       1.0  0.22289  0.07153  0.83949  1.0000
  Fe  Fe12      1.0  0.99881  0.13174  0.76637  1.0000
  C   C39       1.0  0.02864  0.20636  0.68390  1.0000
  C   C40       1.0  0.14603  0.05534  0.68732  1.0000
  C   C41       1.0  0.00863  0.21789  0.80588  1.0000
  C   C42       1.0  0.04850  0.27127  0.85383  1.0000
  H   H41       1.0  0.04128  0.29675  0.83885  1.0000
  C   C43       1.0  0.02400  0.16069  0.75237  1.0000
  C   C44       1.0  0.03769  0.16764  0.74077  1.0000
  C   C45       1.0  0.03566  0.18559  0.73485  1.0000
  C   C46       1.0  0.01982  0.19653  0.74024  1.0000
  C   C47       1.0  0.00651  0.18967  0.75258  1.0000
  C   C48       1.0  0.00878  0.17176  0.75890  1.0000
  H   H42       1.0  0.04966  0.15917  0.73594  1.0000
  H   H43       1.0  0.04621  0.19080  0.72571  1.0000
  C   C49       1.0  0.14546  0.98809  0.80368  1.0000
  H   H44       1.0  0.17397  0.05766  0.80215  1.0000
  C   C50       1.0  0.14929  0.03914  0.68222  1.0000
  H   H45       1.0  0.15468  0.01545  0.71105  1.0000
  C   C51       1.0  0.12728  0.19875  0.67572  1.0000
  C   C52       1.0  0.06862  0.22818  0.78693  1.0000
  C   C53       1.0  0.19970  0.01011  0.72752  1.0000
  H   H46       1.0  0.23048  0.05554  0.87028  1.0000
  H   H47       1.0  0.22743  0.02697  0.86678  1.0000
  C   C54       1.0  0.13018  0.05889  0.74204  1.0000
  C   C55       1.0  0.13989  0.07025  0.73001  1.0000
  C   C56       1.0  0.15620  0.07123  0.73234  1.0000
  C   C57       1.0  0.16251  0.06143  0.74705  1.0000
  C   C58       1.0  0.15261  0.05031  0.75929  1.0000
  C   C59       1.0  0.13658  0.04879  0.75662  1.0000
  H   H48       1.0  0.13493  0.07809  0.71875  1.0000
  H   H49       1.0  0.16395  0.07941  0.72263  1.0000
  H   H50       1.0  0.15724  0.04297  0.77089  1.0000
  H   H51       1.0  0.12901  0.04009  0.76604  1.0000
  C   C60       1.0  0.03159  0.02845  0.78231  1.0000
  C   C61       1.0  0.03386  0.04564  0.77590  1.0000
  C   C62       1.0  0.01910  0.05952  0.77624  1.0000
  H   H52       1.0  0.18241  0.16621  0.64615  1.0000
  H   H53       1.0  0.12662  0.03512  0.71487  1.0000
  C   C63       1.0  0.01465  0.02526  0.78873  1.0000
  H   H54       1.0  0.04690  0.04819  0.77080  1.0000
  H   H55       1.0  0.02078  0.07276  0.77140  1.0000
  H   H56       1.0  0.01274  0.01210  0.79377  1.0000
  C   C64       1.0  0.14308  0.00588  0.80284  1.0000
  C   C65       1.0  0.15256  0.01201  0.81160  1.0000
  C   C66       1.0  0.06819  0.22060  0.82246  1.0000
  H   H57       1.0  0.20923  0.03481  0.76689  1.0000
  C   C67       1.0  0.12627  0.18706  0.66630  1.0000
  N   N1        1.0  0.19946  0.00539  0.56344  1.0000
  C   C68       1.0  0.21558  0.07010  0.80866  1.0000
  C   C69       1.0  0.20654  0.05828  0.82157  1.0000
  H   H58       1.0  0.19576  0.98975  0.78435  1.0000
  H   H59       1.0  0.18575  0.01920  0.54292  1.0000
  H   H60       1.0  0.10980  0.24368  0.79429  1.0000
  C   C70       1.0  0.16332  0.03621  0.66802  1.0000
  C   C71       1.0  0.24130  0.04761  0.86308  1.0000
  H   H61       1.0  0.24186  0.06015  0.73475  1.0000
  H   H62       1.0  0.00005  0.28588  0.80463  1.0000
  H   H63       1.0  0.16717  0.02392  0.66388  1.0000
  H   H64       1.0  0.18244  0.03044  0.56017  1.0000
  H   H65       1.0  0.21744  0.98610  0.90306  1.0000
  S   S29       1.0  0.11492  0.28229  0.77882  1.0000
  N   N2        1.0  0.01753  0.26356  0.79582  1.0000
  H   H66       1.0  0.00269  0.23578  0.57791  1.0000
  H   H67       1.0  0.21101  0.05216  0.83353  1.0000
  H   H68       1.0  0.03410  0.29082  0.70353  1.0000
  C   C72       1.0  0.20909  0.07690  0.79306  1.0000
  H   H69       1.0  0.03849  0.19570  0.67861  1.0000
  H   H70       1.0  0.22837  0.10035  0.79563  1.0000
  H   H71       1.0  0.06727  0.21726  0.83632  1.0000
  C   C73       1.0  0.21872  0.01891  0.80668  1.0000
  C   C74       1.0  0.02072  0.22504  0.77534  1.0000
  C   C75       1.0  0.99975  0.27298  0.80251  1.0000
  N   N3        1.0  0.01058  0.20542  0.68353  1.0000
  H   H72       1.0  0.14347  0.00022  0.70794  1.0000
  C   C76       1.0  0.01063  0.16080  0.71344  1.0000
  H   H73       1.0  0.21200  0.98773  0.93318  1.0000
  H   H74       1.0  0.20285  0.02883  0.54468  1.0000
  S   S30       1.0  0.20136  0.00007  0.86924  1.0000
  H   H75       1.0  0.04011  0.29079  0.72317  1.0000
  C   C77       1.0  0.17875  0.01098  0.76141  1.0000
  H   H76       1.0  0.02751  0.24962  0.76540  1.0000
  H   H77       1.0  0.21505  0.04611  0.66006  1.0000
  H   H78       1.0  0.22082  0.01460  0.56767  1.0000
  C   C78       1.0  0.17672  0.15436  0.65155  1.0000
  H   H79       1.0  0.00644  0.23835  0.90614  1.0000
  C   C79       1.0  0.19425  0.07239  0.79085  1.0000
  H   H80       1.0  0.99653  0.24746  0.88760  1.0000
  H   H81       1.0  0.05072  0.21088  0.79294  1.0000
  C   C80       1.0  0.24499  0.02419  0.78570  1.0000
  H   H82       1.0  0.21774  0.00877  0.89551  1.0000
  H   H83       1.0  0.24300  0.08359  0.78498  1.0000
  C   C81       1.0  0.23660  0.01874  0.80278  1.0000
  N   N4        1.0  0.16838  0.15350  0.67010  1.0000
  C   C82       1.0  0.02202  0.24133  0.77706  1.0000
  H   H84       1.0  0.06253  0.99602  0.75228  1.0000
  H   H85       1.0  0.13605  0.05856  0.69832  1.0000
  C   C83       1.0  0.00931  0.20849  0.66506  1.0000
  C   C84       1.0  0.18479  0.99665  0.57318  1.0000
  H   H86       1.0  0.00016  0.28110  0.55489  1.0000
  C   C85       1.0  0.15516  0.18143  0.68154  1.0000
  H   H87       1.0  0.02509  0.22137  0.76279  1.0000
  H   H88       1.0  0.18105  0.00485  0.59785  1.0000
  C   C86       1.0  0.03706  0.29925  0.71084  1.0000
  H   H89       1.0  0.03225  0.21876  0.67606  1.0000
  N   N5        1.0  0.05150  0.30819  0.70068  1.0000
  H   H90       1.0  0.16730  0.15464  0.64355  1.0000
  C   C87       1.0  0.20289  0.98976  0.77070  1.0000
  C   C88       1.0  0.02677  0.25300  0.86077  1.0000
  C   C89       1.0  0.21271  0.99436  0.55223  1.0000
  C   C90       1.0  0.18545  0.06112  0.80396  1.0000
  H   H91       1.0  0.01688  0.27787  0.76965  1.0000
  H   H92       1.0  0.01718  0.19739  0.65903  1.0000
  C   C91       1.0  0.00213  0.05609  0.78276  1.0000
  Fe  Fe13      1.0  0.22887  0.98816  0.85815  1.0000
  H   H93       1.0  0.02140  0.25548  0.91293  1.0000
  H   H94       1.0  0.08626  0.24455  0.78438  1.0000
  H   H95       1.0  0.09881  0.23992  0.84090  1.0000
  C   C92       1.0  0.13971  0.17254  0.66436  1.0000
  S   S31       1.0  0.21594  0.04988  0.62260  1.0000
  C   C93       1.0  0.23828  0.08809  0.79747  1.0000
  H   H96       1.0  0.22701  0.99445  0.69311  1.0000
  C   C94       1.0  0.15450  0.16916  0.67210  1.0000
  H   H97       1.0  0.15151  0.13714  0.66865  1.0000
  H   H98       1.0  0.22719  0.02776  0.74202  1.0000
  H   H99       1.0  0.20815  0.10827  0.63173  1.0000
  H   H100      1.0  0.21514  0.08580  0.78238  1.0000
  H   H101      1.0  0.19167  0.02241  0.72995  1.0000
  H   H102      1.0  0.03188  0.99110  0.76244  1.0000
  C   C95       1.0  0.17668  0.99789  0.59063  1.0000
  H   H103      1.0  0.18490  0.04494  0.82929  1.0000
  Fe  Fe14      1.0  0.21940  0.02093  0.63192  1.0000
  H   H104      1.0  0.20062  0.02005  0.58190  1.0000
  Fe  Fe15      1.0  0.08011  0.29605  0.83552  1.0000
  H   H105      1.0  0.99980  0.30588  0.66907  1.0000
  H   H106      1.0  0.15328  0.13723  0.69012  1.0000
  H   H107      1.0  0.17091  0.12567  0.67625  1.0000
  C   C96       1.0  0.16270  0.98973  0.59948  1.0000
  N   N6        1.0  0.13915  0.02549  0.69143  1.0000
  C   C97       1.0  0.05804  0.21320  0.81580  1.0000
  H   H108      1.0  0.05754  0.30224  0.73344  1.0000
  H   H109      1.0  0.19520  0.02449  0.79678  1.0000
  H   H110      1.0  0.21213  0.01508  0.81996  1.0000
  H   H111      1.0  0.99593  0.25189  0.93192  1.0000
  H   H112      1.0  0.18748  0.14289  0.64963  1.0000
  H   H113      1.0  0.07119  0.28767  0.71132  1.0000
  H   H114      1.0  0.11528  0.02156  0.70989  1.0000
  H   H115      1.0  0.17713  0.15018  0.69387  1.0000
  C   C98       1.0  0.20877  0.00969  0.57495  1.0000
  C   C99       1.0  0.10841  0.23705  0.80814  1.0000
  C   C100      1.0  0.14177  0.19604  0.68315  1.0000
  H   H116      1.0  0.06166  0.99465  0.73115  1.0000
  H   H117      1.0  0.04990  0.20449  0.82443  1.0000
  C   C101      1.0  0.99841  0.21959  0.69142  1.0000
  H   H118      1.0  0.16884  0.01497  0.75304  1.0000
  H   H119      1.0  0.11387  0.22299  0.80865  1.0000
  C   C102      1.0  0.02500  0.27480  0.77966  1.0000
  H   H120      1.0  0.22140  0.05680  0.74848  1.0000
  H   H121      1.0  0.00188  0.23240  0.68500  1.0000
  C   C103      1.0  0.16066  0.13775  0.67653  1.0000
  H   H122      1.0  0.06734  0.28535  0.69148  1.0000
  H   H123      1.0  0.00023  0.24600  0.59545  1.0000
  C   C104      1.0  0.20916  0.02433  0.79356  1.0000
  N   N7        1.0  0.06704  0.09380  0.76786  1.0000
  C   C105      1.0  0.05429  0.10149  0.78194  1.0000
  C   C106      1.0  0.05832  0.09608  0.75320  1.0000
  C   C107      1.0  0.07187  0.07488  0.77470  1.0000
  C   C108      1.0  0.08216  0.10258  0.76188  1.0000
  C   C109      1.0  0.09975  0.09352  0.76186  1.0000
  C   C110      1.0  0.07955  0.12080  0.75558  1.0000
  C   C111      1.0  0.11369  0.10227  0.75619  1.0000
  C   C112      1.0  0.09359  0.12941  0.74994  1.0000
  C   C113      1.0  0.11061  0.12017  0.75036  1.0000
  H   H124      1.0  0.04885  0.11545  0.77763  1.0000
  H   H125      1.0  0.04277  0.09511  0.78684  1.0000
  H   H126      1.0  0.06048  0.10037  0.79305  1.0000
  H   H127      1.0  0.05310  0.10994  0.74811  1.0000
  H   H128      1.0  0.04697  0.08950  0.75708  1.0000
  H   H129      1.0  0.06764  0.09072  0.74225  1.0000
  H   H130      1.0  0.07852  0.07216  0.78581  1.0000
  H   H131      1.0  0.06016  0.06879  0.77947  1.0000
  H   H132      1.0  0.08058  0.06799  0.76450  1.0000
  H   H133      1.0  0.10314  0.07964  0.76600  1.0000
  H   H134      1.0  0.06658  0.12856  0.75491  1.0000
  H   H135      1.0  0.12699  0.09507  0.75626  1.0000
  H   H136      1.0  0.09128  0.14336  0.74517  1.0000
  H   H137      1.0  0.12145  0.12689  0.74612  1.0000
  C   C114      1.0  0.18243  0.15141  0.67972  1.0000
  H   H138      1.0  0.19260  0.13952  0.67803  1.0000
  H   H139      1.0  0.18946  0.07769  0.77888  1.0000
  H   H140      1.0  0.18937  0.16244  0.67516  1.0000
  H   H141      1.0  0.05158  0.24527  0.86901  1.0000
  C   C115      1.0  0.09029  0.23364  0.83658  1.0000
  C   C116      1.0  0.12324  0.03168  0.70391  1.0000
  C   C117      1.0  0.19161  0.05402  0.81927  1.0000
  C   C118      1.0  0.02093  0.28215  0.84407  1.0000
  H   H142      1.0  0.02291  0.24071  0.86670  1.0000
  C   C119      1.0  0.02879  0.26122  0.80845  1.0000
  N   N8        1.0  0.09001  0.24008  0.81786  1.0000
  C   C120      1.0  0.08303  0.25895  0.81525  1.0000
  H   H143      1.0  0.16245  0.00550  0.69255  1.0000
  Fe  Fe16      1.0  0.20149  0.99148  0.65157  1.0000
  C   C121      1.0  0.07913  0.23188  0.81138  1.0000
  H   H144      1.0  0.04421  0.27248  0.90004  1.0000
  C   C122      1.0  0.07875  0.23566  0.79347  1.0000
  H   H145      1.0  0.20994  0.01050  0.92619  1.0000
  N   N9        1.0  0.19063  0.99429  0.75863  1.0000
  H   H146      1.0  0.06871  0.23121  0.77313  1.0000
  H   H147      1.0  0.06915  0.26193  0.82209  1.0000
  H   H148      1.0  0.09067  0.26560  0.82024  1.0000
  H   H149      1.0  0.08361  0.26506  0.80137  1.0000
  H   H150      1.0  0.02348  0.25402  0.82143  1.0000
  C   C123      1.0  0.21350  0.06467  0.63608  1.0000
  C   C124      1.0  0.19234  0.02170  0.55229  1.0000
  C   C125      1.0  0.00985  0.23415  0.80776  1.0000
  H   H151      1.0  0.21178  0.99909  0.76725  1.0000
  C   C126      1.0  0.05840  0.21683  0.79807  1.0000
  H   H152      1.0  0.03846  0.30013  0.87943  1.0000
  H   H153      1.0  0.00972  0.25466  0.65938  1.0000
  H   H154      1.0  0.23969  0.12522  0.73989  1.0000
  C   C127      1.0  0.23553  0.03018  0.77202  1.0000
  H   H155      1.0  0.12600  0.02948  0.67034  1.0000
  H   H156      1.0  0.01135  0.25909  0.55473  1.0000
  H   H157      1.0  0.12466  0.00933  0.68556  1.0000
  H   H158      1.0  0.07929  0.30133  0.69146  1.0000
  C   C128      1.0  0.01551  0.26646  0.85207  1.0000
  H   H159      1.0  0.02849  0.17769  0.70546  1.0000
  C   C129      1.0  0.21964  0.99829  0.92917  1.0000
  H   H160      1.0  0.07709  0.23690  0.84481  1.0000
  C   C130      1.0  0.22674  0.08133  0.82784  1.0000
  H   H161      1.0  0.21578  0.09281  0.82748  1.0000
  H   H162      1.0  0.15307  0.08027  0.68231  1.0000
  Fe  Fe17      1.0  0.10547  0.99710  0.74189  1.0000
  C   C131      1.0  0.20067  0.99477  0.74063  1.0000
  C   C132      1.0  0.16893  0.06495  0.66389  1.0000
  Fe  Fe18      1.0  0.10132  0.29909  0.79856  1.0000
  H   H163      1.0  0.02480  0.30877  0.71419  1.0000
  S   S32       1.0  0.07272  0.30139  0.80978  1.0000
  C   C133      1.0  0.06472  0.98671  0.74365  1.0000
  C   C134      1.0  0.01173  0.29896  0.88082  1.0000
  Fe  Fe19      1.0  0.19391  0.99005  0.84923  1.0000
  H   H164      1.0  0.11704  0.24237  0.81337  1.0000
  C   C135      1.0  0.17280  0.04903  0.65890  1.0000
  H   H165      1.0  0.18328  0.04656  0.64792  1.0000
  H   H166      1.0  0.11458  0.04313  0.69752  1.0000
  H   H167      1.0  0.04627  0.30597  0.67661  1.0000
  H   H168      1.0  0.01409  0.22039  0.65728  1.0000
  H   H169      1.0  0.20831  0.02169  0.70069  1.0000
  H   H170      1.0  0.99879  0.21752  0.70536  1.0000
  C   C136      1.0  0.01815  0.26764  0.90417  1.0000
  N   N10       1.0  0.23117  0.07461  0.81158  1.0000
  C   C137      1.0  0.06803  0.29510  0.69865  1.0000
  H   H171      1.0  0.22483  0.99966  0.54653  1.0000
  C   C138      1.0  0.00567  0.18872  0.69314  1.0000
  C   C139      1.0  0.01611  0.17607  0.70394  1.0000
  H   H172      1.0  0.03173  0.98921  0.74108  1.0000
  H   H173      1.0  0.01871  0.15139  0.72172  1.0000
  H   H174      1.0  0.01315  0.20073  0.78823  1.0000
  H   H175      1.0  0.21299  0.99805  0.58469  1.0000
  C   C140      1.0  0.20919  0.00993  0.71058  1.0000
  H   H176      1.0  0.23705  0.06316  0.75665  1.0000
  C   C141      1.0  0.00134  0.27334  0.89981  1.0000
  C   C142      1.0  0.24120  0.02624  0.74235  1.0000
  C   C143      1.0  0.24043  0.02434  0.91539  1.0000
  Fe  Fe20      1.0  0.23002  0.98583  0.62011  1.0000
  S   S33       1.0  0.17556  0.98579  0.66672  1.0000
  H   H177      1.0  0.22479  0.99853  0.94055  1.0000
  C   C144      1.0  0.23957  0.03141  0.86117  1.0000
  C   C145      1.0  0.17742  0.98745  0.56504  1.0000
  Fe  Fe21      1.0  0.23875  0.98988  0.65333  1.0000
  H   H178      1.0  0.23811  0.08531  0.83015  1.0000
  H   H179      1.0  0.23940  0.08049  0.67230  1.0000
  C   C146      1.0  0.23559  0.05492  0.74826  1.0000
  C   C147      1.0  0.05604  0.31570  0.72715  1.0000
  C   C148      1.0  0.22597  0.99583  0.89946  1.0000
  N   N11       1.0  0.23403  0.99563  0.91396  1.0000
  H   H180      1.0  0.24315  0.01751  0.66913  1.0000
  H   H181      1.0  0.00949  0.31093  0.87139  1.0000
  H   H182      1.0  0.24400  0.01440  0.81308  1.0000
  H   H183      1.0  0.20797  0.99305  0.54104  1.0000
  H   H184      1.0  0.23596  0.99293  0.88779  1.0000
  H   H185      1.0  0.24138  0.04853  0.82410  1.0000
  H   H186      1.0  0.18244  0.98622  0.55171  1.0000
  N   N12       1.0  0.24377  0.03656  0.75386  1.0000
  C   C149      1.0  0.24492  0.00903  0.90846  1.0000
  C   C150      1.0  0.04765  0.31594  0.68313  1.0000
  S   S34       1.0  0.09616  0.98488  0.76947  1.0000
  H   H187      1.0  0.99562  0.21051  0.66336  1.0000
  H   H188      1.0  0.20517  0.62886  0.07034  1.0000
  H   H189      1.0  0.07581  0.64681  0.21957  1.0000
  H   H190      1.0  0.09772  0.63629  0.22050  1.0000
  H   H191      1.0  0.20181  0.63772  0.04061  1.0000
  H   H192      1.0  0.04356  0.64844  0.22246  1.0000
  S   S35       1.0  0.01865  0.63006  0.24723  1.0000
  S   S36       1.0  0.22257  0.64051  0.98022  1.0000
  H   H193      1.0  0.12170  0.64700  0.20339  1.0000
  C   C151      1.0  0.02483  0.64965  0.24630  1.0000
  H   H194      1.0  0.23887  0.63755  0.08130  1.0000
  H   H195      1.0  0.08932  0.63659  0.20197  1.0000
  C   C152      1.0  0.08919  0.64445  0.21141  1.0000
  H   H196      1.0  0.18714  0.64363  0.01822  1.0000
  H   H197      1.0  0.18985  0.64737  0.09166  1.0000
  S   S37       1.0  0.24224  0.63531  0.02135  1.0000
  C   C153      1.0  0.19417  0.64622  0.04929  1.0000
  C   C154      1.0  0.19626  0.64087  0.06649  1.0000
  C   C155      1.0  0.23649  0.64516  0.06885  1.0000
  Fe  Fe22      1.0  0.24035  0.64759  0.99361  1.0000
  C   C156      1.0  0.23781  0.64671  0.03833  1.0000
  C   C157      1.0  0.24102  0.63723  0.05450  1.0000
  H   H198      1.0  0.00637  0.65082  0.39913  1.0000
  H   H199      1.0  0.11556  0.65052  0.18279  1.0000
  S   S38       1.0  0.22104  0.59752  0.66831  1.0000
  C   C158      1.0  0.15638  0.36892  0.77892  1.0000
  S   S39       1.0  0.18511  0.62872  0.69220  1.0000
  C   C159      1.0  0.01776  0.34237  0.77399  1.0000
  C   C160      1.0  0.16932  0.36676  0.74908  1.0000
  Fe  Fe23      1.0  0.13182  0.58465  0.81130  1.0000
  S   S40       1.0  0.14989  0.59393  0.78683  1.0000
  S   S41       1.0  0.12334  0.59987  0.83309  1.0000
  Fe  Fe24      1.0  0.12899  0.55300  0.79774  1.0000
  S   S42       1.0  0.14653  0.56090  0.77223  1.0000
  S   S43       1.0  0.12380  0.52586  0.80176  1.0000
  Fe  Fe25      1.0  0.16283  0.56601  0.78815  1.0000
  S   S44       1.0  0.19195  0.55748  0.78179  1.0000
  Fe  Fe26      1.0  0.13159  0.58781  0.77373  1.0000
  S   S45       1.0  0.12245  0.60827  0.75203  1.0000
  S   S46       1.0  0.14634  0.55690  0.81376  1.0000
  S   S47       1.0  0.11246  0.57982  0.79805  1.0000
  H   H200      1.0  0.22508  0.44743  0.74154  1.0000
  H   H201      1.0  0.19165  0.51031  0.69756  1.0000
  C   C161      1.0  0.15205  0.58550  0.87729  1.0000
  H   H202      1.0  0.00807  0.45011  0.73504  1.0000
  H   H203      1.0  0.16891  0.56426  0.69603  1.0000
  S   S48       1.0  0.18632  0.62129  0.54328  1.0000
  C   C162      1.0  0.22296  0.62515  0.77999  1.0000
  Fe  Fe27      1.0  0.15794  0.62272  0.55587  1.0000
  S   S49       1.0  0.14674  0.60012  0.57327  1.0000
  H   H204      1.0  0.21711  0.61837  0.94973  1.0000
  C   C163      1.0  0.23759  0.64977  0.64109  1.0000
  Fe  Fe28      1.0  0.05826  0.44806  0.75614  1.0000
  S   S50       1.0  0.07992  0.44348  0.73342  1.0000
  S   S51       1.0  0.03681  0.43211  0.76529  1.0000
  Fe  Fe29      1.0  0.07321  0.47738  0.76242  1.0000
  S   S52       1.0  0.09581  0.47465  0.74015  1.0000
  S   S53       1.0  0.06857  0.49949  0.77641  1.0000
  Fe  Fe30      1.0  0.07614  0.47244  0.72607  1.0000
  S   S54       1.0  0.07333  0.48663  0.69919  1.0000
  Fe  Fe31      1.0  0.09719  0.44619  0.74987  1.0000
  S   S55       1.0  0.12212  0.42739  0.75309  1.0000
  S   S56       1.0  0.05314  0.47711  0.74767  1.0000
  S   S57       1.0  0.07592  0.44878  0.77344  1.0000
  Fe  Fe32      1.0  0.19924  0.48844  0.66212  1.0000
  S   S58       1.0  0.17204  0.48849  0.67797  1.0000
  S   S59       1.0  0.22392  0.47142  0.66992  1.0000
  Fe  Fe33      1.0  0.18739  0.52058  0.63515  1.0000
  S   S60       1.0  0.15937  0.52329  0.64893  1.0000
  S   S61       1.0  0.19832  0.53902  0.61153  1.0000
  Fe  Fe34      1.0  0.16978  0.51719  0.67320  1.0000
  S   S62       1.0  0.15926  0.53311  0.69367  1.0000
  Fe  Fe35      1.0  0.16434  0.49441  0.65207  1.0000
  S   S63       1.0  0.14459  0.48414  0.64456  1.0000
  S   S64       1.0  0.19755  0.51688  0.65912  1.0000
  S   S65       1.0  0.19183  0.49196  0.63646  1.0000
  H   H205      1.0  0.14059  0.49700  0.60627  1.0000
  H   H206      1.0  0.06569  0.40086  0.76327  1.0000
  H   H207      1.0  0.12047  0.35315  0.72522  1.0000
  Fe  Fe36      1.0  0.17878  0.44261  0.80188  1.0000
  S   S66       1.0  0.15415  0.44590  0.82170  1.0000
  S   S67       1.0  0.17565  0.45800  0.77537  1.0000
  Fe  Fe37      1.0  0.19820  0.41710  0.82767  1.0000
  S   S68       1.0  0.17445  0.41795  0.84934  1.0000
  S   S69       1.0  0.22402  0.40194  0.83385  1.0000
  Fe  Fe38      1.0  0.15999  0.41682  0.82934  1.0000
  S   S70       1.0  0.13575  0.40591  0.83169  1.0000
  Fe  Fe39      1.0  0.17099  0.44675  0.83944  1.0000
  S   S71       1.0  0.16131  0.46551  0.85785  1.0000
  S   S72       1.0  0.18425  0.41351  0.80858  1.0000
  S   S73       1.0  0.19531  0.44594  0.81884  1.0000
  H   H208      1.0  0.05921  0.45888  0.69511  1.0000
  Fe  Fe40      1.0  0.07275  0.32891  0.80911  1.0000
  Fe  Fe41      1.0  0.21112  0.61043  0.69111  1.0000
  S   S74       1.0  0.05196  0.34992  0.79867  1.0000
  C   C164      1.0  0.17498  0.60517  0.85394  1.0000
  C   C165      1.0  0.19960  0.37489  0.75838  1.0000
  S   S75       1.0  0.18541  0.64071  0.49245  1.0000
  Fe  Fe42      1.0  0.22014  0.56730  0.85695  1.0000
  S   S76       1.0  0.19768  0.56523  0.87941  1.0000
  S   S77       1.0  0.21950  0.58681  0.83217  1.0000
  Fe  Fe43      1.0  0.20567  0.53649  0.88068  1.0000
  S   S78       1.0  0.18469  0.52051  0.88645  1.0000
  S   S79       1.0  0.22639  0.53904  0.85662  1.0000
  C   C166      1.0  0.13042  0.35205  0.82729  1.0000
  C   C167      1.0  0.14685  0.35504  0.82743  1.0000
  C   C168      1.0  0.14882  0.37150  0.82839  1.0000
  C   C169      1.0  0.13430  0.38517  0.82938  1.0000
  C   C170      1.0  0.11791  0.38226  0.82898  1.0000
  C   C171      1.0  0.11597  0.36582  0.82788  1.0000
  H   H209      1.0  0.15811  0.34448  0.82698  1.0000
  H   H210      1.0  0.16149  0.37349  0.82878  1.0000
  H   H211      1.0  0.17736  0.64147  0.75094  1.0000
  H   H212      1.0  0.14989  0.57678  0.85519  1.0000
  H   H213      1.0  0.20263  0.62177  0.72319  1.0000
  H   H214      1.0  0.23248  0.46290  0.71020  1.0000
  H   H215      1.0  0.18897  0.46395  0.73787  1.0000
  C   C172      1.0  0.23472  0.39330  0.80153  1.0000
  H   H216      1.0  0.10657  0.39269  0.82983  1.0000
  C   C173      1.0  0.21378  0.60129  0.93474  1.0000
  H   H217      1.0  0.22368  0.40298  0.79782  1.0000
  C   C174      1.0  0.16918  0.48103  0.86419  1.0000
  C   C175      1.0  0.18538  0.48600  0.85659  1.0000
  C   C176      1.0  0.19049  0.49850  0.86275  1.0000
  C   C177      1.0  0.17946  0.50576  0.87666  1.0000
  C   C178      1.0  0.16343  0.50066  0.88400  1.0000
  C   C179      1.0  0.15832  0.48855  0.87779  1.0000
  H   H218      1.0  0.19391  0.48023  0.84611  1.0000
  H   H219      1.0  0.20302  0.50218  0.85711  1.0000
  H   H220      1.0  0.15484  0.50609  0.89472  1.0000
  H   H221      1.0  0.14584  0.48487  0.88379  1.0000
  C   C180      1.0  0.16726  0.59471  0.84815  1.0000
  S   S80       1.0  0.07787  0.32421  0.83595  1.0000
  C   C181      1.0  0.03674  0.34116  0.79327  1.0000
  C   C182      1.0  0.02646  0.47783  0.69176  1.0000
  H   H222      1.0  0.15630  0.59561  0.89701  1.0000
  C   C183      1.0  0.20623  0.43557  0.86421  1.0000
  H   H223      1.0  0.13760  0.34280  0.76560  1.0000
  C   C184      1.0  0.05653  0.32763  0.73668  1.0000
  H   H224      1.0  0.12919  0.37959  0.72721  1.0000
  H   H225      1.0  0.08023  0.35752  0.77032  1.0000
  C   C185      1.0  0.17949  0.39029  0.77915  1.0000
  H   H226      1.0  0.05943  0.39989  0.78621  1.0000
  C   C186      1.0  0.22284  0.45094  0.68346  1.0000
  C   C187      1.0  0.20693  0.44544  0.69050  1.0000
  C   C188      1.0  0.20654  0.42937  0.70206  1.0000
  H   H227      1.0  0.20017  0.60154  0.94086  1.0000
  C   C189      1.0  0.14525  0.35799  0.77946  1.0000
  H   H228      1.0  0.19494  0.45355  0.68713  1.0000
  H   H229      1.0  0.19424  0.42518  0.70754  1.0000
  C   C190      1.0  0.13573  0.43708  0.75965  1.0000
  C   C191      1.0  0.14157  0.42928  0.77503  1.0000
  C   C192      1.0  0.15326  0.43619  0.78007  1.0000
  C   C193      1.0  0.15953  0.45070  0.76961  1.0000
  C   C194      1.0  0.15319  0.45894  0.75445  1.0000
  C   C195      1.0  0.14119  0.45216  0.74950  1.0000
  H   H230      1.0  0.13705  0.41785  0.78310  1.0000
  H   H231      1.0  0.15747  0.43008  0.79204  1.0000
  H   H232      1.0  0.15760  0.47042  0.74648  1.0000
  H   H233      1.0  0.13662  0.45824  0.73758  1.0000
  C   C196      1.0  0.03238  0.41848  0.75353  1.0000
  C   C197      1.0  0.02326  0.39838  0.73445  1.0000
  C   C198      1.0  0.03777  0.40644  0.72768  1.0000
  C   C199      1.0  0.04245  0.41621  0.73725  1.0000
  H   H234      1.0  0.04533  0.40524  0.71487  1.0000
  H   H235      1.0  0.05374  0.42213  0.73197  1.0000
  C   C200      1.0  0.09331  0.48589  0.68429  1.0000
  C   C201      1.0  0.09332  0.48881  0.66661  1.0000
  C   C202      1.0  0.10916  0.48802  0.65449  1.0000
  C   C203      1.0  0.12498  0.48487  0.65998  1.0000
  C   C204      1.0  0.12498  0.48230  0.67763  1.0000
  C   C205      1.0  0.10916  0.48250  0.68982  1.0000
  H   H236      1.0  0.08110  0.49142  0.66229  1.0000
  H   H237      1.0  0.10913  0.48998  0.64086  1.0000
  H   H238      1.0  0.13720  0.47960  0.68193  1.0000
  H   H239      1.0  0.10926  0.48008  0.70343  1.0000
  C   C206      1.0  0.16131  0.58407  0.58454  1.0000
  C   C207      1.0  0.15474  0.57375  0.60025  1.0000
  C   C208      1.0  0.16608  0.56028  0.60898  1.0000
  C   C209      1.0  0.18394  0.55670  0.60174  1.0000
  C   C210      1.0  0.19055  0.56716  0.58618  1.0000
  C   C211      1.0  0.17930  0.58092  0.57770  1.0000
  H   H240      1.0  0.14084  0.57620  0.60565  1.0000
  H   H241      1.0  0.16096  0.55261  0.62119  1.0000
  H   H242      1.0  0.20435  0.56441  0.58043  1.0000
  H   H243      1.0  0.18445  0.58855  0.56545  1.0000
  H   H244      1.0  0.12415  0.57569  0.74195  1.0000
  H   H245      1.0  0.17416  0.58739  0.66333  1.0000
  C   C212      1.0  0.13218  0.61768  0.83361  1.0000
  C   C213      1.0  0.14414  0.62472  0.81956  1.0000
  C   C214      1.0  0.21660  0.55908  0.64344  1.0000
  C   C215      1.0  0.23953  0.54399  0.62386  1.0000
  C   C216      1.0  0.22341  0.45073  0.87473  1.0000
  C   C217      1.0  0.12697  0.62503  0.84849  1.0000
  H   H246      1.0  0.14849  0.61913  0.80814  1.0000
  H   H247      1.0  0.21058  0.45956  0.75695  1.0000
  S   S81       1.0  0.01694  0.38773  0.72107  1.0000
  H   H248      1.0  0.11784  0.61961  0.85948  1.0000
  C   C218      1.0  0.20063  0.56411  0.79614  1.0000
  C   C219      1.0  0.19327  0.56137  0.81386  1.0000
  C   C220      1.0  0.19963  0.56768  0.82510  1.0000
  C   C221      1.0  0.21263  0.57755  0.81847  1.0000
  C   C222      1.0  0.22009  0.58009  0.80080  1.0000
  C   C223      1.0  0.21439  0.57302  0.78972  1.0000
  H   H249      1.0  0.18278  0.55429  0.81898  1.0000
  H   H250      1.0  0.19408  0.56534  0.83884  1.0000
  H   H251      1.0  0.21563  0.64896  0.61635  1.0000
  H   H252      1.0  0.22039  0.57486  0.77613  1.0000
  C   C224      1.0  0.10936  0.52006  0.79200  1.0000
  C   C225      1.0  0.11429  0.50440  0.78599  1.0000
  C   C226      1.0  0.10225  0.49836  0.78019  1.0000
  C   C227      1.0  0.08498  0.50764  0.78102  1.0000
  C   C228      1.0  0.08022  0.52344  0.78666  1.0000
  C   C229      1.0  0.09238  0.52973  0.79194  1.0000
  H   H253      1.0  0.12735  0.49670  0.78619  1.0000
  H   H254      1.0  0.10613  0.48622  0.77578  1.0000
  H   H255      1.0  0.06689  0.53069  0.78737  1.0000
  H   H256      1.0  0.08834  0.54165  0.79679  1.0000
  C   C230      1.0  0.16752  0.62194  0.70790  1.0000
  C   C231      1.0  0.15159  0.63371  0.71033  1.0000
  C   C232      1.0  0.13767  0.62921  0.72363  1.0000
  C   C233      1.0  0.13973  0.61302  0.73478  1.0000
  C   C234      1.0  0.15559  0.60108  0.73224  1.0000
  C   C235      1.0  0.16939  0.60544  0.71857  1.0000
  C   C236      1.0  0.22151  0.59308  0.59284  1.0000
  H   H257      1.0  0.05823  0.32327  0.74999  1.0000
  H   H258      1.0  0.15716  0.58845  0.74066  1.0000
  H   H259      1.0  0.18148  0.59611  0.71640  1.0000
  C   C237      1.0  0.21159  0.54362  0.69338  1.0000
  C   C238      1.0  0.19689  0.55713  0.69440  1.0000
  C   C239      1.0  0.18020  0.55374  0.69623  1.0000
  C   C240      1.0  0.17844  0.53690  0.69690  1.0000
  C   C241      1.0  0.19303  0.52334  0.69702  1.0000
  C   C242      1.0  0.20960  0.52668  0.69526  1.0000
  H   H260      1.0  0.19842  0.57026  0.69302  1.0000
  H   H261      1.0  0.08357  0.43058  0.82603  1.0000
  C   C243      1.0  0.01372  0.39988  0.75112  1.0000
  H   H262      1.0  0.17985  0.64412  0.65417  1.0000
  C   C244      1.0  0.20769  0.62269  0.73441  1.0000
  C   C245      1.0  0.03298  0.46579  0.71995  1.0000
  H   H263      1.0  0.22353  0.48332  0.90298  1.0000
  S   S82       1.0  0.15558  0.64500  0.56839  1.0000
  H   H264      1.0  0.12270  0.56764  0.55922  1.0000
  H   H265      1.0  0.18708  0.40944  0.74847  1.0000
  S   S83       1.0  0.22000  0.58692  0.71050  1.0000
  H   H266      1.0  0.17811  0.61336  0.78509  1.0000
  C   C246      1.0  0.05312  0.32105  0.70996  1.0000
  S   S84       1.0  0.99835  0.32514  0.69463  1.0000
  H   H267      1.0  0.22785  0.62425  0.75342  1.0000
  H   H268      1.0  0.12805  0.51276  0.59210  1.0000
  C   C247      1.0  0.11441  0.64839  0.77247  1.0000
  H   H269      1.0  0.20670  0.55827  0.63645  1.0000
  H   H270      1.0  0.18870  0.62252  0.60433  1.0000
  H   H271      1.0  0.22098  0.61420  0.73337  1.0000
  H   H272      1.0  0.18186  0.39732  0.73585  1.0000
  H   H273      1.0  0.15945  0.64465  0.80919  1.0000
  H   H274      1.0  0.23046  0.43845  0.83602  1.0000
  H   H275      1.0  0.23198  0.46401  0.74719  1.0000
  H   H276      1.0  0.17778  0.53464  0.57776  1.0000
  H   H277      1.0  0.05197  0.43880  0.70427  1.0000
  C   C248      1.0  0.22700  0.47533  0.71475  1.0000
  H   H278      1.0  0.10324  0.36367  0.82798  1.0000
  Fe  Fe44      1.0  0.18327  0.64458  0.55451  1.0000
  C   C249      1.0  0.11747  0.47907  0.84861  1.0000
  C   C250      1.0  0.16510  0.51384  0.60398  1.0000
  C   C251      1.0  0.15813  0.35585  0.74978  1.0000
  C   C252      1.0  0.13462  0.55994  0.56322  1.0000
  C   C253      1.0  0.14140  0.50809  0.59498  1.0000
  C   C254      1.0  0.22357  0.47401  0.89549  1.0000
  C   C255      1.0  0.02952  0.34954  0.77871  1.0000
  C   C256      1.0  0.22338  0.61081  0.93984  1.0000
  H   H279      1.0  0.20892  0.59057  0.75266  1.0000
  C   C257      1.0  0.16541  0.54101  0.57405  1.0000
  H   H280      1.0  0.08305  0.64235  0.77689  1.0000
  H   H281      1.0  0.21697  0.54765  0.65437  1.0000
  C   C258      1.0  0.24220  0.60291  0.60304  1.0000
  H   H282      1.0  0.19498  0.45645  0.88491  1.0000
  H   H283      1.0  0.12205  0.53263  0.61177  1.0000
  H   H284      1.0  0.22090  0.51623  0.69456  1.0000
  H   H285      1.0  0.06069  0.38143  0.77772  1.0000
  N   N13       1.0  0.11059  0.52416  0.71958  1.0000
  C   C259      1.0  0.11195  0.52722  0.70055  1.0000
  C   C260      1.0  0.12336  0.50809  0.72456  1.0000
  C   C261      1.0  0.09259  0.52141  0.72799  1.0000
  C   C262      1.0  0.11418  0.53856  0.72539  1.0000
  C   C263      1.0  0.11996  0.55317  0.71369  1.0000
  C   C264      1.0  0.11232  0.53801  0.74331  1.0000
  C   C265      1.0  0.11582  0.55128  0.74918  1.0000
  H   H286      1.0  0.12550  0.52816  0.69335  1.0000
  H   H287      1.0  0.10872  0.51639  0.69666  1.0000
  H   H288      1.0  0.10276  0.53923  0.69591  1.0000
  H   H289      1.0  0.12194  0.50387  0.73886  1.0000
  H   H290      1.0  0.13704  0.51003  0.71916  1.0000
  H   H291      1.0  0.12180  0.49710  0.71964  1.0000
  H   H292      1.0  0.08278  0.53370  0.72597  1.0000
  H   H293      1.0  0.08880  0.51179  0.72274  1.0000
  H   H294      1.0  0.09106  0.51637  0.74220  1.0000
  H   H295      1.0  0.12227  0.55454  0.69982  1.0000
  H   H296      1.0  0.10824  0.52723  0.75292  1.0000
  H   H297      1.0  0.11429  0.55053  0.76296  1.0000
  H   H298      1.0  0.18207  0.37908  0.78993  1.0000
  H   H299      1.0  0.16622  0.39807  0.78305  1.0000
  H   H300      1.0  0.16472  0.40746  0.75123  1.0000
  N   N14       1.0  0.17669  0.50308  0.80343  1.0000
  C   C266      1.0  0.17001  0.51452  0.81626  1.0000
  C   C267      1.0  0.17345  0.51362  0.78641  1.0000
  C   C268      1.0  0.16626  0.48928  0.80881  1.0000
  C   C269      1.0  0.19558  0.49524  0.80186  1.0000
  C   C270      1.0  0.20630  0.49861  0.81161  1.0000
  C   C271      1.0  0.20386  0.48398  0.79006  1.0000
  C   C272      1.0  0.22406  0.49080  0.80989  1.0000
  C   C273      1.0  0.22165  0.47632  0.78839  1.0000
  C   C274      1.0  0.23169  0.47964  0.79836  1.0000
  H   H301      1.0  0.17661  0.52579  0.81259  1.0000
  H   H302      1.0  0.15570  0.51981  0.81734  1.0000
  H   H303      1.0  0.17164  0.50737  0.82949  1.0000
  H   H304      1.0  0.15958  0.52052  0.78722  1.0000
  H   H305      1.0  0.17609  0.50555  0.77653  1.0000
  H   H306      1.0  0.18174  0.52360  0.78154  1.0000
  H   H307      1.0  0.16864  0.48086  0.82139  1.0000
  H   H308      1.0  0.15192  0.49477  0.81048  1.0000
  H   H309      1.0  0.16927  0.48089  0.79918  1.0000
  H   H310      1.0  0.20129  0.50718  0.82072  1.0000
  H   H311      1.0  0.19655  0.48088  0.78217  1.0000
  C   C275      1.0  0.00306  0.43400  0.69601  1.0000
  H   H312      1.0  0.23574  0.62782  0.77896  1.0000
  C   C276      1.0  0.22217  0.57845  0.60624  1.0000
  H   H313      1.0  0.09841  0.62047  0.80805  1.0000
  Fe  Fe45      1.0  0.99777  0.36924  0.72941  1.0000
  H   H314      1.0  0.18000  0.64417  0.87406  1.0000
  H   H315      1.0  0.19426  0.47438  0.71521  1.0000
  C   C277      1.0  0.20590  0.49040  0.73572  1.0000
  C   C278      1.0  0.21694  0.49887  0.74035  1.0000
  C   C279      1.0  0.18825  0.49927  0.73583  1.0000
  C   C280      1.0  0.21089  0.51542  0.74423  1.0000
  C   C281      1.0  0.18238  0.51589  0.73958  1.0000
  C   C282      1.0  0.19372  0.52402  0.74357  1.0000
  C   C283      1.0  0.23779  0.39035  0.81832  1.0000
  C   C284      1.0  0.13345  0.63935  0.84926  1.0000
  H   H316      1.0  0.17483  0.50789  0.59366  1.0000
  N   N15       1.0  0.21301  0.47340  0.73051  1.0000
  H   H317      1.0  0.20247  0.63311  0.65273  1.0000
  C   C285      1.0  0.04857  0.45190  0.69625  1.0000
  Fe  Fe46      1.0  0.23237  0.57519  0.68721  1.0000
  H   H318      1.0  0.02599  0.47569  0.67895  1.0000
  S   S85       1.0  0.99803  0.31811  0.77805  1.0000
  H   H319      1.0  0.23044  0.49279  0.74078  1.0000
  H   H320      1.0  0.17882  0.49386  0.73261  1.0000
  H   H321      1.0  0.12077  0.62140  0.79881  1.0000
  H   H322      1.0  0.16903  0.52267  0.73898  1.0000
  H   H323      1.0  0.18917  0.53700  0.74624  1.0000
  H   H324      1.0  0.20033  0.42955  0.87757  1.0000
  C   C286      1.0  0.14616  0.35142  0.76497  1.0000
  H   H325      1.0  0.12156  0.43900  0.81181  1.0000
  H   H326      1.0  0.24051  0.53171  0.63374  1.0000
  S   S86       1.0  0.22346  0.53321  0.89919  1.0000
  C   C287      1.0  0.15060  0.56443  0.55459  1.0000
  H   H327      1.0  0.02294  0.44731  0.68039  1.0000
  H   H328      1.0  0.10647  0.50255  0.83263  1.0000
  H   H329      1.0  0.04314  0.47369  0.71716  1.0000
  C   C288      1.0  0.02000  0.31867  0.79865  1.0000
  H   H330      1.0  0.10568  0.44106  0.79906  1.0000
  H   H331      1.0  0.22736  0.63612  0.90770  1.0000
  H   H332      1.0  0.18371  0.61255  0.84436  1.0000
  C   C289      1.0  0.21819  0.62311  0.76534  1.0000
  N   N16       1.0  0.03117  0.46134  0.70396  1.0000
  C   C290      1.0  0.17988  0.59987  0.61961  1.0000
  C   C291      1.0  0.20158  0.61938  0.76639  1.0000
  S   S87       1.0  0.01033  0.34115  0.73045  1.0000
  C   C292      1.0  0.17738  0.59522  0.65049  1.0000
  C   C293      1.0  0.19538  0.61926  0.79757  1.0000
  C   C294      1.0  0.23830  0.44020  0.68783  1.0000
  H   H333      1.0  0.21547  0.62437  0.80748  1.0000
  H   H334      1.0  0.17845  0.36979  0.73704  1.0000
  C   C295      1.0  0.05429  0.34523  0.72929  1.0000
  N   N17       1.0  0.19596  0.61728  0.75118  1.0000
  H   H335      1.0  0.22768  0.46762  0.77945  1.0000
  C   C296      1.0  0.23791  0.42422  0.69930  1.0000
  H   H336      1.0  0.13606  0.35431  0.79131  1.0000
  H   H337      1.0  0.09604  0.34228  0.74702  1.0000
  H   H338      1.0  0.22187  0.48485  0.70383  1.0000
  C   C297      1.0  0.01818  0.40999  0.76053  1.0000
  H   H339      1.0  0.10706  0.61789  0.78623  1.0000
  H   H340      1.0  0.09112  0.41211  0.76508  1.0000
  H   H341      1.0  0.11437  0.39492  0.75035  1.0000
  N   N18       1.0  0.08593  0.38671  0.77728  1.0000
  C   C298      1.0  0.08740  0.37474  0.79414  1.0000
  C   C299      1.0  0.09240  0.40227  0.77719  1.0000
  C   C300      1.0  0.06719  0.39242  0.77609  1.0000
  C   C301      1.0  0.09564  0.37773  0.76292  1.0000
  C   C302      1.0  0.10978  0.38358  0.75023  1.0000
  C   C303      1.0  0.09092  0.36266  0.76123  1.0000
  C   C304      1.0  0.11851  0.37481  0.73677  1.0000
  C   C305      1.0  0.09985  0.35387  0.74785  1.0000
  C   C306      1.0  0.11361  0.35996  0.73562  1.0000
  H   H342      1.0  0.10135  0.36954  0.79516  1.0000
  H   H343      1.0  0.08073  0.38120  0.80527  1.0000
  H   H344      1.0  0.08119  0.36352  0.79608  1.0000
  H   H345      1.0  0.10636  0.39892  0.77852  1.0000
  H   H346      1.0  0.08482  0.40873  0.78810  1.0000
  Fe  Fe47      1.0  0.24475  0.64070  0.95704  1.0000
  H   H347      1.0  0.15498  0.37340  0.79070  1.0000
  N   N19       1.0  0.18134  0.38457  0.76271  1.0000
  H   H348      1.0  0.12816  0.57724  0.71057  1.0000
  C   C307      1.0  0.23533  0.42203  0.86825  1.0000
  H   H349      1.0  0.18360  0.61420  0.66025  1.0000
  H   H350      1.0  0.03311  0.36152  0.77097  1.0000
  C   C308      1.0  0.12139  0.56543  0.73739  1.0000
  C   C309      1.0  0.19048  0.61717  0.78305  1.0000
  N   N20       1.0  0.10279  0.64418  0.78964  1.0000
  H   H351      1.0  0.20901  0.63635  0.73252  1.0000
  C   C310      1.0  0.17582  0.58984  0.63609  1.0000
  C   C311      1.0  0.16893  0.37350  0.76369  1.0000
  C   C312      1.0  0.10741  0.62521  0.79595  1.0000
  C   C313      1.0  0.12352  0.56634  0.71970  1.0000
  C   C314      1.0  0.17858  0.40034  0.74901  1.0000
  H   H352      1.0  0.18895  0.39866  0.77787  1.0000
  H   H353      1.0  0.23524  0.41263  0.86039  1.0000
  H   H354      1.0  0.01338  0.48525  0.69700  1.0000
  C   C315      1.0  0.01295  0.32694  0.78394  1.0000
  H   H355      1.0  0.02065  0.47365  0.72609  1.0000
  H   H356      1.0  0.04973  0.36469  0.70676  1.0000
  Fe  Fe48      1.0  0.21753  0.56246  0.89563  1.0000
  N   N21       1.0  0.09578  0.45260  0.82168  1.0000
  H   H357      1.0  0.11462  0.45942  0.79846  1.0000
  C   C316      1.0  0.20770  0.45858  0.88488  1.0000
  H   H358      1.0  0.20285  0.37173  0.74527  1.0000
  H   H359      1.0  0.16032  0.63935  0.87153  1.0000
  C   C317      1.0  0.10996  0.44781  0.80710  1.0000
  H   H360      1.0  0.07414  0.45606  0.80894  1.0000
  H   H361      1.0  0.07021  0.46930  0.82470  1.0000
  C   C318      1.0  0.08039  0.46350  0.81455  1.0000
  H   H362      1.0  0.21306  0.59506  0.58373  1.0000
  H   H363      1.0  0.05830  0.32232  0.67451  1.0000
  H   H364      1.0  0.13549  0.51840  0.62578  1.0000
  H   H365      1.0  0.15885  0.35066  0.73854  1.0000
  S   S88       1.0  0.12876  0.33091  0.82635  1.0000
  H   H366      1.0  0.18685  0.61713  0.81022  1.0000
  C   C319      1.0  0.18559  0.61529  0.61743  1.0000
  S   S89       1.0  0.10082  0.32737  0.79529  1.0000
  H   H367      1.0  0.11569  0.43851  0.84716  1.0000
  C   C320      1.0  0.13393  0.54594  0.57727  1.0000
  C   C321      1.0  0.22049  0.46062  0.74464  1.0000
  H   H368      1.0  0.20200  0.36252  0.76791  1.0000
  H   H369      1.0  0.23109  0.41617  0.88213  1.0000
  C   C322      1.0  0.19559  0.59882  0.75297  1.0000
  H   H370      1.0  0.17830  0.55868  0.55330  1.0000
  H   H371      1.0  0.00179  0.42879  0.68548  1.0000
  H   H372      1.0  0.17951  0.63758  0.85483  1.0000
  H   H373      1.0  0.10152  0.42620  0.83610  1.0000
  H   H374      1.0  0.12763  0.45374  0.86212  1.0000
  C   C323      1.0  0.11257  0.45250  0.84414  1.0000
  H   H375      1.0  0.08402  0.47412  0.80367  1.0000
  C   C324      1.0  0.10247  0.46178  0.83146  1.0000
  C   C325      1.0  0.09026  0.43655  0.83273  1.0000
  H   H376      1.0  0.03504  0.32555  0.68378  1.0000
  H   H377      1.0  0.08120  0.43926  0.84498  1.0000
  C   C326      1.0  0.11972  0.46110  0.85269  1.0000
  C   C327      1.0  0.15970  0.59592  0.88327  1.0000
  H   H378      1.0  0.17002  0.59428  0.83452  1.0000
  H   H379      1.0  0.18899  0.64001  0.93806  1.0000
  H   H380      1.0  0.12349  0.48560  0.85494  1.0000
  H   H381      1.0  0.13030  0.64302  0.96241  1.0000
  C   C328      1.0  0.17484  0.63528  0.86913  1.0000
  H   H382      1.0  0.20933  0.38258  0.75821  1.0000
  S   S90       1.0  0.14805  0.63978  0.53248  1.0000
  H   H383      1.0  0.15015  0.50295  0.58366  1.0000
  C   C329      1.0  0.10050  0.48012  0.82756  1.0000
  H   H384      1.0  0.09354  0.48826  0.81777  1.0000
  C   C330      1.0  0.19976  0.46602  0.72648  1.0000
  H   H385      1.0  0.20635  0.61993  0.87663  1.0000
  C   C331      1.0  0.21078  0.63678  0.61846  1.0000
  C   C332      1.0  0.15588  0.58484  0.85979  1.0000
  H   H386      1.0  0.21960  0.52171  0.74758  1.0000
  C   C333      1.0  0.10790  0.48856  0.83605  1.0000
  H   H387      1.0  0.17852  0.59573  0.60842  1.0000
  H   H388      1.0  0.17427  0.62807  0.73796  1.0000
  C   C334      1.0  0.22207  0.41877  0.70651  1.0000
  S   S91       1.0  0.22172  0.39890  0.72130  1.0000
  C   C335      1.0  0.14927  0.53621  0.58332  1.0000
  N   N22       1.0  0.19283  0.63793  0.62913  1.0000
  H   H389      1.0  0.20434  0.61238  0.85852  1.0000
  H   H390      1.0  0.20415  0.59812  0.87922  1.0000
  H   H391      1.0  0.03697  0.31966  0.81489  1.0000
  H   H392      1.0  0.14324  0.57769  0.88628  1.0000
  H   H393      1.0  0.22016  0.62603  0.62482  1.0000
  C   C336      1.0  0.18715  0.62131  0.63181  1.0000
  H   H394      1.0  0.21169  0.57085  0.64922  1.0000
  C   C337      1.0  0.05128  0.33908  0.70266  1.0000
  C   C338      1.0  0.20787  0.47012  0.89497  1.0000
  H   H395      1.0  0.12914  0.64497  0.86070  1.0000
  C   C339      1.0  0.19956  0.61168  0.87268  1.0000
  C   C340      1.0  0.13576  0.52848  0.61366  1.0000
  N   N23       1.0  0.22373  0.43899  0.86333  1.0000
  H   H396      1.0  0.16784  0.62258  0.76071  1.0000
  H   H397      1.0  0.21403  0.56945  0.60707  1.0000
  N   N24       1.0  0.18023  0.61694  0.87756  1.0000
  N   N25       1.0  0.14805  0.52191  0.59869  1.0000
  H   H398      1.0  0.21149  0.63457  0.60536  1.0000
  S   S92       1.0  0.20897  0.57945  0.91610  1.0000
  H   H399      1.0  0.01044  0.41142  0.77323  1.0000
  C   C341      1.0  0.14508  0.64661  0.83503  1.0000
  C   C342      1.0  0.17164  0.60594  0.87174  1.0000
  H   H400      1.0  0.18305  0.62361  0.90069  1.0000
  H   H401      1.0  0.16159  0.62097  0.90115  1.0000
  H   H402      1.0  0.24365  0.38593  0.77655  1.0000
  H   H403      1.0  0.23020  0.58762  0.79567  1.0000
  H   H404      1.0  0.20697  0.42646  0.85577  1.0000
  C   C343      1.0  0.17575  0.61590  0.89661  1.0000
  H   H405      1.0  0.04920  0.45023  0.68298  1.0000
  H   H406      1.0  0.12122  0.54301  0.58357  1.0000
  H   H407      1.0  0.17068  0.52342  0.60743  1.0000
  H   H408      1.0  0.13954  0.53977  0.61605  1.0000
  C   C344      1.0  0.17811  0.62781  0.75024  1.0000
  H   H409      1.0  0.19705  0.44762  0.85970  1.0000
  H   H410      1.0  0.05405  0.35455  0.73687  1.0000
  H   H411      1.0  0.16376  0.50321  0.61556  1.0000
  H   H412      1.0  0.17937  0.60235  0.90375  1.0000
  C   C345      1.0  0.18290  0.61074  0.64849  1.0000
  H   H413      1.0  0.24287  0.56841  0.65048  1.0000
  H   H414      1.0  0.03620  0.48625  0.68932  1.0000
  C   C346      1.0  0.16596  0.55486  0.55985  1.0000
  H   H415      1.0  0.08570  0.64123  0.82372  1.0000
  C   C347      1.0  0.22168  0.59130  0.92193  1.0000
  H   H416      1.0  0.12540  0.63841  0.72545  1.0000
  H   H417      1.0  0.15104  0.57567  0.54410  1.0000
  H   H418      1.0  0.00259  0.39369  0.75658  1.0000
  C   C348      1.0  0.23312  0.57545  0.61833  1.0000
  N   N26       1.0  0.23407  0.55946  0.63195  1.0000
  C   C349      1.0  0.15046  0.63913  0.82025  1.0000
  C   C350      1.0  0.21155  0.62332  0.79604  1.0000
  C   C351      1.0  0.23923  0.46621  0.88607  1.0000
  H   H419      1.0  0.12845  0.64460  0.77347  1.0000
  C   C352      1.0  0.23161  0.60522  0.59115  1.0000
  C   C353      1.0  0.03189  0.32579  0.80330  1.0000
  H   H420      1.0  0.04881  0.34449  0.68977  1.0000
  C   C354      1.0  0.23920  0.45486  0.87571  1.0000
  C   C355      1.0  0.01527  0.44444  0.69331  1.0000
  C   C356      1.0  0.05186  0.35091  0.71228  1.0000
  C   C357      1.0  0.01779  0.45072  0.70709  1.0000
  H   H421      1.0  0.23005  0.54332  0.61636  1.0000
  S   S93       1.0  0.23270  0.54775  0.68800  1.0000
  H   H422      1.0  0.17137  0.57790  0.63768  1.0000
  H   H423      1.0  0.18714  0.59373  0.76532  1.0000
  H   H424      1.0  0.23106  0.61654  0.58071  1.0000
  H   H425      1.0  0.20553  0.45311  0.72300  1.0000
  H   H426      1.0  0.19567  0.47651  0.90208  1.0000
  H   H427      1.0  0.19058  0.59667  0.74235  1.0000
  H   H428      1.0  0.03694  0.45397  0.72962  1.0000
  H   H429      1.0  0.23820  0.47961  0.71691  1.0000
  H   H430      1.0  0.01245  0.34892  0.76263  1.0000
  H   H431      1.0  0.11297  0.64121  0.76306  1.0000
  Fe  Fe49      1.0  0.17635  0.64055  0.52101  1.0000
  C   C358      1.0  0.00696  0.44631  0.72363  1.0000
  C   C359      1.0  0.08452  0.64870  0.78695  1.0000
  S   S94       1.0  0.23499  0.62148  0.68720  1.0000
  H   H432      1.0  0.23198  0.49335  0.81760  1.0000
  Fe  Fe50      1.0  0.24384  0.53731  0.87479  1.0000
  C   C360      1.0  0.24290  0.58835  0.61653  1.0000
  H   H433      1.0  0.12828  0.64224  0.94117  1.0000
  C   C361      1.0  0.19303  0.64279  0.64549  1.0000
  H   H434      1.0  0.22260  0.45975  0.84101  1.0000
  C   C362      1.0  0.20413  0.64954  0.48234  1.0000
  H   H435      1.0  0.15005  0.64643  0.70202  1.0000
  H   H436      1.0  0.23263  0.64395  0.65429  1.0000
  H   H437      1.0  0.24039  0.53963  0.81584  1.0000
  Fe  Fe51      1.0  0.10626  0.32101  0.82216  1.0000
  C   C363      1.0  0.23056  0.44669  0.84506  1.0000
  H   H438      1.0  0.23902  0.64598  0.87615  1.0000
  C   C364      1.0  0.23929  0.59114  0.91410  1.0000
  H   H439      1.0  0.24195  0.48596  0.84876  1.0000
  C   C365      1.0  0.22205  0.64996  0.90845  1.0000
  S   S95       1.0  0.20127  0.64631  0.57072  1.0000
  H   H440      1.0  0.24431  0.44824  0.84290  1.0000
  C   C366      1.0  0.24103  0.61049  0.93213  1.0000
  S   S96       1.0  0.23958  0.56608  0.87278  1.0000
  H   H441      1.0  0.07512  0.64443  0.79893  1.0000
  H   H442      1.0  0.18146  0.65056  0.60656  1.0000
  H   H443      1.0  0.21113  0.64964  0.50612  1.0000
  H   H444      1.0  0.24336  0.50431  0.86821  1.0000
  C   C367      1.0  0.13134  0.65032  0.94878  1.0000
  C   C368      1.0  0.09423  0.65046  0.81971  1.0000
  H   H445      1.0  0.19616  0.65073  0.96069  1.0000
  H   H446      1.0  0.03286  0.74732  0.30243  1.0000
  C   C369      1.0  0.08363  0.81887  0.45828  1.0000
  H   H447      1.0  0.22214  0.83009  0.07118  1.0000
  H   H448      1.0  0.06131  0.81423  0.26359  1.0000
  C   C370      1.0  0.02861  0.79883  0.40250  1.0000
  C   C371      1.0  0.04071  0.74036  0.29195  1.0000
  H   H449      1.0  0.08518  0.70832  0.15755  1.0000
  C   C372      1.0  0.22550  0.67242  0.05108  1.0000
  C   C373      1.0  0.16213  0.67122  0.02477  1.0000
  Fe  Fe52      1.0  0.08647  0.77481  0.00668  1.0000
  S   S97       1.0  0.11435  0.76491  0.00963  1.0000
  S   S98       1.0  0.06912  0.78960  0.02696  1.0000
  H   H450      1.0  0.09811  0.68335  0.21007  1.0000
  H   H451      1.0  0.05415  0.79058  0.28952  1.0000
  Fe  Fe53      1.0  0.11141  0.74069  0.00339  1.0000
  S   S99       1.0  0.12243  0.71604  0.01990  1.0000
  C   C374      1.0  0.22138  0.88594  0.04691  1.0000
  C   C375      1.0  0.13147  0.69772  0.47279  1.0000
  S   S100      1.0  0.08300  0.74974  0.00271  1.0000
  H   H452      1.0  0.20599  0.77866  0.05347  1.0000
  S   S101      1.0  0.21277  0.84216  0.03790  1.0000
  H   H453      1.0  0.08273  0.74039  0.11212  1.0000
  C   C376      1.0  0.16922  0.72981  0.45218  1.0000
  C   C377      1.0  0.05588  0.75743  0.09223  1.0000
  S   S102      1.0  0.20685  0.73814  0.40892  1.0000
  H   H454      1.0  0.05740  0.75235  0.35169  1.0000
  H   H455      1.0  0.05664  0.70255  0.15658  1.0000
  C   C378      1.0  0.14145  0.80399  0.02511  1.0000
  C   C379      1.0  0.18686  0.72331  0.45265  1.0000
  H   H456      1.0  0.12571  0.74409  0.05648  1.0000
  H   H457      1.0  0.10691  0.77915  0.45957  1.0000
  Fe  Fe54      1.0  0.16060  0.83006  0.43876  1.0000
  S   S103      1.0  0.14924  0.85852  0.43395  1.0000
  S   S104      1.0  0.14879  0.81236  0.46223  1.0000
  Fe  Fe55      1.0  0.18655  0.83254  0.40470  1.0000
  S   S105      1.0  0.17718  0.86120  0.39700  1.0000
  S   S106      1.0  0.20761  0.81771  0.38687  1.0000
  Fe  Fe56      1.0  0.17724  0.86155  0.42475  1.0000
  S   S107      1.0  0.19162  0.87938  0.43093  1.0000
  Fe  Fe57      1.0  0.15012  0.85522  0.40695  1.0000
  S   S108      1.0  0.12541  0.86282  0.39575  1.0000
  S   S109      1.0  0.18855  0.83305  0.43153  1.0000
  S   S110      1.0  0.15974  0.82660  0.41266  1.0000
  Fe  Fe58      1.0  0.06752  0.74833  0.20214  1.0000
  S   S111      1.0  0.05364  0.77110  0.18530  1.0000
  Fe  Fe59      1.0  0.08062  0.73700  0.23606  1.0000
  S   S112      1.0  0.07965  0.74358  0.26160  1.0000
  S   S113      1.0  0.09373  0.74584  0.20843  1.0000
  S   S114      1.0  0.05422  0.74223  0.22970  1.0000
  Fe  Fe60      1.0  0.06631  0.84000  0.30569  1.0000
  S   S115      1.0  0.09333  0.84420  0.29160  1.0000
  S   S116      1.0  0.03919  0.85501  0.30215  1.0000
  Fe  Fe61      1.0  0.08039  0.80523  0.32658  1.0000
  S   S117      1.0  0.10829  0.80598  0.31412  1.0000
  S   S118      1.0  0.07272  0.78232  0.34630  1.0000
  Fe  Fe62      1.0  0.10107  0.83361  0.31778  1.0000
  S   S119      1.0  0.12250  0.84105  0.32657  1.0000
  Fe  Fe63      1.0  0.09855  0.81629  0.28931  1.0000
  S   S120      1.0  0.11079  0.80640  0.26453  1.0000
  S   S121      1.0  0.07355  0.83194  0.33210  1.0000
  S   S122      1.0  0.07125  0.81303  0.30147  1.0000
  H   H458      1.0  0.00178  0.81614  0.27161  1.0000
  Fe  Fe64      1.0  0.19182  0.72846  0.05911  1.0000
  S   S123      1.0  0.18743  0.73748  0.03189  1.0000
  S   S124      1.0  0.18601  0.74718  0.07656  1.0000
  H   H459      1.0  0.05344  0.84854  0.21023  1.0000
  H   H460      1.0  0.04182  0.75819  0.09242  1.0000
  H   H461      1.0  0.04871  0.72597  0.09684  1.0000
  C   C380      1.0  0.01203  0.78724  0.00628  1.0000
  Fe  Fe65      1.0  0.07841  0.72920  0.47134  1.0000
  S   S125      1.0  0.08614  0.70893  0.23473  1.0000
  H   H462      1.0  0.15711  0.65904  0.03052  1.0000
  C   C381      1.0  0.18317  0.66228  0.04365  1.0000
  H   H463      1.0  0.24177  0.79117  0.41702  1.0000
  C   C382      1.0  0.17169  0.89151  0.47882  1.0000
  Fe  Fe66      1.0  0.12151  0.77388  0.98096  1.0000
  H   H464      1.0  0.13972  0.77136  0.03639  1.0000
  C   C383      1.0  0.08481  0.67161  0.18939  1.0000
  C   C384      1.0  0.09006  0.75984  0.26233  1.0000
  C   C385      1.0  0.09994  0.76833  0.24744  1.0000
  C   C386      1.0  0.10706  0.78211  0.24835  1.0000
  C   C387      1.0  0.10384  0.78773  0.26401  1.0000
  C   C388      1.0  0.09459  0.77870  0.27900  1.0000
  C   C389      1.0  0.08785  0.76471  0.27818  1.0000
  H   H465      1.0  0.10213  0.76424  0.23529  1.0000
  H   H466      1.0  0.11493  0.78850  0.23691  1.0000
  H   H467      1.0  0.09276  0.78237  0.29129  1.0000
  H   H468      1.0  0.08059  0.75789  0.28984  1.0000
  C   C390      1.0  0.12467  0.85638  0.37671  1.0000
  C   C391      1.0  0.13987  0.85235  0.36443  1.0000
  C   C392      1.0  0.13880  0.84812  0.34902  1.0000
  C   C393      1.0  0.12267  0.84723  0.34596  1.0000
  C   C394      1.0  0.10746  0.85104  0.35834  1.0000
  C   C395      1.0  0.10846  0.85578  0.37356  1.0000
  H   H469      1.0  0.15238  0.85308  0.36653  1.0000
  H   H470      1.0  0.15058  0.84558  0.33935  1.0000
  H   H471      1.0  0.09493  0.85068  0.35602  1.0000
  H   H472      1.0  0.09662  0.85911  0.38290  1.0000
  C   C396      1.0  0.18822  0.88719  0.45024  1.0000
  C   C397      1.0  0.20068  0.89561  0.45212  1.0000
  C   C398      1.0  0.19881  0.90173  0.46735  1.0000
  C   C399      1.0  0.16611  0.78411  0.01295  1.0000
  H   H473      1.0  0.21850  0.87862  0.01590  1.0000
  C   C400      1.0  0.17375  0.88504  0.46373  1.0000
  H   H474      1.0  0.21186  0.89745  0.44172  1.0000
  H   H475      1.0  0.17858  0.69568  0.02527  1.0000
  C   C401      1.0  0.23343  0.66456  0.46569  1.0000
  H   H476      1.0  0.16400  0.87868  0.46243  1.0000
  C   C402      1.0  0.20903  0.75980  0.40386  1.0000
  C   C403      1.0  0.21975  0.76619  0.38835  1.0000
  C   C404      1.0  0.21971  0.78400  0.38334  1.0000
  C   C405      1.0  0.20916  0.79533  0.39397  1.0000
  C   C406      1.0  0.19931  0.78880  0.40993  1.0000
  C   C407      1.0  0.19902  0.77106  0.41478  1.0000
  C   C408      1.0  0.00490  0.71934  0.28848  1.0000
  H   H477      1.0  0.22741  0.78904  0.37100  1.0000
  H   H478      1.0  0.19156  0.79754  0.41829  1.0000
  H   H479      1.0  0.19082  0.76611  0.42683  1.0000
  C   C409      1.0  0.12749  0.73404  0.14484  1.0000
  C   C410      1.0  0.04931  0.76353  0.34514  1.0000
  C   C411      1.0  0.05348  0.77989  0.34176  1.0000
  C   C412      1.0  0.04291  0.79430  0.33343  1.0000
  C   C413      1.0  0.03343  0.68179  0.24396  1.0000
  S   S126      1.0  0.12432  0.76043  0.43170  1.0000
  H   H480      1.0  0.04559  0.80709  0.33147  1.0000
  H   H481      1.0  0.03238  0.74878  0.34130  1.0000
  H   H482      1.0  0.13510  0.75137  0.38392  1.0000
  H   H483      1.0  0.05934  0.76992  0.08450  1.0000
  H   H484      1.0  0.15136  0.68108  0.98195  1.0000
  C   C414      1.0  0.02059  0.75641  0.99414  1.0000
  C   C415      1.0  0.05859  0.67952  0.17657  1.0000
  H   H485      1.0  0.05923  0.82898  0.16971  1.0000
  S   S127      1.0  0.00870  0.77339  0.32087  1.0000
  H   H486      1.0  0.01427  0.68296  0.26772  1.0000
  H   H487      1.0  0.05088  0.67722  0.22015  1.0000
  C   C416      1.0  0.02086  0.67545  0.25784  1.0000
  C   C417      1.0  0.14214  0.79706  0.45481  1.0000
  C   C418      1.0  0.15336  0.78918  0.44161  1.0000
  C   C419      1.0  0.14791  0.77766  0.43488  1.0000
  C   C420      1.0  0.13111  0.77414  0.44114  1.0000
  C   C421      1.0  0.06267  0.72626  0.09599  1.0000
  C   C422      1.0  0.12564  0.79288  0.46175  1.0000
  H   H488      1.0  0.16629  0.79193  0.43668  1.0000
  H   H489      1.0  0.15674  0.77137  0.42490  1.0000
  C   C423      1.0  0.00291  0.77393  0.01459  1.0000
  H   H490      1.0  0.18561  0.69022  0.00443  1.0000
  C   C424      1.0  0.00613  0.69293  0.21039  1.0000
  C   C425      1.0  0.14112  0.72077  0.02317  1.0000
  C   C426      1.0  0.15154  0.73007  0.00940  1.0000
  C   C427      1.0  0.16579  0.73514  0.01218  1.0000
  C   C428      1.0  0.16947  0.73115  0.02877  1.0000
  C   C429      1.0  0.15883  0.72215  0.04259  1.0000
  C   C430      1.0  0.14480  0.71671  0.03975  1.0000
  H   H491      1.0  0.14861  0.73340  0.99658  1.0000
  H   H492      1.0  0.17386  0.74224  0.00150  1.0000
  H   H493      1.0  0.16125  0.71949  0.05549  1.0000
  H   H494      1.0  0.13643  0.70993  0.05050  1.0000
  H   H495      1.0  0.09159  0.81596  0.43178  1.0000
  H   H496      1.0  0.01291  0.67722  0.37865  1.0000
  C   C431      1.0  0.23044  0.66447  0.03651  1.0000
  H   H497      1.0  0.16851  0.66702  0.46732  1.0000
  Fe  Fe67      1.0  0.20964  0.84955  0.00995  1.0000
  H   H498      1.0  0.16580  0.68472  0.05305  1.0000
  H   H499      1.0  0.00709  0.65458  0.26992  1.0000
  H   H500      1.0  0.21639  0.75777  0.02227  1.0000
  H   H501      1.0  0.12002  0.74566  0.13821  1.0000
  H   H502      1.0  0.06417  0.72463  0.10953  1.0000
  H   H503      1.0  0.02335  0.78989  0.39769  1.0000
  C   C432      1.0  0.03368  0.85864  0.28165  1.0000
  C   C433      1.0  0.04651  0.85573  0.26695  1.0000
  C   C434      1.0  0.04182  0.85919  0.25071  1.0000
  H   H504      1.0  0.01045  0.70562  0.29086  1.0000
  H   H505      1.0  0.06012  0.85137  0.26799  1.0000
  H   H506      1.0  0.05190  0.85768  0.23931  1.0000
  C   C435      1.0  0.03978  0.74658  0.14734  1.0000
  C   C436      1.0  0.02749  0.75978  0.15446  1.0000
  C   C437      1.0  0.03197  0.76800  0.16552  1.0000
  C   C438      1.0  0.04865  0.76282  0.16960  1.0000
  C   C439      1.0  0.06107  0.75005  0.16196  1.0000
  C   C440      1.0  0.05667  0.74205  0.15075  1.0000
  H   H507      1.0  0.01442  0.76342  0.15178  1.0000
  H   H508      1.0  0.02233  0.77790  0.17138  1.0000
  H   H509      1.0  0.07408  0.74629  0.16477  1.0000
  H   H510      1.0  0.06629  0.73224  0.14485  1.0000
  C   C441      1.0  0.20851  0.65374  0.46419  1.0000
  H   H511      1.0  0.12481  0.83891  0.99089  1.0000
  C   C442      1.0  0.04052  0.79027  0.05362  1.0000
  C   C443      1.0  0.04952  0.78316  0.03905  1.0000
  C   C444      1.0  0.04288  0.77096  0.03453  1.0000
  C   C445      1.0  0.02705  0.76638  0.04420  1.0000
  H   H512      1.0  0.23173  0.83127  0.45518  1.0000
  H   H513      1.0  0.04562  0.79965  0.05725  1.0000
  H   H514      1.0  0.04974  0.76522  0.02347  1.0000
  H   H515      1.0  0.02188  0.75706  0.04056  1.0000
  C   C446      1.0  0.00843  0.73359  0.40534  1.0000
  S   S128      1.0  0.99649  0.83371  0.17960  1.0000
  C   C447      1.0  0.04177  0.67201  0.23121  1.0000
  S   S129      1.0  0.23182  0.67623  0.98558  1.0000
  C   C448      1.0  0.03220  0.81320  0.20641  1.0000
  H   H516      1.0  0.04625  0.71000  0.31145  1.0000
  N   N27       1.0  0.18151  0.77131  0.12569  1.0000
  C   C449      1.0  0.16852  0.77854  0.11433  1.0000
  C   C450      1.0  0.19421  0.78302  0.12092  1.0000
  C   C451      1.0  0.19127  0.75418  0.12191  1.0000
  C   C452      1.0  0.17246  0.76914  0.14412  1.0000
  C   C453      1.0  0.15971  0.75858  0.15054  1.0000
  C   C454      1.0  0.17616  0.77694  0.15626  1.0000
  H   H517      1.0  0.23304  0.88164  0.41316  1.0000
  C   C455      1.0  0.16757  0.77423  0.17366  1.0000
  C   C456      1.0  0.15517  0.76371  0.17949  1.0000
  H   H518      1.0  0.16023  0.79100  0.11738  1.0000
  H   H519      1.0  0.17501  0.78094  0.10038  1.0000
  H   H520      1.0  0.15964  0.76959  0.11566  1.0000
  H   H521      1.0  0.18769  0.79633  0.12296  1.0000
  H   H522      1.0  0.20091  0.78426  0.10703  1.0000
  H   H523      1.0  0.20482  0.77803  0.12848  1.0000
  H   H524      1.0  0.20084  0.74804  0.13053  1.0000
  H   H525      1.0  0.18247  0.74502  0.12374  1.0000
  C   C457      1.0  0.00050  0.69382  0.18182  1.0000
  C   C458      1.0  0.11998  0.78166  0.45470  1.0000
  H   H526      1.0  0.18575  0.78507  0.15271  1.0000
  H   H527      1.0  0.12261  0.68828  0.47801  1.0000
  H   H528      1.0  0.17065  0.78020  0.18272  1.0000
  H   H529      1.0  0.16842  0.75175  0.34343  1.0000
  C   C459      1.0  0.11392  0.65635  0.19423  1.0000
  C   C460      1.0  0.23204  0.89556  0.03308  1.0000
  H   H530      1.0  0.21725  0.87296  0.07373  1.0000
  N   N28       1.0  0.03802  0.80334  0.27059  1.0000
  H   H531      1.0  0.23316  0.92674  0.01158  1.0000
  H   H532      1.0  0.10833  0.73334  0.16882  1.0000
  S   S130      1.0  0.19025  0.87247  0.99936  1.0000
  H   H533      1.0  0.02037  0.81485  0.20099  1.0000
  C   C461      1.0  0.15347  0.71133  0.14493  1.0000
  C   C462      1.0  0.04558  0.78766  0.28226  1.0000
  S   S131      1.0  0.18133  0.70777  0.08009  1.0000
  H   H534      1.0  0.03934  0.75789  0.38519  1.0000
  H   H535      1.0  0.18491  0.68245  0.47436  1.0000
  H   H536      1.0  0.02778  0.73271  0.43865  1.0000
  H   H537      1.0  0.17216  0.79455  0.00357  1.0000
  C   C463      1.0  0.05070  0.81659  0.41247  1.0000
  C   C464      1.0  0.01133  0.86734  0.26389  1.0000
  C   C465      1.0  0.02478  0.78549  0.06343  1.0000
  C   C466      1.0  0.03753  0.65589  0.23244  1.0000
  C   C467      1.0  0.03513  0.76151  0.33926  1.0000
  C   C468      1.0  0.02424  0.86493  0.24910  1.0000
  C   C469      1.0  0.02901  0.79224  0.32731  1.0000
  H   H538      1.0  0.04787  0.80524  0.42204  1.0000
  S   S132      1.0  0.15562  0.85213  0.98819  1.0000
  C   C470      1.0  0.23168  0.84253  0.04498  1.0000
  H   H539      1.0  0.02261  0.84471  0.18680  1.0000
  C   C471      1.0  0.00796  0.80637  0.26392  1.0000
  C   C472      1.0  0.16873  0.79553  0.03667  1.0000
  C   C473      1.0  0.18320  0.78336  0.04231  1.0000
  C   C474      1.0  0.16711  0.81300  0.03802  1.0000
  C   C475      1.0  0.19500  0.78819  0.04929  1.0000
  C   C476      1.0  0.17909  0.81771  0.04490  1.0000
  C   C477      1.0  0.19296  0.80532  0.05058  1.0000
  H   H540      1.0  0.24479  0.84350  0.46079  1.0000
  C   C478      1.0  0.01666  0.65942  0.25905  1.0000
  H   H541      1.0  0.20538  0.65445  0.01335  1.0000
  H   H542      1.0  0.01266  0.71314  0.16141  1.0000
  H   H543      1.0  0.03291  0.79074  0.41446  1.0000
  C   C479      1.0  0.23720  0.86816  0.41197  1.0000
  C   C480      1.0  0.01847  0.71253  0.18546  1.0000
  H   H544      1.0  0.13040  0.70285  0.45900  1.0000
  H   H545      1.0  0.13349  0.80887  0.03686  1.0000
  H   H546      1.0  0.18565  0.76999  0.04116  1.0000
  H   H547      1.0  0.00776  0.66201  0.17551  1.0000
  C   C481      1.0  0.08053  0.69710  0.16600  1.0000
  H   H548      1.0  0.17785  0.83113  0.04556  1.0000
  C   C482      1.0  0.05901  0.82270  0.20376  1.0000
  C   C483      1.0  0.09723  0.79692  0.39753  1.0000
  Fe  Fe68      1.0  0.21317  0.73623  0.08108  1.0000
  C   C484      1.0  0.12086  0.72712  0.16222  1.0000
  H   H549      1.0  0.22631  0.66466  0.44189  1.0000
  H   H550      1.0  0.16005  0.67557  0.01120  1.0000
  H   H551      1.0  0.01588  0.74703  0.37909  1.0000
  Fe  Fe69      1.0  0.17788  0.72574  0.09817  1.0000
  H   H552      1.0  0.99753  0.69726  0.37916  1.0000
  C   C485      1.0  0.01782  0.77379  0.05851  1.0000
  C   C486      1.0  0.99910  0.69243  0.15212  1.0000
  C   C487      1.0  0.00292  0.68497  0.38738  1.0000
  C   C488      1.0  0.19106  0.65646  0.01392  1.0000
  H   H553      1.0  0.21092  0.92436  0.02026  1.0000
  C   C489      1.0  0.03316  0.71338  0.30792  1.0000
  H   H554      1.0  0.15429  0.77232  0.32043  1.0000
  H   H555      1.0  0.99606  0.70667  0.14714  1.0000
  Fe  Fe70      1.0  0.00771  0.74691  0.12856  1.0000
  C   C490      1.0  0.03692  0.81230  0.37274  1.0000
  H   H556      1.0  0.20039  0.68419  0.01917  1.0000
  C   C491      1.0  0.09357  0.67098  0.21582  1.0000
  Fe  Fe71      1.0  0.09704  0.71807  0.20637  1.0000
  H   H557      1.0  0.00866  0.79862  0.01195  1.0000
  Fe  Fe72      1.0  0.06299  0.75109  0.44014  1.0000
  C   C492      1.0  0.06453  0.69385  0.16547  1.0000
  H   H558      1.0  0.04011  0.70527  0.27691  1.0000
  S   S133      1.0  0.05196  0.75461  0.41596  1.0000
  S   S134      1.0  0.23141  0.85401  0.98728  1.0000
  C   C493      1.0  0.23865  0.80500  0.41825  1.0000
  H   H559      1.0  0.20234  0.80906  0.05572  1.0000
  C   C494      1.0  0.07104  0.80658  0.20555  1.0000
  H   H560      1.0  0.12035  0.66776  0.18990  1.0000
  C   C495      1.0  0.08548  0.80410  0.21311  1.0000
  S   S135      1.0  0.22211  0.67151  0.08625  1.0000
  C   C496      1.0  0.08826  0.81747  0.21931  1.0000
  C   C497      1.0  0.22742  0.86093  0.40486  1.0000
  C   C498      1.0  0.03170  0.75005  0.39560  1.0000
  C   C499      1.0  0.17653  0.66690  0.07351  1.0000
  H   H561      1.0  0.14353  0.72506  0.45839  1.0000
  C   C500      1.0  0.03263  0.78623  0.25129  1.0000
  C   C501      1.0  0.20186  0.84201  0.47660  1.0000
  S   S136      1.0  0.23828  0.69165  0.40866  1.0000
  S   S137      1.0  0.20493  0.71593  0.10416  1.0000
  H   H562      1.0  0.04342  0.72596  0.26431  1.0000
  H   H563      1.0  0.06933  0.79575  0.20109  1.0000
  S   S138      1.0  0.03421  0.73500  0.13475  1.0000
  H   H564      1.0  0.09459  0.79175  0.21414  1.0000
  H   H565      1.0  0.02342  0.71869  0.31858  1.0000
  H   H566      1.0  0.09943  0.81563  0.22521  1.0000
  H   H567      1.0  0.20842  0.90835  0.46853  1.0000
  C   C502      1.0  0.05251  0.81008  0.25748  1.0000
  H   H568      1.0  0.20099  0.82969  0.47360  1.0000
  C   C503      1.0  0.10699  0.84130  0.44947  1.0000
  C   C504      1.0  0.06140  0.84321  0.40611  1.0000
  C   C505      1.0  0.04867  0.81905  0.39512  1.0000
  C   C506      1.0  0.23945  0.76120  0.12005  1.0000
  H   H569      1.0  0.99548  0.78590  0.23875  1.0000
  C   C507      1.0  0.05673  0.82864  0.41788  1.0000
  H   H570      1.0  0.21928  0.68596  0.04978  1.0000
  H   H571      1.0  0.99779  0.87213  0.26274  1.0000
  C   C508      1.0  0.22583  0.76548  0.02159  1.0000
  H   H572      1.0  0.06107  0.80019  0.25013  1.0000
  C   C509      1.0  0.00638  0.74949  0.28453  1.0000
  H   H573      1.0  0.05478  0.78076  0.38298  1.0000
  C   C510      1.0  0.06207  0.83596  0.21052  1.0000
  H   H574      1.0  0.22830  0.67194  0.02401  1.0000
  C   C511      1.0  0.21505  0.89303  0.01266  1.0000
  S   S139      1.0  0.12260  0.70349  0.19294  1.0000
  H   H575      1.0  0.15732  0.78032  0.00655  1.0000
  H   H576      1.0  0.01276  0.75987  0.28396  1.0000
  H   H577      1.0  0.22618  0.85436  0.45145  1.0000
  H   H578      1.0  0.23178  0.74176  0.11124  1.0000
  C   C512      1.0  0.01064  0.70691  0.17492  1.0000
  C   C513      1.0  0.08595  0.74246  0.08425  1.0000
  C   C514      1.0  0.03520  0.74611  0.41240  1.0000
  H   H579      1.0  0.03831  0.81983  0.28762  1.0000
  H   H580      1.0  0.05665  0.75654  0.10588  1.0000
  S   S140      1.0  0.21961  0.71898  0.06189  1.0000
  C   C515      1.0  0.05824  0.79135  0.38702  1.0000
  S   S141      1.0  0.05184  0.74585  0.46879  1.0000
  H   H581      1.0  0.09327  0.80027  0.41019  1.0000
  C   C516      1.0  0.02522  0.77584  0.32999  1.0000
  H   H582      1.0  0.24070  0.74549  0.03808  1.0000
  H   H583      1.0  0.04630  0.77986  0.24921  1.0000
  H   H584      1.0  0.02685  0.77220  0.23485  1.0000
  H   H585      1.0  0.14333  0.80317  0.32250  1.0000
  C   C517      1.0  0.10926  0.74060  0.09957  1.0000
  H   H586      1.0  0.00029  0.74814  0.01523  1.0000
  N   N29       1.0  0.04387  0.82503  0.19562  1.0000
  H   H587      1.0  0.02128  0.80339  0.32044  1.0000
  N   N30       1.0  0.16083  0.79538  0.37479  1.0000
  C   C518      1.0  0.14338  0.80349  0.38373  1.0000
  C   C519      1.0  0.16901  0.78187  0.38800  1.0000
  C   C520      1.0  0.17195  0.80860  0.36806  1.0000
  C   C521      1.0  0.15892  0.78860  0.36024  1.0000
  C   C522      1.0  0.16512  0.77095  0.35870  1.0000
  C   C523      1.0  0.15091  0.79990  0.34681  1.0000
  C   C524      1.0  0.16335  0.76519  0.34452  1.0000
  C   C525      1.0  0.14926  0.79405  0.33270  1.0000
  C   C526      1.0  0.15545  0.77672  0.33153  1.0000
  H   H588      1.0  0.14423  0.80827  0.39510  1.0000
  H   H589      1.0  0.13687  0.81491  0.37521  1.0000
  H   H590      1.0  0.13457  0.79400  0.38859  1.0000
  H   H591      1.0  0.16120  0.77158  0.39396  1.0000
  H   H592      1.0  0.17001  0.78749  0.39875  1.0000
  H   H593      1.0  0.18262  0.77577  0.38249  1.0000
  H   H594      1.0  0.18518  0.80305  0.36116  1.0000
  H   H595      1.0  0.16619  0.81988  0.35890  1.0000
  H   H596      1.0  0.17388  0.81390  0.37865  1.0000
  H   H597      1.0  0.17162  0.76139  0.36814  1.0000
  H   H598      1.0  0.14603  0.81349  0.34696  1.0000
  H   H599      1.0  0.19864  0.75530  0.10826  1.0000
  C   C527      1.0  0.13055  0.71232  0.17106  1.0000
  C   C528      1.0  0.01195  0.72959  0.42213  1.0000
  C   C529      1.0  0.02527  0.73582  0.42566  1.0000
  C   C530      1.0  0.09877  0.74355  0.06858  1.0000
  C   C531      1.0  0.11621  0.74322  0.06857  1.0000
  Fe  Fe73      1.0  0.06018  0.71459  0.22694  1.0000
  H   H600      1.0  0.12090  0.81204  0.98423  1.0000
  N   N31       1.0  0.06739  0.74255  0.08487  1.0000
  C   C532      1.0  0.06352  0.74396  0.06762  1.0000
  H   H601      1.0  0.04939  0.74443  0.06844  1.0000
  H   H602      1.0  0.06663  0.75604  0.05866  1.0000
  H   H603      1.0  0.15632  0.75214  0.14213  1.0000
  C   C533      1.0  0.22843  0.66266  0.06735  1.0000
  H   H604      1.0  0.09574  0.74463  0.05610  1.0000
  C   C534      1.0  0.13380  0.81506  0.98130  1.0000
  H   H605      1.0  0.01760  0.80948  0.40618  1.0000
  Fe  Fe74      1.0  0.09781  0.75529  0.44584  1.0000
  C   C535      1.0  0.15126  0.75589  0.16794  1.0000
  H   H606      1.0  0.07102  0.71475  0.09092  1.0000
  H   H607      1.0  0.07105  0.73274  0.06160  1.0000
  H   H608      1.0  0.14866  0.76151  0.19301  1.0000
  C   C536      1.0  0.00392  0.78933  0.24530  1.0000
  C   C537      1.0  0.09173  0.74111  0.09974  1.0000
  H   H609      1.0  0.11886  0.74595  0.40280  1.0000
  H   H610      1.0  0.12724  0.75754  0.35429  1.0000
  C   C538      1.0  0.12297  0.74597  0.38867  1.0000
  Fe  Fe75      1.0  0.20895  0.69957  0.08413  1.0000
  S   S142      1.0  0.15186  0.73596  0.11458  1.0000
  C   C539      1.0  0.14380  0.72619  0.13613  1.0000
  C   C540      1.0  0.12148  0.74162  0.08403  1.0000
  S   S143      1.0  0.08867  0.73277  0.44258  1.0000
  C   C541      1.0  0.07657  0.83331  0.21805  1.0000
  H   H611      1.0  0.06919  0.79581  0.37689  1.0000
  H   H612      1.0  0.14173  0.74755  0.17252  1.0000
  S   S144      1.0  0.07138  0.72109  0.19847  1.0000
  H   H613      1.0  0.12641  0.73210  0.38757  1.0000
  H   H614      1.0  0.10469  0.75946  0.35311  1.0000
  H   H615      1.0  0.08840  0.74980  0.40073  1.0000
  C   C542      1.0  0.11492  0.75292  0.36094  1.0000
  H   H616      1.0  0.11346  0.73936  0.11156  1.0000
  H   H617      1.0  0.04778  0.81502  0.36157  1.0000
  H   H618      1.0  0.09451  0.73554  0.38591  1.0000
  H   H619      1.0  0.11737  0.73890  0.36067  1.0000
  N   N32       1.0  0.21988  0.84168  0.47831  1.0000
  H   H620      1.0  0.13506  0.74111  0.08403  1.0000
  C   C543      1.0  0.00719  0.75854  0.00854  1.0000
  S   S145      1.0  0.20093  0.83073  0.99959  1.0000
  C   C544      1.0  0.09285  0.74931  0.38675  1.0000
  N   N33       1.0  0.10916  0.75607  0.37890  1.0000
  H   H621      1.0  0.12658  0.85003  0.46894  1.0000
  H   H622      1.0  0.01844  0.81226  0.29166  1.0000
  H   H623      1.0  0.16988  0.67494  0.08294  1.0000
  C   C545      1.0  0.10395  0.80545  0.36642  1.0000
  C   C546      1.0  0.09309  0.82223  0.44139  1.0000
  N   N34       1.0  0.04307  0.80575  0.38940  1.0000
  N   N35       1.0  0.22877  0.90085  0.01519  1.0000
  H   H624      1.0  0.08194  0.75691  0.38015  1.0000
  C   C547      1.0  0.18009  0.69560  0.46830  1.0000
  C   C548      1.0  0.15280  0.83399  0.98179  1.0000
  S   S146      1.0  0.99929  0.69216  0.33203  1.0000
  H   H625      1.0  0.10877  0.86818  0.46463  1.0000
  H   H626      1.0  0.06618  0.85249  0.41032  1.0000
  H   H627      1.0  0.18904  0.66145  0.00039  1.0000
  C   C549      1.0  0.04484  0.80240  0.99483  1.0000
  H   H628      1.0  0.00377  0.66091  0.41697  1.0000
  H   H629      1.0  0.09926  0.77001  0.40807  1.0000
  C   C550      1.0  0.10589  0.77458  0.37985  1.0000
  H   H630      1.0  0.10515  0.81556  0.35485  1.0000
  C   C551      1.0  0.06859  0.66842  0.18826  1.0000
  C   C552      1.0  0.14682  0.70440  0.16235  1.0000
  C   C553      1.0  0.09043  0.68630  0.17784  1.0000
  S   S147      1.0  0.07317  0.77409  0.44126  1.0000
  H   H631      1.0  0.05439  0.79031  0.99850  1.0000
  H   H632      1.0  0.04208  0.74969  0.27934  1.0000
  C   C554      1.0  0.10743  0.78810  0.36492  1.0000
  S   S148      1.0  0.03717  0.70255  0.24261  1.0000
  C   C555      1.0  0.10075  0.77956  0.39617  1.0000
  H   H633      1.0  0.05240  0.81290  0.98896  1.0000
  H   H634      1.0  0.11100  0.78570  0.35191  1.0000
  C   C556      1.0  0.23472  0.76430  0.09103  1.0000
  H   H635      1.0  0.00544  0.66784  0.30989  1.0000
  C   C557      1.0  0.19229  0.70623  0.46073  1.0000
  H   H636      1.0  0.14252  0.77917  0.05420  1.0000
  H   H637      1.0  0.07467  0.81000  0.46179  1.0000
  H   H638      1.0  0.01351  0.68772  0.14902  1.0000
  C   C558      1.0  0.04985  0.82086  0.17807  1.0000
  H   H639      1.0  0.04733  0.82152  0.24804  1.0000
  H   H640      1.0  0.00614  0.86718  0.29127  1.0000
  C   C559      1.0  0.18660  0.68537  0.01830  1.0000
  N   N36       1.0  0.18087  0.66859  0.02548  1.0000
  H   H641      1.0  0.15689  0.82338  0.03362  1.0000
  H   H642      1.0  0.09602  0.82329  0.38382  1.0000
  H   H643      1.0  0.06326  0.78563  0.39916  1.0000
  H   H644      1.0  0.21051  0.88151  0.04515  1.0000
  H   H645      1.0  0.00999  0.68847  0.39574  1.0000
  C   C560      1.0  0.14927  0.77546  0.04155  1.0000
  C   C561      1.0  0.09879  0.80985  0.38269  1.0000
  H   H646      1.0  0.16510  0.74301  0.44559  1.0000
  H   H647      1.0  0.00429  0.72169  0.43248  1.0000
  H   H648      1.0  0.04149  0.85263  0.18604  1.0000
  H   H649      1.0  0.23681  0.80529  0.43220  1.0000
  C   C562      1.0  0.24365  0.78729  0.09873  1.0000
  H   H650      1.0  0.05420  0.73563  0.29460  1.0000
  H   H651      1.0  0.15950  0.76371  0.04420  1.0000
  H   H652      1.0  0.14631  0.66578  0.46987  1.0000
  H   H653      1.0  0.05812  0.71371  0.27830  1.0000
  N   N37       1.0  0.03285  0.72595  0.29123  1.0000
  C   C563      1.0  0.03338  0.84299  0.19367  1.0000
  H   H654      1.0  0.15439  0.69297  0.16914  1.0000
  H   H655      1.0  0.16609  0.70526  0.13838  1.0000
  H   H656      1.0  0.02768  0.81566  0.21982  1.0000
  H   H657      1.0  0.05777  0.82662  0.43131  1.0000
  C   C564      1.0  0.16209  0.70159  0.46763  1.0000
  S   S149      1.0  0.01916  0.86985  0.22827  1.0000
  C   C565      1.0  0.04411  0.71732  0.27714  1.0000
  H   H658      1.0  0.10154  0.66373  0.22570  1.0000
  Fe  Fe76      1.0  0.06433  0.76728  0.47011  1.0000
  H   H659      1.0  0.03005  0.70092  0.30763  1.0000
  C   C566      1.0  0.22397  0.78253  0.01239  1.0000
  S   S150      1.0  0.22906  0.75682  0.07517  1.0000
  C   C567      1.0  0.01636  0.70543  0.20312  1.0000
  C   C568      1.0  0.15692  0.71920  0.45954  1.0000
  H   H660      1.0  0.13252  0.79951  0.01947  1.0000
  H   H661      1.0  0.02258  0.70973  0.21121  1.0000
  C   C569      1.0  0.01472  0.73171  0.28813  1.0000
  H   H662      1.0  0.01768  0.79137  0.07438  1.0000
  S   S151      1.0  0.00051  0.77472  0.11570  1.0000
  H   H663      1.0  0.05336  0.83657  0.36981  1.0000
  H   H664      1.0  0.13052  0.70857  0.98526  1.0000
  S   S152      1.0  0.00771  0.72664  0.35196  1.0000
  H   H665      1.0  0.22740  0.75752  0.37984  1.0000
  C   C570      1.0  0.01609  0.86451  0.28004  1.0000
  H   H666      1.0  0.15369  0.68138  0.03182  1.0000
  H   H667      1.0  0.99948  0.84196  0.31357  1.0000
  C   C571      1.0  0.23240  0.84351  0.40361  1.0000
  H   H668      1.0  0.11609  0.84989  0.44511  1.0000
  Fe  Fe77      1.0  0.18352  0.85383  0.98689  1.0000
  Fe  Fe78      1.0  0.23318  0.72036  0.40733  1.0000
  H   H669      1.0  0.03864  0.82299  0.17153  1.0000
  H   H670      1.0  0.05634  0.80705  0.17835  1.0000
  C   C572      1.0  0.02615  0.79880  0.26194  1.0000
  H   H671      1.0  0.02702  0.84648  0.20645  1.0000
  C   C573      1.0  0.15550  0.67493  0.46528  1.0000
  H   H672      1.0  0.19640  0.73144  0.44643  1.0000
  H   H673      1.0  0.14588  0.81506  0.01532  1.0000
  C   C574      1.0  0.17432  0.67238  0.05635  1.0000
  H   H674      1.0  0.03875  0.79934  0.20715  1.0000
  C   C575      1.0  0.23961  0.75850  0.03031  1.0000
  H   H675      1.0  0.03624  0.80565  0.00708  1.0000
  H   H676      1.0  0.22418  0.83858  0.39818  1.0000
  H   H677      1.0  0.21572  0.86887  0.40051  1.0000
  H   H678      1.0  0.11696  0.79879  0.47211  1.0000
  H   H679      1.0  0.11195  0.83623  0.42377  1.0000
  H   H680      1.0  0.21328  0.89675  0.99899  1.0000
  H   H681      1.0  0.19758  0.85268  0.46603  1.0000
  C   C576      1.0  0.01840  0.74385  0.39208  1.0000
  C   C577      1.0  0.22297  0.66151  0.45588  1.0000
  N   N38       1.0  0.15653  0.78999  0.02922  1.0000
  H   H682      1.0  0.03512  0.78189  0.29196  1.0000
  N   N39       1.0  0.14978  0.68954  0.47460  1.0000
  H   H683      1.0  0.05376  0.77750  0.27511  1.0000
  H   H684      1.0  0.06384  0.85709  0.37971  1.0000
  H   H685      1.0  0.07880  0.84362  0.22298  1.0000
  C   C578      1.0  0.13603  0.83027  0.98502  1.0000
  C   C579      1.0  0.06002  0.84581  0.38889  1.0000
  C   C580      1.0  0.10462  0.83354  0.43695  1.0000
  S   S153      1.0  0.99944  0.73618  0.10994  1.0000
  H   H686      1.0  0.23400  0.80552  0.00393  1.0000
  H   H687      1.0  0.15642  0.67969  0.45109  1.0000
  C   C581      1.0  0.05384  0.83391  0.38338  1.0000
  H   H688      1.0  0.17679  0.77264  0.01516  1.0000
  H   H689      1.0  0.20608  0.70103  0.46080  1.0000
  H   H690      1.0  0.00823  0.81347  0.15337  1.0000
  N   N40       1.0  0.09512  0.66091  0.20247  1.0000
  C   C582      1.0  0.02555  0.78566  0.99138  1.0000
  C   C583      1.0  0.02162  0.78164  0.24311  1.0000
  C   C584      1.0  0.99810  0.68734  0.20000  1.0000
  H   H691      1.0  0.02368  0.82910  0.27306  1.0000
  H   H692      1.0  0.02651  0.82420  0.37322  1.0000
  C   C585      1.0  0.23122  0.84260  0.46072  1.0000
  C   C586      1.0  0.02915  0.81670  0.28117  1.0000
  H   H693      1.0  0.21303  0.78814  0.00593  1.0000
  C   C587      1.0  0.99709  0.80159  0.25575  1.0000
  S   S154      1.0  0.99692  0.76950  0.06888  1.0000
  H   H694      1.0  0.06316  0.65764  0.19650  1.0000
  H   H695      1.0  0.02408  0.74431  0.98960  1.0000
  H   H696      1.0  0.02621  0.72250  0.17989  1.0000
  C   C588      1.0  0.22504  0.88095  0.06356  1.0000
  N   N41       1.0  0.03496  0.80002  0.98282  1.0000
  C   C589      1.0  0.09793  0.83777  0.46697  1.0000
  H   H697      1.0  0.10235  0.68989  0.17812  1.0000
  H   H698      1.0  0.07977  0.67440  0.22272  1.0000
  H   H699      1.0  0.03152  0.80247  0.36942  1.0000
  H   H700      1.0  0.22582  0.81073  0.41440  1.0000
  H   H701      1.0  0.20202  0.89742  0.02067  1.0000
  C   C590      1.0  0.22303  0.91994  0.01099  1.0000
  C   C591      1.0  0.23607  0.79254  0.01155  1.0000
  H   H702      1.0  0.24259  0.81851  0.38419  1.0000
  C   C592      1.0  0.23489  0.75452  0.10780  1.0000
  C   C593      1.0  0.23253  0.83604  0.06248  1.0000
  C   C594      1.0  0.23927  0.88535  0.06698  1.0000
  H   H703      1.0  0.22019  0.92440  0.99767  1.0000
  H   H704      1.0  0.01359  0.82084  0.98997  1.0000
  C   C595      1.0  0.02972  0.76970  0.98564  1.0000
  H   H705      1.0  0.04603  0.67712  0.17629  1.0000
  H   H706      1.0  0.23882  0.78832  0.07367  1.0000
  C   C596      1.0  0.08595  0.82654  0.47087  1.0000
  C   C597      1.0  0.23911  0.78065  0.08655  1.0000
  H   H707      1.0  0.23972  0.75363  0.13300  1.0000
  H   H708      1.0  0.21645  0.86932  0.47477  1.0000
  H   H709      1.0  0.19697  0.78838  0.47830  1.0000
  H   H710      1.0  0.00445  0.68748  0.22419  1.0000
  S   S155      1.0  0.08992  0.75025  0.47471  1.0000
  H   H711      1.0  0.17336  0.78089  0.47456  1.0000
  H   H712      1.0  0.00166  0.65821  0.37092  1.0000
  H   H713      1.0  0.24256  0.89803  0.98920  1.0000
  C   C598      1.0  0.11332  0.85688  0.47454  1.0000
  C   C599      1.0  0.24396  0.77757  0.11546  1.0000
  C   C600      1.0  0.18762  0.65126  0.07852  1.0000
  C   C601      1.0  0.99668  0.65901  0.40768  1.0000
  H   H714      1.0  0.24256  0.88072  0.07970  1.0000
  H   H715      1.0  0.20066  0.65107  0.45655  1.0000
  H   H716      1.0  0.24498  0.85455  0.02027  1.0000
  Fe  Fe79      1.0  0.99542  0.75233  0.33786  1.0000
  H   H717      1.0  0.22818  0.78051  0.47923  1.0000
  H   H718      1.0  0.20853  0.65260  0.90630  1.0000
  S   S156      1.0  0.14630  0.78441  0.96929  1.0000
  H   H719      1.0  0.23290  0.85726  0.48671  1.0000
  H   H720      1.0  0.19820  0.93534  0.89633  1.0000
  H   H721      1.0  0.23165  0.83642  0.89762  1.0000
  C   C602      1.0  0.21039  0.94525  0.82460  1.0000
  H   H722      1.0  0.18415  0.78113  0.91825  1.0000
  C   C603      1.0  0.22461  0.76362  0.50417  1.0000
  C   C604      1.0  0.08395  0.85465  0.48929  1.0000
  H   H723      1.0  0.16266  0.67499  0.49576  1.0000
  S   S157      1.0  0.20332  0.85906  0.96216  1.0000
  H   H724      1.0  0.20096  0.89358  0.64166  1.0000
  H   H725      1.0  0.23844  0.76037  0.50450  1.0000
  H   H726      1.0  0.22918  0.67900  0.51624  1.0000
  S   S158      1.0  0.18995  0.96478  0.86708  1.0000
  C   C605      1.0  0.12278  0.67865  0.95805  1.0000
  C   C606      1.0  0.20390  0.90676  0.67522  1.0000
  C   C607      1.0  0.22773  0.91672  0.82205  1.0000
  H   H727      1.0  0.22709  0.88768  0.71436  1.0000
  H   H728      1.0  0.24095  0.68496  0.56280  1.0000
  Fe  Fe80      1.0  0.21831  0.95515  0.85665  1.0000
  S   S159      1.0  0.22742  0.92843  0.85081  1.0000
  H   H729      1.0  0.17552  0.85549  0.59980  1.0000
  S   S160      1.0  0.22851  0.96236  0.87635  1.0000
  Fe  Fe81      1.0  0.12288  0.79764  0.56534  1.0000
  S   S161      1.0  0.09517  0.81143  0.57345  1.0000
  S   S162      1.0  0.13547  0.77061  0.57671  1.0000
  Fe  Fe82      1.0  0.13296  0.82797  0.53864  1.0000
  S   S163      1.0  0.10628  0.84458  0.54385  1.0000
  S   S164      1.0  0.15501  0.83793  0.51901  1.0000
  Fe  Fe83      1.0  0.10709  0.83417  0.57197  1.0000
  S   S165      1.0  0.09718  0.85261  0.59076  1.0000
  Fe  Fe84      1.0  0.09648  0.82072  0.54475  1.0000
  S   S166      1.0  0.07320  0.82525  0.53233  1.0000
  S   S167      1.0  0.13459  0.81947  0.56661  1.0000
  S   S168      1.0  0.12325  0.80514  0.53679  1.0000
  C   C608      1.0  0.23647  0.79693  0.51641  1.0000
  S   S169      1.0  0.22519  0.72091  0.56548  1.0000
  H   H730      1.0  0.18175  0.88147  0.57799  1.0000
  C   C609      1.0  0.24501  0.97819  0.91856  1.0000
  S   S170      1.0  0.13465  0.97976  0.79216  1.0000
  S   S171      1.0  0.21584  0.77141  0.55554  1.0000
  C   C610      1.0  0.24264  0.79892  0.93830  1.0000
  H   H731      1.0  0.18430  0.66498  0.61833  1.0000
  C   C611      1.0  0.16976  0.68248  0.92797  1.0000
  Fe  Fe85      1.0  0.12732  0.90454  0.68473  1.0000
  S   S172      1.0  0.14255  0.87737  0.68380  1.0000
  S   S173      1.0  0.11003  0.91170  0.70955  1.0000
  Fe  Fe86      1.0  0.14479  0.91876  0.64883  1.0000
  S   S174      1.0  0.16166  0.89327  0.64483  1.0000
  S   S175      1.0  0.14928  0.94212  0.62829  1.0000
  Fe  Fe87      1.0  0.13755  0.88234  0.65678  1.0000
  S   S176      1.0  0.13869  0.85972  0.64452  1.0000
  Fe  Fe88      1.0  0.16565  0.88994  0.67167  1.0000
  S   S177      1.0  0.19184  0.87704  0.67866  1.0000
  S   S178      1.0  0.11995  0.90855  0.65874  1.0000
  S   S179      1.0  0.15100  0.91656  0.67469  1.0000
  Fe  Fe89      1.0  0.12494  0.70047  0.88398  1.0000
  S   S180      1.0  0.13528  0.70849  0.85537  1.0000
  S   S181      1.0  0.09785  0.70968  0.89902  1.0000
  Fe  Fe90      1.0  0.15907  0.71101  0.86356  1.0000
  H   H732      1.0  0.05841  0.78565  0.96926  1.0000
  H   H733      1.0  0.14320  0.86432  0.57545  1.0000
  S   S182      1.0  0.14766  0.70489  0.89184  1.0000
  Fe  Fe91      1.0  0.23386  0.74590  0.56055  1.0000
  H   H734      1.0  0.16085  0.76029  0.91455  1.0000
  H   H735      1.0  0.21610  0.71914  0.50852  1.0000
  C   C612      1.0  0.17348  0.68851  0.94103  1.0000
  C   C613      1.0  0.06733  0.93103  0.73430  1.0000
  C   C614      1.0  0.23960  0.95145  0.57579  1.0000
  H   H736      1.0  0.17021  0.93429  0.91679  1.0000
  C   C615      1.0  0.17550  0.66506  0.92670  1.0000
  C   C616      1.0  0.03528  0.98174  0.75357  1.0000
  H   H737      1.0  0.16705  0.65283  0.62700  1.0000
  C   C617      1.0  0.23740  0.80429  0.55811  1.0000
  H   H738      1.0  0.11007  0.83543  0.50485  1.0000
  C   C618      1.0  0.05782  0.96524  0.76897  1.0000
  H   H739      1.0  0.09900  0.82142  0.50004  1.0000
  H   H740      1.0  0.11016  0.71933  0.52616  1.0000
  C   C619      1.0  0.16719  0.82280  0.97417  1.0000
  Fe  Fe92      1.0  0.21342  0.87920  0.54379  1.0000
  H   H741      1.0  0.11130  0.66240  0.76656  1.0000
  S   S183      1.0  0.20618  0.85378  0.55784  1.0000
  H   H742      1.0  0.18351  0.92448  0.84166  1.0000
  H   H743      1.0  0.16023  0.89019  0.48899  1.0000
  H   H744      1.0  0.19591  0.90177  0.58413  1.0000
  C   C620      1.0  0.20359  0.95376  0.58621  1.0000
  C   C621      1.0  0.09397  0.69830  0.50432  1.0000
  C   C622      1.0  0.10070  0.68122  0.51185  1.0000
  C   C623      1.0  0.11113  0.67787  0.52423  1.0000
  C   C624      1.0  0.11491  0.69159  0.52912  1.0000
  Fe  Fe93      1.0  0.14835  0.68028  0.85624  1.0000
  N   N42       1.0  0.17785  0.75642  0.93244  1.0000
  H   H745      1.0  0.09812  0.67055  0.50784  1.0000
  H   H746      1.0  0.11626  0.66467  0.52992  1.0000
  H   H747      1.0  0.20947  0.86712  0.86264  1.0000
  C   C625      1.0  0.14249  0.90171  0.59966  1.0000
  C   C626      1.0  0.15611  0.95519  0.63831  1.0000
  C   C627      1.0  0.14511  0.96140  0.65267  1.0000
  C   C628      1.0  0.15099  0.97118  0.66116  1.0000
  C   C629      1.0  0.16798  0.97435  0.65555  1.0000
  C   C630      1.0  0.17894  0.96819  0.64117  1.0000
  C   C631      1.0  0.17297  0.95864  0.63255  1.0000
  H   H748      1.0  0.13209  0.95863  0.65721  1.0000
  H   H749      1.0  0.20904  0.77836  0.79810  1.0000
  C   C632      1.0  0.20295  0.88995  0.68460  1.0000
  C   C633      1.0  0.21156  0.88305  0.69853  1.0000
  H   H750      1.0  0.21096  0.87001  0.70572  1.0000
  H   H751      1.0  0.20169  0.78791  0.97601  1.0000
  H   H752      1.0  0.21002  0.85891  0.49659  1.0000
  C   C634      1.0  0.22102  0.78405  0.79410  1.0000
  S   S184      1.0  0.07741  0.75674  0.95585  1.0000
  C   C635      1.0  0.11553  0.66542  0.79877  1.0000
  H   H753      1.0  0.18388  0.84963  0.62827  1.0000
  H   H754      1.0  0.20666  0.91521  0.90947  1.0000
  C   C636      1.0  0.16489  0.80802  0.96977  1.0000
  Fe  Fe94      1.0  0.23985  0.89865  0.51921  1.0000
  Fe  Fe95      1.0  0.23692  0.78738  0.88763  1.0000
  C   C637      1.0  0.10928  0.85540  0.60488  1.0000
  C   C638      1.0  0.10132  0.86675  0.61639  1.0000
  C   C639      1.0  0.11041  0.86894  0.62814  1.0000
  C   C640      1.0  0.12753  0.85975  0.62843  1.0000
  C   C641      1.0  0.13565  0.84894  0.61649  1.0000
  C   C642      1.0  0.12660  0.84668  0.60481  1.0000
  H   H755      1.0  0.08794  0.87364  0.61645  1.0000
  H   H756      1.0  0.10397  0.87727  0.63734  1.0000
  H   H757      1.0  0.14906  0.84231  0.61631  1.0000
  H   H758      1.0  0.13309  0.83824  0.59576  1.0000
  C   C643      1.0  0.15809  0.76926  0.56970  1.0000
  C   C644      1.0  0.16986  0.75621  0.57817  1.0000
  C   C645      1.0  0.18783  0.75644  0.57360  1.0000
  C   C646      1.0  0.19392  0.76964  0.56048  1.0000
  C   C647      1.0  0.18223  0.78218  0.55159  1.0000
  C   C648      1.0  0.16436  0.78205  0.55625  1.0000
  H   H759      1.0  0.16503  0.74642  0.58874  1.0000
  H   H760      1.0  0.19682  0.74691  0.58074  1.0000
  H   H761      1.0  0.18700  0.79215  0.54121  1.0000
  H   H762      1.0  0.15546  0.79202  0.54947  1.0000
  C   C649      1.0  0.16951  0.84199  0.52965  1.0000
  C   C650      1.0  0.17443  0.83027  0.54425  1.0000
  C   C651      1.0  0.18593  0.83372  0.55276  1.0000
  C   C652      1.0  0.19236  0.84905  0.54680  1.0000
  C   C653      1.0  0.18726  0.86082  0.53229  1.0000
  C   C654      1.0  0.17606  0.85721  0.52361  1.0000
  H   H763      1.0  0.16956  0.81844  0.54888  1.0000
  H   H764      1.0  0.18971  0.82459  0.56402  1.0000
  H   H765      1.0  0.19146  0.87300  0.52792  1.0000
  H   H766      1.0  0.17214  0.86646  0.51247  1.0000
  C   C655      1.0  0.06710  0.81292  0.52052  1.0000
  C   C656      1.0  0.05111  0.81958  0.51520  1.0000
  C   C657      1.0  0.04597  0.81175  0.50437  1.0000
  C   C658      1.0  0.05675  0.79715  0.49849  1.0000
  C   C659      1.0  0.07276  0.79010  0.50397  1.0000
  C   C660      1.0  0.07790  0.79794  0.51512  1.0000
  H   H767      1.0  0.04268  0.83108  0.51929  1.0000
  H   H768      1.0  0.16705  0.71529  0.49973  1.0000
  H   H769      1.0  0.08118  0.77879  0.49950  1.0000
  H   H770      1.0  0.09028  0.79266  0.51917  1.0000
  H   H771      1.0  0.19675  0.89152  0.89218  1.0000
  H   H772      1.0  0.21722  0.74819  0.52934  1.0000
  C   C661      1.0  0.21473  0.93497  0.79815  1.0000
  Fe  Fe96      1.0  0.21154  0.91742  0.54390  1.0000
  C   C662      1.0  0.21877  0.77498  0.48993  1.0000
  C   C663      1.0  0.10950  0.96628  0.71572  1.0000
  C   C664      1.0  0.11162  0.96273  0.69925  1.0000
  C   C665      1.0  0.11201  0.94597  0.69731  1.0000
  C   C666      1.0  0.10995  0.93269  0.71187  1.0000
  C   C667      1.0  0.10752  0.93628  0.72842  1.0000
  C   C668      1.0  0.10735  0.95304  0.73037  1.0000
  H   H773      1.0  0.15935  0.91640  0.91987  1.0000
  H   H774      1.0  0.11373  0.94335  0.68453  1.0000
  H   H775      1.0  0.10596  0.92601  0.73972  1.0000
  H   H776      1.0  0.10589  0.95559  0.74312  1.0000
  H   H777      1.0  0.21884  0.90443  0.63324  1.0000
  H   H778      1.0  0.20401  0.83218  0.51218  1.0000
  H   H779      1.0  0.21672  0.98113  0.55974  1.0000
  N   N43       1.0  0.05404  0.97321  0.75142  1.0000
  H   H780      1.0  0.13568  0.67856  0.92419  1.0000
  H   H781      1.0  0.15951  0.96278  0.81368  1.0000
  C   C669      1.0  0.21294  0.91729  0.94809  1.0000
  C   C670      1.0  0.19493  0.92385  0.95201  1.0000
  C   C671      1.0  0.18748  0.93933  0.94178  1.0000
  C   C672      1.0  0.19787  0.94793  0.92723  1.0000
  C   C673      1.0  0.21581  0.94117  0.92321  1.0000
  C   C674      1.0  0.22334  0.92607  0.93374  1.0000
  H   H782      1.0  0.15843  0.77094  0.52984  1.0000
  H   H783      1.0  0.17361  0.94460  0.94512  1.0000
  C   C675      1.0  0.22574  0.82612  0.49105  1.0000
  C   C676      1.0  0.09528  0.65908  0.83216  1.0000
  C   C677      1.0  0.08439  0.74327  0.94034  1.0000
  C   C678      1.0  0.10206  0.73681  0.93374  1.0000
  C   C679      1.0  0.10659  0.72668  0.92082  1.0000
  C   C680      1.0  0.09346  0.72283  0.91466  1.0000
  C   C681      1.0  0.07593  0.72916  0.92153  1.0000
  C   C682      1.0  0.07144  0.73940  0.93410  1.0000
  C   C683      1.0  0.18684  0.89637  0.90301  1.0000
  H   H784      1.0  0.12019  0.72190  0.91570  1.0000
  H   H785      1.0  0.06568  0.72629  0.91694  1.0000
  H   H786      1.0  0.05778  0.74437  0.93900  1.0000
  C   C684      1.0  0.19216  0.71796  0.50212  1.0000
  H   H787      1.0  0.09878  0.65558  0.94681  1.0000
  H   H788      1.0  0.24481  0.84192  0.51583  1.0000
  C   C685      1.0  0.18087  0.65217  0.61988  1.0000
  H   H789      1.0  0.24393  0.80205  0.77777  1.0000
  H   H790      1.0  0.12061  0.82299  0.48828  1.0000
  Fe  Fe97      1.0  0.14837  0.66200  0.54394  1.0000
  S   S185      1.0  0.18818  0.96719  0.91445  1.0000
  H   H791      1.0  0.04012  0.76702  0.97473  1.0000
  C   C686      1.0  0.14965  0.68246  0.49328  1.0000
  C   C687      1.0  0.22689  0.77091  0.97582  1.0000
  H   H792      1.0  0.18148  0.95366  0.62161  1.0000
  C   C688      1.0  0.21437  0.65296  0.49214  1.0000
  S   S186      1.0  0.15266  0.66547  0.83459  1.0000
  H   H793      1.0  0.21837  0.70490  0.94348  1.0000
  H   H794      1.0  0.22067  0.90769  0.58717  1.0000
  C   C689      1.0  0.10793  0.83060  0.49405  1.0000
  S   S187      1.0  0.21387  0.93996  0.77622  1.0000
  H   H795      1.0  0.23818  0.93664  0.55762  1.0000
  H   H796      1.0  0.17259  0.75903  0.48600  1.0000
  C   C690      1.0  0.21139  0.71530  0.89791  1.0000
  C   C691      1.0  0.11139  0.69485  0.95976  1.0000
  H   H797      1.0  0.23727  0.66243  0.49147  1.0000
  H   H798      1.0  0.20831  0.76897  0.92971  1.0000
  S   S188      1.0  0.22334  0.88221  0.51528  1.0000
  S   S189      1.0  0.20079  0.93607  0.56273  1.0000
  H   H799      1.0  0.19925  0.95977  0.80262  1.0000
  H   H800      1.0  0.07889  0.98078  0.74122  1.0000
  H   H801      1.0  0.10039  0.69963  0.95333  1.0000
  C   C692      1.0  0.15459  0.94813  0.70320  1.0000
  N   N44       1.0  0.12530  0.79704  0.62499  1.0000
  C   C693      1.0  0.11487  0.80317  0.61114  1.0000
  C   C694      1.0  0.12607  0.77819  0.63129  1.0000
  C   C695      1.0  0.11564  0.80603  0.63945  1.0000
  C   C696      1.0  0.14341  0.80006  0.61828  1.0000
  C   C697      1.0  0.15340  0.79507  0.60264  1.0000
  C   C698      1.0  0.15204  0.80696  0.62746  1.0000
  C   C699      1.0  0.17051  0.79774  0.59606  1.0000
  C   C700      1.0  0.16925  0.80942  0.62085  1.0000
  C   C701      1.0  0.17838  0.80502  0.60509  1.0000
  H   H802      1.0  0.10086  0.80231  0.61619  1.0000
  H   H803      1.0  0.11511  0.81693  0.60494  1.0000
  H   H804      1.0  0.11949  0.79538  0.60085  1.0000
  H   H805      1.0  0.13220  0.77088  0.62064  1.0000
  H   H806      1.0  0.11277  0.77523  0.63669  1.0000
  H   H807      1.0  0.13396  0.77291  0.64157  1.0000
  H   H808      1.0  0.11548  0.82022  0.63559  1.0000
  H   H809      1.0  0.10172  0.80460  0.64350  1.0000
  H   H810      1.0  0.12137  0.80071  0.65125  1.0000
  H   H811      1.0  0.14809  0.78898  0.59538  1.0000
  H   H812      1.0  0.14569  0.81100  0.63957  1.0000
  H   H813      1.0  0.17771  0.79408  0.58391  1.0000
  H   H814      1.0  0.17539  0.81509  0.62790  1.0000
  H   H815      1.0  0.19161  0.80718  0.59988  1.0000
  N   N45       1.0  0.17143  0.70869  0.55729  1.0000
  C   C702      1.0  0.15464  0.72105  0.56137  1.0000
  C   C703      1.0  0.16813  0.69081  0.56275  1.0000
  C   C704      1.0  0.18330  0.71025  0.56789  1.0000
  C   C705      1.0  0.17869  0.71214  0.53841  1.0000
  C   C706      1.0  0.19612  0.71470  0.53137  1.0000
  C   C707      1.0  0.16843  0.71245  0.52643  1.0000
  C   C708      1.0  0.20265  0.71757  0.51349  1.0000
  C   C709      1.0  0.17508  0.71539  0.50857  1.0000
  S   S190      1.0  0.23225  0.69794  0.61164  1.0000
  H   H816      1.0  0.15631  0.73473  0.55652  1.0000
  H   H817      1.0  0.14415  0.71921  0.55576  1.0000
  H   H818      1.0  0.14934  0.71943  0.57558  1.0000
  H   H819      1.0  0.16313  0.68736  0.57695  1.0000
  H   H820      1.0  0.18032  0.68117  0.55937  1.0000
  H   H821      1.0  0.15823  0.68895  0.55641  1.0000
  H   H822      1.0  0.18654  0.72338  0.56423  1.0000
  H   H823      1.0  0.17728  0.70818  0.58195  1.0000
  H   H824      1.0  0.19568  0.70032  0.56656  1.0000
  H   H825      1.0  0.20518  0.71415  0.53935  1.0000
  H   H826      1.0  0.15528  0.70998  0.53084  1.0000
  H   H827      1.0  0.23452  0.72767  0.97594  1.0000
  H   H828      1.0  0.24365  0.81472  0.82604  1.0000
  Fe  Fe98      1.0  0.21607  0.66923  0.97036  1.0000
  H   H829      1.0  0.18756  0.96771  0.76303  1.0000
  C   C710      1.0  0.14506  0.89641  0.53982  1.0000
  H   H830      1.0  0.08030  0.66295  0.78276  1.0000
  H   H831      1.0  0.16250  0.87023  0.56123  1.0000
  C   C711      1.0  0.15936  0.93619  0.88611  1.0000
  Fe  Fe99      1.0  0.09271  0.75974  0.97435  1.0000
  H   H832      1.0  0.16226  0.75339  0.51851  1.0000
  H   H833      1.0  0.23272  0.78164  0.97519  1.0000
  H   H834      1.0  0.11685  0.88309  0.55319  1.0000
  C   C712      1.0  0.22270  0.86787  0.85445  1.0000
  C   C713      1.0  0.12006  0.89012  0.56174  1.0000
  H   H835      1.0  0.14539  0.69294  0.50087  1.0000
  H   H836      1.0  0.23067  0.84548  0.92401  1.0000
  H   H837      1.0  0.17850  0.91343  0.92845  1.0000
  C   C714      1.0  0.20024  0.92101  0.89814  1.0000
  H   H838      1.0  0.23868  0.88792  0.86853  1.0000
  H   H839      1.0  0.13198  0.88275  0.59413  1.0000
  H   H840      1.0  0.13830  0.91004  0.53581  1.0000
  H   H841      1.0  0.19203  0.88978  0.91499  1.0000
  H   H842      1.0  0.23362  0.87507  0.92355  1.0000
  H   H843      1.0  0.09144  0.67696  0.95058  1.0000
  H   H844      1.0  0.20617  0.72895  0.89770  1.0000
  C   C715      1.0  0.22443  0.91918  0.80542  1.0000
  C   C716      1.0  0.23448  0.67911  0.55638  1.0000
  H   H845      1.0  0.19641  0.91102  0.86713  1.0000
  C   C717      1.0  0.21230  0.96150  0.59430  1.0000
  H   H846      1.0  0.17432  0.73911  0.91788  1.0000
  H   H847      1.0  0.18662  0.91488  0.71560  1.0000
  H   H848      1.0  0.14677  0.86364  0.55322  1.0000
  H   H849      1.0  0.18960  0.95475  0.59030  1.0000
  C   C718      1.0  0.17538  0.92378  0.88536  1.0000
  H   H850      1.0  0.14902  0.79995  0.50157  1.0000
  C   C719      1.0  0.16320  0.79584  0.50202  1.0000
  H   H851      1.0  0.17002  0.80387  0.49037  1.0000
  H   H852      1.0  0.15867  0.97163  0.56782  1.0000
  H   H853      1.0  0.14711  0.66226  0.96527  1.0000
  C   C720      1.0  0.21276  0.94483  0.57288  1.0000
  H   H854      1.0  0.18244  0.96226  0.70061  1.0000
  C   C721      1.0  0.18560  0.87890  0.59036  1.0000
  S   S191      1.0  0.16934  0.73584  0.85538  1.0000
  C   C722      1.0  0.23185  0.66751  0.63500  1.0000
  H   H855      1.0  0.15127  0.75856  0.94705  1.0000
  H   H856      1.0  0.14247  0.97606  0.67219  1.0000
  H   H857      1.0  0.17605  0.79963  0.96355  1.0000
  C   C723      1.0  0.20888  0.81444  0.93264  1.0000
  H   H858      1.0  0.15300  0.77559  0.48594  1.0000
  C   C724      1.0  0.10124  0.66485  0.95349  1.0000
  H   H859      1.0  0.21013  0.77589  0.82754  1.0000
  C   C725      1.0  0.17707  0.93728  0.75677  1.0000
  H   H860      1.0  0.22402  0.94778  0.91228  1.0000
  C   C726      1.0  0.21192  0.97952  0.73577  1.0000
  H   H861      1.0  0.22557  0.75181  0.81160  1.0000
  C   C727      1.0  0.22432  0.66708  0.56626  1.0000
  H   H862      1.0  0.23593  0.90485  0.82733  1.0000
  H   H863      1.0  0.05417  0.80811  0.96017  1.0000
  H   H864      1.0  0.17869  0.77887  0.94157  1.0000
  H   H865      1.0  0.07849  0.82337  0.48380  1.0000
  C   C728      1.0  0.23832  0.67534  0.61796  1.0000
  C   C729      1.0  0.22645  0.74548  0.93444  1.0000
  S   S192      1.0  0.22267  0.90375  0.75071  1.0000
  H   H866      1.0  0.15209  0.94039  0.89792  1.0000
  H   H867      1.0  0.15946  0.89578  0.53636  1.0000
  S   S193      1.0  0.18937  0.68486  0.96798  1.0000
  H   H868      1.0  0.04942  0.95573  0.77616  1.0000
  S   S194      1.0  0.23203  0.89318  0.54831  1.0000
  C   C730      1.0  0.18708  0.86081  0.61854  1.0000
  C   C731      1.0  0.18213  0.86420  0.60263  1.0000
  H   H869      1.0  0.22206  0.88213  0.63214  1.0000
  C   C732      1.0  0.19071  0.73569  0.85700  1.0000
  N   N46       1.0  0.11952  0.66765  0.94766  1.0000
  H   H870      1.0  0.21119  0.97661  0.77059  1.0000
  C   C733      1.0  0.22796  0.67560  0.53016  1.0000
  H   H871      1.0  0.07215  0.91730  0.73867  1.0000
  S   S195      1.0  0.19222  0.90265  0.54205  1.0000
  H   H872      1.0  0.06496  0.93673  0.75878  1.0000
  H   H873      1.0  0.20499  0.96856  0.60435  1.0000
  H   H874      1.0  0.23456  0.83011  0.54374  1.0000
  C   C734      1.0  0.17230  0.92015  0.91711  1.0000
  H   H875      1.0  0.09829  0.65967  0.96770  1.0000
  H   H876      1.0  0.23703  0.75214  0.93276  1.0000
  S   S196      1.0  0.22581  0.97104  0.64765  1.0000
  C   C735      1.0  0.15137  0.95364  0.73725  1.0000
  H   H877      1.0  0.20973  0.91727  0.88653  1.0000
  C   C736      1.0  0.14877  0.95545  0.75442  1.0000
  H   H878      1.0  0.16168  0.93252  0.57019  1.0000
  S   S197      1.0  0.22017  0.92372  0.51476  1.0000
  C   C737      1.0  0.22187  0.72350  0.85214  1.0000
  H   H879      1.0  0.16511  0.79956  0.51360  1.0000
  H   H880      1.0  0.19728  0.94196  0.70510  1.0000
  C   C738      1.0  0.22559  0.67977  0.89718  1.0000
  N   N47       1.0  0.13914  0.88951  0.55857  1.0000
  C   C739      1.0  0.17669  0.92758  0.85415  1.0000
  H   H881      1.0  0.15125  0.96250  0.70156  1.0000
  H   H882      1.0  0.23287  0.88957  0.59977  1.0000
  C   C740      1.0  0.13843  0.89355  0.58840  1.0000
  H   H883      1.0  0.14093  0.96036  0.73045  1.0000
  N   N48       1.0  0.18341  0.91553  0.90070  1.0000
  H   H884      1.0  0.13673  0.96321  0.76027  1.0000
  Fe  Fe100     1.0  0.20267  0.90641  0.51340  1.0000
  H   H885      1.0  0.11263  0.90372  0.55947  1.0000
  H   H886      1.0  0.19733  0.91216  0.66442  1.0000
  N   N49       1.0  0.20749  0.89994  0.61371  1.0000
  C   C741      1.0  0.21257  0.89472  0.63090  1.0000
  C   C742      1.0  0.22355  0.90217  0.60033  1.0000
  C   C743      1.0  0.19524  0.91695  0.61327  1.0000
  C   C744      1.0  0.19913  0.88734  0.61006  1.0000
  C   C745      1.0  0.19571  0.87200  0.62219  1.0000
  C   C746      1.0  0.19385  0.89037  0.59399  1.0000
  H   H887      1.0  0.19964  0.67994  0.89333  1.0000
  S   S198      1.0  0.17603  0.66384  0.53107  1.0000
  H   H888      1.0  0.22757  0.78137  0.78100  1.0000
  H   H889      1.0  0.21357  0.76204  0.86482  1.0000
  H   H890      1.0  0.07440  0.84616  0.49607  1.0000
  N   N50       1.0  0.23283  0.77669  0.80667  1.0000
  C   C747      1.0  0.18329  0.67714  0.95265  1.0000
  S   S199      1.0  0.09376  0.78600  0.97816  1.0000
  H   H891      1.0  0.03361  0.81726  0.50028  1.0000
  C   C748      1.0  0.22073  0.89301  0.70340  1.0000
  H   H892      1.0  0.11219  0.73984  0.93834  1.0000
  Fe  Fe101     1.0  0.24070  0.91235  0.72593  1.0000
  H   H893      1.0  0.07003  0.92836  0.70811  1.0000
  H   H894      1.0  0.19119  0.92222  0.60059  1.0000
  H   H895      1.0  0.14424  0.77133  0.51619  1.0000
  C   C749      1.0  0.22118  0.93004  0.83136  1.0000
  C   C750      1.0  0.22279  0.78039  0.82375  1.0000
  H   H896      1.0  0.01383  0.81465  0.97020  1.0000
  C   C751      1.0  0.19475  0.76090  0.51782  1.0000
  C   C752      1.0  0.18389  0.91983  0.86887  1.0000
  H   H897      1.0  0.02903  0.82716  0.97100  1.0000
  Fe  Fe102     1.0  0.23292  0.92101  0.76139  1.0000
  H   H898      1.0  0.23733  0.92120  0.93081  1.0000
  H   H899      1.0  0.10514  0.71769  0.97075  1.0000
  C   C753      1.0  0.20964  0.74467  0.97738  1.0000
  C   C754      1.0  0.21569  0.65956  0.55812  1.0000
  C   C755      1.0  0.15824  0.76768  0.51744  1.0000
  H   H900      1.0  0.15441  0.91905  0.55022  1.0000
  S   S200      1.0  0.12958  0.68776  0.54305  1.0000
  S   S201      1.0  0.22331  0.89930  0.96172  1.0000
  H   H901      1.0  0.11477  0.88390  0.57523  1.0000
  C   C756      1.0  0.23744  0.75764  0.80792  1.0000
  C   C757      1.0  0.14829  0.87115  0.56227  1.0000
  H   H902      1.0  0.20218  0.71128  0.84913  1.0000
  C   C758      1.0  0.18482  0.94818  0.70063  1.0000
  C   C759      1.0  0.18879  0.65965  0.95161  1.0000
  C   C760      1.0  0.23032  0.96066  0.58894  1.0000
  H   H903      1.0  0.15413  0.92192  0.60184  1.0000
  H   H904      1.0  0.18324  0.76042  0.86471  1.0000
  H   H905      1.0  0.15710  0.94534  0.68998  1.0000
  H   H906      1.0  0.21330  0.80691  0.53367  1.0000
  C   C761      1.0  0.14273  0.89908  0.57015  1.0000
  H   H907      1.0  0.15550  0.94574  0.84390  1.0000
  C   C762      1.0  0.06615  0.93725  0.71699  1.0000
  H   H908      1.0  0.18701  0.93086  0.76440  1.0000
  H   H909      1.0  0.20653  0.82692  0.95369  1.0000
  H   H910      1.0  0.14301  0.94260  0.71073  1.0000
  S   S202      1.0  0.08299  0.70203  0.48716  1.0000
  C   C763      1.0  0.22959  0.72746  0.93824  1.0000
  H   H911      1.0  0.19223  0.92785  0.73432  1.0000
  C   C764      1.0  0.10758  0.70866  0.52218  1.0000
  H   H912      1.0  0.16901  0.70200  0.94192  1.0000
  C   C765      1.0  0.24385  0.81819  0.54656  1.0000
  C   C766      1.0  0.09711  0.71200  0.50983  1.0000
  C   C767      1.0  0.20714  0.94772  0.80801  1.0000
  C   C768      1.0  0.19401  0.74999  0.86143  1.0000
  H   H913      1.0  0.18306  0.91608  0.62323  1.0000
  H   H914      1.0  0.18704  0.94692  0.68689  1.0000
  H   H915      1.0  0.11924  0.66896  0.92095  1.0000
  S   S203      1.0  0.21322  0.80009  0.90449  1.0000
  C   C769      1.0  0.15085  0.91370  0.56387  1.0000
  C   C770      1.0  0.16692  0.94327  0.72942  1.0000
  H   H916      1.0  0.17572  0.97360  0.82963  1.0000
  C   C771      1.0  0.21357  0.91651  0.67973  1.0000
  S   S204      1.0  0.17300  0.68360  0.86235  1.0000
  N   N51       1.0  0.16990  0.94042  0.71156  1.0000
  C   C772      1.0  0.10635  0.67083  0.82796  1.0000
  H   H917      1.0  0.16353  0.91507  0.72072  1.0000
  C   C773      1.0  0.16461  0.75058  0.94775  1.0000
  C   C774      1.0  0.22516  0.73792  0.85633  1.0000
  H   H918      1.0  0.22265  0.67528  0.64367  1.0000
  C   C775      1.0  0.20109  0.70485  0.89582  1.0000
  H   H919      1.0  0.21451  0.92941  0.67230  1.0000
  H   H920      1.0  0.13928  0.89702  0.61357  1.0000
  H   H921      1.0  0.19587  0.82061  0.93037  1.0000
  H   H922      1.0  0.23784  0.89603  0.89565  1.0000
  C   C776      1.0  0.21779  0.66353  0.54007  1.0000
  Fe  Fe103     1.0  0.21163  0.87570  0.97558  1.0000
  H   H923      1.0  0.22964  0.90901  0.79813  1.0000
  C   C777      1.0  0.21981  0.85739  0.48443  1.0000
  C   C778      1.0  0.22179  0.90974  0.69396  1.0000
  H   H924      1.0  0.17503  0.91891  0.69869  1.0000
  H   H925      1.0  0.16259  0.69144  0.91891  1.0000
  C   C779      1.0  0.17397  0.92155  0.71171  1.0000
  H   H926      1.0  0.18685  0.91736  0.96325  1.0000
  H   H927      1.0  0.19189  0.84414  0.48852  1.0000
  H   H928      1.0  0.21644  0.79832  0.79307  1.0000
  H   H929      1.0  0.14060  0.67323  0.49883  1.0000
  C   C780      1.0  0.16149  0.94712  0.76421  1.0000
  C   C781      1.0  0.17988  0.93551  0.73959  1.0000
  H   H930      1.0  0.15930  0.94841  0.77758  1.0000
  C   C782      1.0  0.16671  0.98263  0.82216  1.0000
  H   H931      1.0  0.18382  0.75715  0.90502  1.0000
  C   C783      1.0  0.24188  0.83411  0.80263  1.0000
  C   C784      1.0  0.21986  0.80316  0.92219  1.0000
  C   C785      1.0  0.15085  0.91572  0.59309  1.0000
  H   H932      1.0  0.23268  0.71335  0.84828  1.0000
  H   H933      1.0  0.08572  0.86063  0.49948  1.0000
  C   C786      1.0  0.20464  0.72227  0.85268  1.0000
  C   C787      1.0  0.23604  0.68363  0.53838  1.0000
  C   C788      1.0  0.15500  0.92171  0.57525  1.0000
  H   H934      1.0  0.17039  0.98372  0.75446  1.0000
  C   C789      1.0  0.21492  0.81810  0.94578  1.0000
  C   C790      1.0  0.21116  0.75096  0.86142  1.0000
  C   C791      1.0  0.21600  0.71893  0.94041  1.0000
  H   H935      1.0  0.16199  0.78238  0.92959  1.0000
  H   H936      1.0  0.19893  0.86866  0.63488  1.0000
  C   C792      1.0  0.19930  0.72835  0.93851  1.0000
  C   C793      1.0  0.15740  0.97653  0.81324  1.0000
  C   C794      1.0  0.20975  0.75506  0.93268  1.0000
  H   H937      1.0  0.08781  0.65631  0.84526  1.0000
  Fe  Fe104     1.0  0.15918  0.67731  0.88999  1.0000
  H   H938      1.0  0.21993  0.79452  0.82370  1.0000
  H   H939      1.0  0.16349  0.73697  0.94905  1.0000
  N   N52       1.0  0.16955  0.77699  0.50252  1.0000
  C   C795      1.0  0.17406  0.75307  0.91681  1.0000
  C   C796      1.0  0.05791  0.96062  0.73992  1.0000
  H   H940      1.0  0.07184  0.95873  0.76826  1.0000
  C   C797      1.0  0.18835  0.77227  0.50338  1.0000
  Fe  Fe105     1.0  0.24277  0.71145  0.58469  1.0000
  H   H941      1.0  0.20471  0.95527  0.83202  1.0000
  H   H942      1.0  0.23041  0.91131  0.60288  1.0000
  C   C798      1.0  0.23192  0.81065  0.94838  1.0000
  H   H943      1.0  0.09143  0.72516  0.50465  1.0000
  C   C799      1.0  0.19560  0.74674  0.93467  1.0000
  S   S205      1.0  0.13563  0.67209  0.88399  1.0000
  S   S206      1.0  0.23691  0.66912  0.94633  1.0000
  H   H944      1.0  0.18622  0.75526  0.52919  1.0000
  C   C800      1.0  0.16096  0.93960  0.85536  1.0000
  C   C801      1.0  0.13735  0.67398  0.96632  1.0000
  H   H945      1.0  0.23042  0.83082  0.80066  1.0000
  H   H946      1.0  0.16775  0.75169  0.95994  1.0000
  C   C802      1.0  0.16356  0.97919  0.57409  1.0000
  H   H947      1.0  0.20119  0.92681  0.61576  1.0000
  H   H948      1.0  0.14023  0.95353  0.87205  1.0000
  C   C803      1.0  0.17568  0.77548  0.93035  1.0000
  C   C804      1.0  0.15234  0.94393  0.87127  1.0000
  N   N53       1.0  0.23294  0.66147  0.89566  1.0000
  C   C805      1.0  0.22914  0.66023  0.48382  1.0000
  C   C806      1.0  0.20806  0.68738  0.89538  1.0000
  H   H949      1.0  0.05524  0.97511  0.77713  1.0000
  H   H950      1.0  0.18778  0.71042  0.89404  1.0000
  H   H951      1.0  0.24053  0.66842  0.86796  1.0000
  S   S207      1.0  0.18078  0.90858  0.49948  1.0000
  H   H952      1.0  0.22957  0.96764  0.71526  1.0000
  H   H953      1.0  0.19212  0.97051  0.63683  1.0000
  H   H954      1.0  0.18936  0.72102  0.93999  1.0000
  H   H955      1.0  0.10757  0.67711  0.83776  1.0000
  C   C807      1.0  0.21589  0.82325  0.50823  1.0000
  C   C808      1.0  0.23090  0.94347  0.56787  1.0000
  C   C809      1.0  0.22115  0.80884  0.52065  1.0000
  H   H956      1.0  0.24055  0.78579  0.52612  1.0000
  H   H957      1.0  0.14239  0.88877  0.53151  1.0000
  S   S208      1.0  0.23285  0.92261  0.70003  1.0000
  H   H958      1.0  0.17462  0.89182  0.90401  1.0000
  S   S209      1.0  0.24070  0.85729  0.77183  1.0000
  H   H959      1.0  0.22399  0.88166  0.85110  1.0000
  H   H960      1.0  0.04123  0.79456  0.95705  1.0000
  H   H961      1.0  0.20296  0.73449  0.97782  1.0000
  C   C810      1.0  0.21263  0.75669  0.51810  1.0000
  H   H962      1.0  0.14586  0.97343  0.59848  1.0000
  H   H963      1.0  0.12553  0.68264  0.80842  1.0000
  S   S210      1.0  0.23982  0.81567  0.96432  1.0000
  Fe  Fe106     1.0  0.20033  0.97345  0.88592  1.0000
  C   C811      1.0  0.11647  0.67395  0.81134  1.0000
  S   S211      1.0  0.12098  0.74854  0.97484  1.0000
  H   H964      1.0  0.23003  0.77364  0.83428  1.0000
  H   H965      1.0  0.12397  0.66828  0.78629  1.0000
  C   C812      1.0  0.04765  0.79694  0.96661  1.0000
  C   C813      1.0  0.20888  0.77468  0.97639  1.0000
  C   C814      1.0  0.10429  0.65339  0.80260  1.0000
  C   C815      1.0  0.23690  0.75385  0.97598  1.0000
  C   C816      1.0  0.23383  0.87139  0.91155  1.0000
  C   C817      1.0  0.06058  0.95490  0.71101  1.0000
  C   C818      1.0  0.05634  0.96643  0.72230  1.0000
  H   H966      1.0  0.19742  0.71992  0.48831  1.0000
  S   S212      1.0  0.17174  0.65727  0.91000  1.0000
  H   H967      1.0  0.22353  0.80571  0.56378  1.0000
  H   H968      1.0  0.22285  0.66394  0.58021  1.0000
  N   N54       1.0  0.10079  0.84495  0.48083  1.0000
  C   C819      1.0  0.23652  0.79498  0.92541  1.0000
  H   H969      1.0  0.21355  0.96742  0.74504  1.0000
  C   C820      1.0  0.24126  0.81365  0.48709  1.0000
  C   C821      1.0  0.12204  0.67651  0.92924  1.0000
  H   H970      1.0  0.21157  0.65730  0.53372  1.0000
  H   H971      1.0  0.05987  0.95965  0.69747  1.0000
  C   C822      1.0  0.14827  0.80389  0.97368  1.0000
  C   C823      1.0  0.18428  0.89974  0.48078  1.0000
  C   C824      1.0  0.23671  0.87833  0.88037  1.0000
  Fe  Fe107     1.0  0.22120  0.83715  0.97595  1.0000
  C   C825      1.0  0.15632  0.98021  0.59133  1.0000
  C   C826      1.0  0.20092  0.77933  0.48952  1.0000
  H   H972      1.0  0.11324  0.68941  0.92725  1.0000
  C   C827      1.0  0.06331  0.94246  0.74568  1.0000
  C   C828      1.0  0.16711  0.77290  0.48660  1.0000
  H   H973      1.0  0.23696  0.96801  0.92390  1.0000
  H   H974      1.0  0.05209  0.97998  0.71701  1.0000
  H   H975      1.0  0.11508  0.86212  0.48525  1.0000
  C   C829      1.0  0.22861  0.70829  0.89975  1.0000
  C   C830      1.0  0.17968  0.98098  0.76333  1.0000
  H   H976      1.0  0.23663  0.71659  0.90108  1.0000
  H   H977      1.0  0.22319  0.86420  0.84199  1.0000
  H   H978      1.0  0.11315  0.97292  0.68788  1.0000
  H   H979      1.0  0.22186  0.83581  0.87347  1.0000
  C   C831      1.0  0.22123  0.97949  0.71879  1.0000
  C   C832      1.0  0.23473  0.83823  0.86538  1.0000
  S   S213      1.0  0.23783  0.78956  0.85946  1.0000
  H   H980      1.0  0.24440  0.95037  0.79379  1.0000
  H   H981      1.0  0.18009  0.82558  0.97171  1.0000
  N   N55       1.0  0.23657  0.85638  0.86344  1.0000
  C   C833      1.0  0.14001  0.68473  0.97600  1.0000
  H   H982      1.0  0.02675  0.97202  0.75909  1.0000
  C   C834      1.0  0.23281  0.84966  0.89638  1.0000
  H   H983      1.0  0.21957  0.66235  0.87544  1.0000
  S   S214      1.0  0.04961  0.78923  0.48366  1.0000
  H   H984      1.0  0.17186  0.98033  0.77672  1.0000
  C   C835      1.0  0.23523  0.86135  0.88011  1.0000
  C   C836      1.0  0.23303  0.65947  0.87803  1.0000
  C   C837      1.0  0.12837  0.70033  0.97772  1.0000
  H   H985      1.0  0.24258  0.72009  0.93947  1.0000
  C   C838      1.0  0.18465  0.65357  0.93883  1.0000
  C   C839      1.0  0.02229  0.81634  0.97833  1.0000
  C   C840      1.0  0.23567  0.69078  0.89950  1.0000
  S   S215      1.0  0.22164  0.97964  0.83721  1.0000
  H   H986      1.0  0.23586  0.83487  0.85264  1.0000
  C   C841      1.0  0.11410  0.70541  0.96958  1.0000
  H   H987      1.0  0.18627  0.76463  0.97753  1.0000
  C   C842      1.0  0.23215  0.85471  0.91179  1.0000
  H   H988      1.0  0.19716  0.65540  0.64306  1.0000
  C   C843      1.0  0.20024  0.76159  0.97721  1.0000
  C   C844      1.0  0.23613  0.88317  0.89586  1.0000
  C   C845      1.0  0.22774  0.74084  0.97655  1.0000
  S   S216      1.0  0.24141  0.97206  0.59726  1.0000
  H   H989      1.0  0.24482  0.78572  0.91788  1.0000
  H   H990      1.0  0.12597  0.70842  0.48008  1.0000
  H   H991      1.0  0.07772  0.86509  0.47967  1.0000
  H   H992      1.0  0.24354  0.77771  0.57099  1.0000
  H   H993      1.0  0.22136  0.65123  0.92193  1.0000
  H   H994      1.0  0.14525  0.65133  0.94324  1.0000
  H   H995      1.0  0.49357  0.03588  0.23467  1.0000
  Fe  Fe108     1.0  0.41221  0.25341  0.71931  1.0000
  S   S217      1.0  0.40940  0.26907  0.69290  1.0000
  Fe  Fe109     1.0  0.37987  0.23913  0.72442  1.0000
  S   S218      1.0  0.37339  0.25409  0.69901  1.0000
  S   S219      1.0  0.36497  0.22058  0.74375  1.0000
  Fe  Fe110     1.0  0.40213  0.24584  0.68891  1.0000
  S   S220      1.0  0.40852  0.23803  0.66325  1.0000
  Fe  Fe111     1.0  0.38108  0.27621  0.70514  1.0000
  S   S221      1.0  0.40815  0.22912  0.71402  1.0000
  S   S222      1.0  0.38428  0.26204  0.73186  1.0000
  Fe  Fe112     1.0  0.37461  0.21336  0.83238  1.0000
  S   S223      1.0  0.36896  0.20970  0.86120  1.0000
  S   S224      1.0  0.36272  0.23760  0.81570  1.0000
  Fe  Fe113     1.0  0.40095  0.17937  0.83258  1.0000
  S   S225      1.0  0.39794  0.17317  0.86147  1.0000
  S   S226      1.0  0.42087  0.16201  0.81645  1.0000
  Fe  Fe114     1.0  0.36906  0.18197  0.86105  1.0000
  S   S227      1.0  0.34696  0.16794  0.87536  1.0000
  Fe  Fe115     1.0  0.39825  0.20142  0.85862  1.0000
  S   S228      1.0  0.41290  0.21777  0.86638  1.0000
  S   S229      1.0  0.37226  0.18660  0.83234  1.0000
  S   S230      1.0  0.40358  0.20664  0.82960  1.0000
  Fe  Fe116     1.0  0.28125  0.08556  0.83978  1.0000
  Fe  Fe117     1.0  0.31488  0.07819  0.81418  1.0000
  S   S231      1.0  0.31464  0.10610  0.80308  1.0000
  S   S232      1.0  0.33759  0.05992  0.80228  1.0000
  Fe  Fe118     1.0  0.30831  0.10910  0.83080  1.0000
  S   S233      1.0  0.33001  0.12231  0.83101  1.0000
  Fe  Fe119     1.0  0.28615  0.10882  0.80450  1.0000
  S   S234      1.0  0.30963  0.08057  0.84178  1.0000
  S   S235      1.0  0.28689  0.08045  0.81295  1.0000
  C   C846      1.0  0.39766  0.29784  0.64830  1.0000
  S   S236      1.0  0.25905  0.07384  0.85833  1.0000
  S   S237      1.0  0.47642  0.28761  0.88186  1.0000
  H   H996      1.0  0.41210  0.24855  0.83920  1.0000
  H   H997      1.0  0.39891  0.99292  0.74011  1.0000
  Fe  Fe120     1.0  0.43068  0.12413  0.70861  1.0000
  H   H998      1.0  0.25730  0.06179  0.81522  1.0000
  S   S238      1.0  0.47891  0.20072  0.90163  1.0000
  H   H999      1.0  0.37919  0.02016  0.68876  1.0000
  C   C847      1.0  0.38084  0.28526  0.84080  1.0000
  H   H1000     1.0  0.37286  0.28509  0.67317  1.0000
  C   C848      1.0  0.28156  0.08251  0.66932  1.0000
  S   S239      1.0  0.32775  0.02120  0.69839  1.0000
  Fe  Fe121     1.0  0.30916  0.01980  0.74693  1.0000
  S   S240      1.0  0.30664  0.04460  0.72739  1.0000
  S   S241      1.0  0.29659  0.02024  0.77453  1.0000
  Fe  Fe122     1.0  0.29993  0.02886  0.71189  1.0000
  S   S242      1.0  0.27657  0.03845  0.69931  1.0000
  Fe  Fe123     1.0  0.33478  0.03460  0.71614  1.0000
  S   S243      1.0  0.35361  0.05330  0.70520  1.0000
  H   H1001     1.0  0.28169  0.01870  0.87889  1.0000
  S   S244      1.0  0.33776  0.01060  0.73698  1.0000
  H   H1002     1.0  0.45209  0.19899  0.66707  1.0000
  H   H1003     1.0  0.30629  0.31506  0.75095  1.0000
  H   H1004     1.0  0.26997  0.02210  0.75493  1.0000
  C   C849      1.0  0.33743  0.30003  0.75882  1.0000
  H   H1005     1.0  0.41434  0.27053  0.83027  1.0000
  C   C850      1.0  0.48348  0.18855  0.74503  1.0000
  H   H1006     1.0  0.31096  0.15441  0.81505  1.0000
  C   C851      1.0  0.45986  0.30641  0.85519  1.0000
  H   H1007     1.0  0.49322  0.19797  0.81902  1.0000
  Fe  Fe124     1.0  0.41889  0.09330  0.73502  1.0000
  S   S245      1.0  0.40438  0.11925  0.72361  1.0000
  S   S246      1.0  0.40573  0.06985  0.74362  1.0000
  Fe  Fe125     1.0  0.41088  0.12862  0.74429  1.0000
  S   S247      1.0  0.39057  0.14716  0.75860  1.0000
  S   S248      1.0  0.42384  0.10253  0.75692  1.0000
  C   C852      1.0  0.41152  0.28417  0.64337  1.0000
  H   H1008     1.0  0.31215  0.19111  0.82527  1.0000
  C   C853      1.0  0.36788  0.05770  0.71628  1.0000
  C   C854      1.0  0.37730  0.07095  0.70815  1.0000
  C   C855      1.0  0.38859  0.07511  0.71652  1.0000
  C   C856      1.0  0.39075  0.06589  0.73307  1.0000
  C   C857      1.0  0.38122  0.05271  0.74127  1.0000
  C   C858      1.0  0.36984  0.04861  0.73294  1.0000
  H   H1009     1.0  0.37587  0.07807  0.69527  1.0000
  H   H1010     1.0  0.39589  0.08521  0.71000  1.0000
  H   H1011     1.0  0.38280  0.04548  0.75408  1.0000
  H   H1012     1.0  0.36266  0.03840  0.73940  1.0000
  C   C859      1.0  0.27164  0.02244  0.69133  1.0000
  C   C860      1.0  0.42325  0.08104  0.79869  1.0000
  H   H1013     1.0  0.37883  0.06869  0.79120  1.0000
  H   H1014     1.0  0.40061  0.26127  0.82241  1.0000
  C   C861      1.0  0.25378  0.01407  0.67598  1.0000
  C   C862      1.0  0.25750  0.02657  0.68292  1.0000
  H   H1015     1.0  0.46491  0.26286  0.86928  1.0000
  H   H1016     1.0  0.34954  0.08645  0.81436  1.0000
  C   C863      1.0  0.45120  0.30834  0.84157  1.0000
  H   H1017     1.0  0.44712  0.21084  0.84135  1.0000
  C   C864      1.0  0.27033  0.02007  0.88933  1.0000
  H   H1018     1.0  0.40370  0.15975  0.70217  1.0000
  H   H1019     1.0  0.38333  0.24203  0.85475  1.0000
  H   H1020     1.0  0.47261  0.29002  0.79681  1.0000
  C   C865      1.0  0.47116  0.26800  0.74049  1.0000
  H   H1021     1.0  0.40372  0.02781  0.68970  1.0000
  C   C866      1.0  0.46161  0.27547  0.86133  1.0000
  H   H1022     1.0  0.45876  0.28100  0.76121  1.0000
  C   C867      1.0  0.32777  0.04685  0.79533  1.0000
  C   C868      1.0  0.33339  0.04392  0.77845  1.0000
  C   C869      1.0  0.32370  0.03585  0.77199  1.0000
  C   C870      1.0  0.30876  0.03022  0.78259  1.0000
  C   C871      1.0  0.30336  0.03285  0.79958  1.0000
  C   C872      1.0  0.31282  0.04128  0.80591  1.0000
  H   H1023     1.0  0.34478  0.04850  0.77017  1.0000
  H   H1024     1.0  0.32766  0.03430  0.75873  1.0000
  H   H1025     1.0  0.29176  0.02860  0.80774  1.0000
  H   H1026     1.0  0.30856  0.04357  0.81897  1.0000
  H   H1027     1.0  0.29477  0.05263  0.66206  1.0000
  S   S249      1.0  0.43245  0.14042  0.68182  1.0000
  H   H1028     1.0  0.47557  0.25807  0.80983  1.0000
  C   C873      1.0  0.34233  0.15423  0.86401  1.0000
  C   C874      1.0  0.32593  0.14938  0.86844  1.0000
  C   C875      1.0  0.32195  0.13907  0.85890  1.0000
  C   C876      1.0  0.33442  0.13351  0.84495  1.0000
  C   C877      1.0  0.35089  0.13803  0.84089  1.0000
  C   C878      1.0  0.35483  0.14829  0.85032  1.0000
  H   H1029     1.0  0.31622  0.15383  0.87910  1.0000
  H   H1030     1.0  0.30919  0.13571  0.86216  1.0000
  H   H1031     1.0  0.36067  0.13377  0.83022  1.0000
  H   H1032     1.0  0.36767  0.15143  0.84712  1.0000
  C   C879      1.0  0.41227  0.15759  0.80064  1.0000
  C   C880      1.0  0.42131  0.14412  0.79203  1.0000
  C   C881      1.0  0.41469  0.14083  0.77906  1.0000
  C   C882      1.0  0.39898  0.15094  0.77480  1.0000
  C   C883      1.0  0.39009  0.16453  0.78323  1.0000
  C   C884      1.0  0.39682  0.16794  0.79601  1.0000
  H   H1033     1.0  0.43334  0.13611  0.79548  1.0000
  H   H1034     1.0  0.42174  0.13039  0.77251  1.0000
  H   H1035     1.0  0.37829  0.17274  0.77951  1.0000
  H   H1036     1.0  0.39032  0.17889  0.80183  1.0000
  C   C885      1.0  0.43119  0.21238  0.87633  1.0000
  C   C886      1.0  0.43764  0.19546  0.88437  1.0000
  C   C887      1.0  0.45223  0.19200  0.89220  1.0000
  C   C888      1.0  0.46054  0.20539  0.89185  1.0000
  C   C889      1.0  0.45419  0.22224  0.88359  1.0000
  C   C890      1.0  0.43956  0.22571  0.87594  1.0000
  H   H1037     1.0  0.43119  0.18513  0.88487  1.0000
  H   H1038     1.0  0.45692  0.17897  0.89878  1.0000
  H   H1039     1.0  0.46034  0.23267  0.88339  1.0000
  H   H1040     1.0  0.43463  0.23886  0.86977  1.0000
  H   H1041     1.0  0.34274  0.28504  0.71107  1.0000
  C   C891      1.0  0.36406  0.22535  0.76377  1.0000
  C   C892      1.0  0.35402  0.24097  0.76808  1.0000
  C   C893      1.0  0.35372  0.24487  0.78400  1.0000
  C   C894      1.0  0.36361  0.23322  0.79548  1.0000
  C   C895      1.0  0.37404  0.21789  0.79089  1.0000
  C   C896      1.0  0.37417  0.21389  0.77510  1.0000
  H   H1042     1.0  0.34641  0.24998  0.75917  1.0000
  H   H1043     1.0  0.34573  0.25680  0.78749  1.0000
  H   H1044     1.0  0.38213  0.20920  0.79947  1.0000
  H   H1045     1.0  0.38226  0.20209  0.77152  1.0000
  C   C897      1.0  0.43028  0.23745  0.65217  1.0000
  C   C898      1.0  0.44360  0.23667  0.66073  1.0000
  C   C899      1.0  0.46095  0.23601  0.65141  1.0000
  C   C900      1.0  0.46478  0.23676  0.63348  1.0000
  C   C901      1.0  0.45135  0.23791  0.62498  1.0000
  C   C902      1.0  0.43421  0.23795  0.63434  1.0000
  H   H1046     1.0  0.44059  0.23630  0.67452  1.0000
  H   H1047     1.0  0.47131  0.23525  0.65799  1.0000
  H   H1048     1.0  0.45427  0.23850  0.61114  1.0000
  H   H1049     1.0  0.42395  0.23855  0.62769  1.0000
  C   C903      1.0  0.26013  0.00738  0.89513  1.0000
  H   H1050     1.0  0.24794  0.13828  0.76041  1.0000
  H   H1051     1.0  0.27305  0.09855  0.63765  1.0000
  C   C904      1.0  0.27100  0.04318  0.84666  1.0000
  H   H1052     1.0  0.28055  0.01868  0.83852  1.0000
  H   H1053     1.0  0.28323  0.04751  0.84126  1.0000
  H   H1054     1.0  0.33378  0.29543  0.74866  1.0000
  H   H1055     1.0  0.44263  0.19776  0.78544  1.0000
  S   S250      1.0  0.27919  0.11460  0.83123  1.0000
  H   H1056     1.0  0.46534  0.11607  0.68208  1.0000
  H   H1057     1.0  0.46276  0.25501  0.79619  1.0000
  N   N56       1.0  0.43399  0.19894  0.76210  1.0000
  C   C905      1.0  0.43467  0.19141  0.78060  1.0000
  C   C906      1.0  0.42273  0.21657  0.76136  1.0000
  C   C907      1.0  0.42549  0.18819  0.75590  1.0000
  C   C908      1.0  0.45161  0.19941  0.75099  1.0000
  C   C909      1.0  0.45375  0.21038  0.73433  1.0000
  H   H1058     1.0  0.48601  0.25316  0.72126  1.0000
  C   C910      1.0  0.39963  0.25460  0.89339  1.0000
  H   H1059     1.0  0.44267  0.28509  0.68572  1.0000
  H   H1060     1.0  0.42004  0.30946  0.69533  1.0000
  H   H1061     1.0  0.42141  0.19278  0.78911  1.0000
  H   H1062     1.0  0.44010  0.17723  0.78282  1.0000
  H   H1063     1.0  0.41843  0.22196  0.74882  1.0000
  H   H1064     1.0  0.42959  0.22585  0.76347  1.0000
  H   H1065     1.0  0.41034  0.21671  0.77124  1.0000
  H   H1066     1.0  0.43328  0.17470  0.75641  1.0000
  H   H1067     1.0  0.41227  0.18727  0.76395  1.0000
  H   H1068     1.0  0.42376  0.19380  0.74238  1.0000
  H   H1069     1.0  0.44268  0.21879  0.72932  1.0000
  S   S251      1.0  0.44520  0.09734  0.71820  1.0000
  H   H1070     1.0  0.47819  0.21340  0.83070  1.0000
  C   C911      1.0  0.45396  0.14231  0.67149  1.0000
  H   H1071     1.0  0.35378  0.31492  0.64843  1.0000
  H   H1072     1.0  0.41154  0.11275  0.82207  1.0000
  N   N57       1.0  0.37400  0.09309  0.79942  1.0000
  H   H1073     1.0  0.30409  0.31051  0.77401  1.0000
  C   C912      1.0  0.48636  0.15117  0.71516  1.0000
  C   C913      1.0  0.24529  0.05893  0.81306  1.0000
  C   C914      1.0  0.44787  0.29378  0.83778  1.0000
  H   H1074     1.0  0.39315  0.20388  0.67639  1.0000
  N   N58       1.0  0.32643  0.09897  0.74750  1.0000
  C   C915      1.0  0.31920  0.08891  0.76448  1.0000
  C   C916      1.0  0.31223  0.10656  0.73755  1.0000
  C   C917      1.0  0.33968  0.08662  0.73784  1.0000
  C   C918      1.0  0.33359  0.11283  0.75043  1.0000
  C   C919      1.0  0.32225  0.12648  0.75821  1.0000
  C   C920      1.0  0.35183  0.11281  0.74661  1.0000
  C   C921      1.0  0.32870  0.13945  0.76159  1.0000
  C   C922      1.0  0.35810  0.12586  0.75010  1.0000
  C   C923      1.0  0.34659  0.13918  0.75748  1.0000
  H   H1075     1.0  0.30864  0.09716  0.77226  1.0000
  H   H1076     1.0  0.31368  0.07820  0.76309  1.0000
  H   H1077     1.0  0.32952  0.08303  0.77227  1.0000
  H   H1078     1.0  0.30069  0.11445  0.74474  1.0000
  H   H1079     1.0  0.30711  0.09634  0.73459  1.0000
  H   H1080     1.0  0.31697  0.11498  0.72504  1.0000
  H   H1081     1.0  0.35002  0.07928  0.74526  1.0000
  H   H1082     1.0  0.33382  0.07664  0.73538  1.0000
  H   H1083     1.0  0.34597  0.09335  0.72496  1.0000
  H   H1084     1.0  0.30828  0.12706  0.76207  1.0000
  H   H1085     1.0  0.36158  0.10283  0.74100  1.0000
  H   H1086     1.0  0.37201  0.12561  0.74724  1.0000
  N   N59       1.0  0.46604  0.19619  0.82362  1.0000
  H   H1087     1.0  0.46695  0.18847  0.69191  1.0000
  H   H1088     1.0  0.46063  0.27377  0.73345  1.0000
  C   C924      1.0  0.48090  0.19980  0.82885  1.0000
  C   C925      1.0  0.46296  0.20816  0.80717  1.0000
  H   H1089     1.0  0.46670  0.17895  0.76798  1.0000
  H   H1090     1.0  0.41068  0.28785  0.85115  1.0000
  C   C926      1.0  0.25794  0.06472  0.64471  1.0000
  C   C927      1.0  0.34744  0.31100  0.70156  1.0000
  H   H1091     1.0  0.45483  0.30886  0.74278  1.0000
  H   H1092     1.0  0.29285  0.00237  0.69940  1.0000
  C   C928      1.0  0.31857  0.30395  0.71077  1.0000
  H   H1093     1.0  0.27704  0.02584  0.63323  1.0000
  H   H1094     1.0  0.47688  0.17182  0.64409  1.0000
  H   H1095     1.0  0.42257  0.28673  0.87617  1.0000
  H   H1096     1.0  0.37474  0.98912  0.73153  1.0000
  H   H1097     1.0  0.48361  0.19106  0.84119  1.0000
  S   S252      1.0  0.25277  0.09160  0.73012  1.0000
  H   H1098     1.0  0.36727  0.00309  0.69681  1.0000
  C   C929      1.0  0.26924  0.09092  0.75592  1.0000
  C   C930      1.0  0.25701  0.05357  0.85575  1.0000
  N   N60       1.0  0.33012  0.18019  0.80441  1.0000
  C   C931      1.0  0.32369  0.18043  0.82314  1.0000
  C   C932      1.0  0.34494  0.16530  0.80240  1.0000
  C   C933      1.0  0.31594  0.17829  0.79685  1.0000
  C   C934      1.0  0.30744  0.16400  0.80397  1.0000
  C   C935      1.0  0.31051  0.19002  0.78210  1.0000
  C   C936      1.0  0.29425  0.16168  0.79693  1.0000
  C   C937      1.0  0.29725  0.18760  0.77518  1.0000
  C   C938      1.0  0.28912  0.17349  0.78260  1.0000
  H   H1099     1.0  0.31977  0.16817  0.83075  1.0000
  H   H1100     1.0  0.34101  0.15275  0.80884  1.0000
  H   H1101     1.0  0.35023  0.16471  0.78850  1.0000
  H   H1102     1.0  0.31627  0.20119  0.77567  1.0000
  H   H1103     1.0  0.28797  0.15064  0.80262  1.0000
  H   H1104     1.0  0.29320  0.19676  0.76401  1.0000
  H   H1105     1.0  0.27884  0.17162  0.77723  1.0000
  C   C939      1.0  0.26944  0.02685  0.84514  1.0000
  H   H1106     1.0  0.34732  0.19741  0.80251  1.0000
  C   C940      1.0  0.25378  0.02087  0.85240  1.0000
  H   H1107     1.0  0.45068  0.17633  0.72080  1.0000
  H   H1108     1.0  0.35932  0.28357  0.65943  1.0000
  H   H1109     1.0  0.34323  0.19656  0.78225  1.0000
  C   C941      1.0  0.46527  0.28993  0.86500  1.0000
  H   H1110     1.0  0.35581  0.16600  0.80822  1.0000
  H   H1111     1.0  0.33394  0.18219  0.82919  1.0000
  C   C942      1.0  0.28509  0.05285  0.65491  1.0000
  S   S253      1.0  0.43576  0.13607  0.72833  1.0000
  H   H1112     1.0  0.32657  0.20808  0.79724  1.0000
  H   H1113     1.0  0.39308  0.17283  0.72714  1.0000
  S   S254      1.0  0.43128  0.25549  0.73420  1.0000
  C   C943      1.0  0.45308  0.27736  0.84772  1.0000
  H   H1114     1.0  0.45750  0.28578  0.78693  1.0000
  C   C944      1.0  0.25377  0.12497  0.75934  1.0000
  C   C945      1.0  0.39983  0.00851  0.71368  1.0000
  S   S255      1.0  0.30004  0.00490  0.73256  1.0000
  C   C946      1.0  0.33702  0.19627  0.79617  1.0000
  C   C947      1.0  0.41756  0.02797  0.72550  1.0000
  C   C948      1.0  0.37544  0.01029  0.70043  1.0000
  C   C949      1.0  0.46784  0.12824  0.67385  1.0000
  H   H1115     1.0  0.48549  0.16494  0.71537  1.0000
  Fe  Fe126     1.0  0.32827  0.99812  0.72033  1.0000
  Fe  Fe127     1.0  0.44861  0.10920  0.73923  1.0000
  H   H1116     1.0  0.28712  0.99363  0.80684  1.0000
  C   C950      1.0  0.33686  0.29865  0.70804  1.0000
  C   C951      1.0  0.26598  0.11528  0.76950  1.0000
  H   H1117     1.0  0.31977  0.14966  0.76758  1.0000
  C   C952      1.0  0.40712  0.30754  0.75012  1.0000
  S   S256      1.0  0.25299  0.99990  0.85069  1.0000
  C   C953      1.0  0.25135  0.08044  0.67671  1.0000
  C   C954      1.0  0.42217  0.27543  0.74059  1.0000
  C   C955      1.0  0.47033  0.17799  0.82122  1.0000
  H   H1118     1.0  0.35298  0.11197  0.78925  1.0000
  C   C956      1.0  0.37295  0.28383  0.65987  1.0000
  C   C957      1.0  0.48464  0.15656  0.86905  1.0000
  H   H1119     1.0  0.28215  0.09017  0.77632  1.0000
  C   C958      1.0  0.47623  0.25551  0.79683  1.0000
  C   C959      1.0  0.45722  0.15795  0.66060  1.0000
  H   H1120     1.0  0.49109  0.12693  0.69754  1.0000
  C   C960      1.0  0.47140  0.14093  0.77544  1.0000
  C   C961      1.0  0.41454  0.03290  0.70869  1.0000
  H   H1121     1.0  0.43376  0.26908  0.76304  1.0000
  H   H1122     1.0  0.36127  0.09381  0.82608  1.0000
  H   H1123     1.0  0.44646  0.16876  0.65857  1.0000
  H   H1124     1.0  0.33406  0.29109  0.77142  1.0000
  C   C962      1.0  0.27331  0.09804  0.76810  1.0000
  C   C963      1.0  0.46700  0.18817  0.75584  1.0000
  H   H1125     1.0  0.35163  0.14920  0.76015  1.0000
  C   C964      1.0  0.42566  0.27894  0.75522  1.0000
  H   H1126     1.0  0.40812  0.28539  0.71977  1.0000
  C   C965      1.0  0.36293  0.08618  0.81598  1.0000
  H   H1127     1.0  0.36868  0.07249  0.82121  1.0000
  H   H1128     1.0  0.41859  0.04447  0.70034  1.0000
  C   C966      1.0  0.37921  0.29632  0.62938  1.0000
  C   C967      1.0  0.41183  0.01351  0.73653  1.0000
  S   S257      1.0  0.24526  0.00305  0.62553  1.0000
  H   H1129     1.0  0.24682  0.04886  0.91442  1.0000
  C   C968      1.0  0.41086  0.28785  0.73110  1.0000
  C   C969      1.0  0.26552  0.03495  0.89630  1.0000
  C   C970      1.0  0.45434  0.31601  0.70924  1.0000
  C   C971      1.0  0.41715  0.18773  0.69853  1.0000
  H   H1130     1.0  0.40738  0.00107  0.68157  1.0000
  H   H1131     1.0  0.38264  0.11226  0.81831  1.0000
  C   C972      1.0  0.41020  0.10379  0.81483  1.0000
  H   H1132     1.0  0.40424  0.17238  0.68074  1.0000
  H   H1133     1.0  0.38357  0.17116  0.69547  1.0000
  C   C973      1.0  0.39370  0.10359  0.81237  1.0000
  C   C974      1.0  0.41825  0.29510  0.75992  1.0000
  C   C975      1.0  0.39735  0.17202  0.69450  1.0000
  H   H1134     1.0  0.48840  0.19843  0.79187  1.0000
  H   H1135     1.0  0.36117  0.08422  0.78386  1.0000
  C   C976      1.0  0.37441  0.08283  0.78650  1.0000
  C   C977      1.0  0.39154  0.09250  0.80243  1.0000
  C   C978      1.0  0.48391  0.26479  0.76585  1.0000
  H   H1136     1.0  0.45351  0.13143  0.76597  1.0000
  C   C979      1.0  0.39249  0.25517  0.87922  1.0000
  H   H1137     1.0  0.24968  0.09154  0.80031  1.0000
  Fe  Fe128     1.0  0.49250  0.26081  0.88895  1.0000
  C   C980      1.0  0.40311  0.00384  0.73080  1.0000
  C   C981      1.0  0.36556  0.11125  0.79296  1.0000
  H   H1138     1.0  0.42147  0.19836  0.67062  1.0000
  H   H1139     1.0  0.36208  0.11936  0.80292  1.0000
  C   C982      1.0  0.45075  0.19769  0.83821  1.0000
  N   N61       1.0  0.39842  0.18723  0.70073  1.0000
  H   H1140     1.0  0.37465  0.20380  0.69351  1.0000
  C   C983      1.0  0.42497  0.09264  0.80786  1.0000
  C   C984      1.0  0.38903  0.20312  0.69061  1.0000
  H   H1141     1.0  0.37457  0.18729  0.72046  1.0000
  H   H1142     1.0  0.38310  0.08699  0.77389  1.0000
  S   S258      1.0  0.48696  0.24261  0.91465  1.0000
  C   C985      1.0  0.46288  0.29124  0.69466  1.0000
  C   C986      1.0  0.40680  0.08085  0.79601  1.0000
  H   H1143     1.0  0.37434  0.11750  0.78149  1.0000
  H   H1144     1.0  0.39712  0.24498  0.90514  1.0000
  C   C987      1.0  0.45322  0.18821  0.69381  1.0000
  C   C988      1.0  0.44478  0.23171  0.78997  1.0000
  C   C989      1.0  0.44481  0.19424  0.67983  1.0000
  H   H1145     1.0  0.42013  0.17494  0.72501  1.0000
  S   S259      1.0  0.47524  0.10563  0.74607  1.0000
  H   H1146     1.0  0.41614  0.26528  0.90322  1.0000
  H   H1147     1.0  0.46107  0.14928  0.78265  1.0000
  C   C990      1.0  0.42710  0.19392  0.68206  1.0000
  H   H1148     1.0  0.40649  0.07174  0.78851  1.0000
  C   C991      1.0  0.27532  0.03721  0.63862  1.0000
  H   H1149     1.0  0.43779  0.09300  0.80957  1.0000
  H   H1150     1.0  0.25888  0.02368  0.78360  1.0000
  C   C992      1.0  0.41403  0.27800  0.87707  1.0000
  C   C993      1.0  0.44403  0.18148  0.71002  1.0000
  C   C994      1.0  0.38894  0.18576  0.71910  1.0000
  S   S260      1.0  0.37028  0.30482  0.69859  1.0000
  C   C995      1.0  0.28756  0.03847  0.64742  1.0000
  H   H1151     1.0  0.27539  0.07775  0.75452  1.0000
  H   H1152     1.0  0.36697  0.01752  0.71041  1.0000
  C   C996      1.0  0.25708  0.10067  0.74572  1.0000
  C   C997      1.0  0.26057  0.05034  0.63721  1.0000
  H   H1153     1.0  0.36560  0.29795  0.62757  1.0000
  H   H1154     1.0  0.43480  0.07239  0.79326  1.0000
  H   H1155     1.0  0.39119  0.21497  0.69348  1.0000
  H   H1156     1.0  0.26131  0.10950  0.65514  1.0000
  C   C998      1.0  0.28181  0.00565  0.69310  1.0000
  C   C999      1.0  0.46704  0.13070  0.76615  1.0000
  N   N62       1.0  0.38973  0.26743  0.84772  1.0000
  H   H1157     1.0  0.38602  0.28325  0.62683  1.0000
  C   C1000     1.0  0.36714  0.31467  0.65012  1.0000
  C   C1001     1.0  0.40207  0.31042  0.65495  1.0000
  C   C1002     1.0  0.25062  0.03707  0.90929  1.0000
  C   C1003     1.0  0.47343  0.21853  0.77607  1.0000
  H   H1158     1.0  0.47140  0.16852  0.83359  1.0000
  H   H1159     1.0  0.37213  0.25668  0.83907  1.0000
  C   C1004     1.0  0.26383  0.99723  0.67792  1.0000
  C   C1005     1.0  0.40485  0.26173  0.83427  1.0000
  C   C1006     1.0  0.37711  0.25587  0.85091  1.0000
  H   H1160     1.0  0.46012  0.17512  0.81590  1.0000
  H   H1161     1.0  0.24965  0.03955  0.68139  1.0000
  C   C1007     1.0  0.48823  0.14547  0.65442  1.0000
  C   C1008     1.0  0.40708  0.27858  0.86279  1.0000
  H   H1162     1.0  0.36552  0.25921  0.86118  1.0000
  N   N63       1.0  0.26664  0.08152  0.66219  1.0000
  C   C1009     1.0  0.40288  0.99097  0.69268  1.0000
  H   H1163     1.0  0.39001  0.29439  0.83570  1.0000
  C   C1010     1.0  0.48492  0.12971  0.66499  1.0000
  H   H1164     1.0  0.37481  0.28562  0.82979  1.0000
  C   C1011     1.0  0.39613  0.26715  0.86337  1.0000
  H   H1165     1.0  0.37029  0.29053  0.85103  1.0000
  H   H1166     1.0  0.27310  0.04509  0.89126  1.0000
  C   C1012     1.0  0.42633  0.18097  0.71235  1.0000
  H   H1167     1.0  0.45581  0.23891  0.76281  1.0000
  N   N64       1.0  0.37954  0.29831  0.64694  1.0000
  H   H1168     1.0  0.29367  0.08293  0.65912  1.0000
  H   H1169     1.0  0.48370  0.14406  0.72880  1.0000
  H   H1170     1.0  0.42078  0.29776  0.77130  1.0000
  H   H1171     1.0  0.31037  0.29440  0.71587  1.0000
  N   N65       1.0  0.48315  0.26902  0.78275  1.0000
  H   H1172     1.0  0.43658  0.22231  0.81680  1.0000
  S   S261      1.0  0.27230  0.12529  0.78322  1.0000
  C   C1013     1.0  0.46510  0.31594  0.73446  1.0000
  H   H1173     1.0  0.48457  0.27966  0.91776  1.0000
  H   H1174     1.0  0.29874  0.02796  0.64897  1.0000
  H   H1175     1.0  0.42390  0.03570  0.73015  1.0000
  H   H1176     1.0  0.47593  0.31019  0.91744  1.0000
  C   C1014     1.0  0.40323  0.30377  0.73591  1.0000
  C   C1015     1.0  0.24906  0.11759  0.74772  1.0000
  C   C1016     1.0  0.44724  0.22076  0.80583  1.0000
  C   C1017     1.0  0.48539  0.25624  0.73365  1.0000
  H   H1177     1.0  0.47501  0.29647  0.77373  1.0000
  H   H1178     1.0  0.48307  0.17493  0.81230  1.0000
  H   H1179     1.0  0.45347  0.18849  0.85035  1.0000
  H   H1180     1.0  0.48448  0.24243  0.79603  1.0000
  C   C1018     1.0  0.47028  0.27212  0.75642  1.0000
  H   H1181     1.0  0.26396  0.99655  0.88860  1.0000
  H   H1182     1.0  0.43260  0.24106  0.78917  1.0000
  H   H1183     1.0  0.35192  0.29847  0.75541  1.0000
  C   C1019     1.0  0.27010  0.06645  0.65380  1.0000
  S   S262      1.0  0.43692  0.29546  0.82102  1.0000
  C   C1020     1.0  0.26261  0.09795  0.64958  1.0000
  C   C1021     1.0  0.48477  0.30913  0.92640  1.0000
  H   H1184     1.0  0.27876  0.09422  0.67507  1.0000
  C   C1022     1.0  0.47161  0.28604  0.78500  1.0000
  H   H1185     1.0  0.38554  0.30608  0.61918  1.0000
  C   C1023     1.0  0.42878  0.28363  0.64417  1.0000
  H   H1186     1.0  0.47548  0.15081  0.70917  1.0000
  H   H1187     1.0  0.39088  0.19589  0.72502  1.0000
  H   H1188     1.0  0.38467  0.24566  0.88086  1.0000
  C   C1024     1.0  0.48016  0.11907  0.75762  1.0000
  H   H1189     1.0  0.25095  0.04919  0.63054  1.0000
  C   C1025     1.0  0.49179  0.14447  0.85842  1.0000
  C   C1026     1.0  0.47440  0.15967  0.65238  1.0000
  C   C1027     1.0  0.44598  0.29386  0.69188  1.0000
  C   C1028     1.0  0.47031  0.21078  0.72368  1.0000
  H   H1190     1.0  0.45022  0.26606  0.84513  1.0000
  C   C1029     1.0  0.48895  0.14018  0.77578  1.0000
  Fe  Fe129     1.0  0.49313  0.22242  0.89834  1.0000
  H   H1191     1.0  0.41393  0.00999  0.74972  1.0000
  H   H1192     1.0  0.48890  0.17603  0.87978  1.0000
  H   H1193     1.0  0.24904  0.05347  0.80109  1.0000
  C   C1030     1.0  0.41939  0.30973  0.65572  1.0000
  H   H1194     1.0  0.47162  0.21956  0.71116  1.0000
  C   C1031     1.0  0.47602  0.20751  0.79181  1.0000
  H   H1195     1.0  0.28426  0.07132  0.68008  1.0000
  H   H1196     1.0  0.44614  0.29595  0.65080  1.0000
  H   H1197     1.0  0.24668  0.01222  0.74648  1.0000
  H   H1198     1.0  0.43918  0.19460  0.83542  1.0000
  H   H1199     1.0  0.48040  0.29954  0.70495  1.0000
  H   H1200     1.0  0.48360  0.21763  0.76452  1.0000
  H   H1201     1.0  0.26866  0.04038  0.73737  1.0000
  C   C1032     1.0  0.41040  0.26596  0.89231  1.0000
  C   C1033     1.0  0.43273  0.29645  0.65020  1.0000
  H   H1202     1.0  0.40911  0.27358  0.63910  1.0000
  C   C1034     1.0  0.40588  0.02333  0.70280  1.0000
  C   C1035     1.0  0.45784  0.23056  0.77513  1.0000
  H   H1203     1.0  0.47731  0.30627  0.73133  1.0000
  H   H1204     1.0  0.47110  0.15765  0.87587  1.0000
  H   H1205     1.0  0.48379  0.27612  0.94042  1.0000
  H   H1206     1.0  0.24607  0.07430  0.64360  1.0000
  H   H1207     1.0  0.24827  0.09150  0.68345  1.0000
  S   S263      1.0  0.48609  0.23696  0.62133  1.0000
  C   C1036     1.0  0.43328  0.30761  0.69729  1.0000
  C   C1037     1.0  0.26287  0.03563  0.75120  1.0000
  C   C1038     1.0  0.48516  0.19998  0.72908  1.0000
  S   S264      1.0  0.49359  0.15310  0.78807  1.0000
  H   H1208     1.0  0.24991  0.09960  0.64569  1.0000
  C   C1039     1.0  0.46708  0.30218  0.70309  1.0000
  H   H1209     1.0  0.25374  0.06832  0.68653  1.0000
  H   H1210     1.0  0.26585  0.04387  0.75871  1.0000
  H   H1211     1.0  0.43912  0.27309  0.64020  1.0000
  H   H1212     1.0  0.38122  0.27099  0.65796  1.0000
  H   H1213     1.0  0.47280  0.28057  0.69037  1.0000
  H   H1214     1.0  0.39455  0.31329  0.72835  1.0000
  N   N66       1.0  0.39072  0.99858  0.70706  1.0000
  H   H1215     1.0  0.36532  0.31629  0.66368  1.0000
  H   H1216     1.0  0.48384  0.13623  0.85684  1.0000
  H   H1217     1.0  0.24788  0.03033  0.72866  1.0000
  C   C1040     1.0  0.49258  0.27854  0.92750  1.0000
  C   C1041     1.0  0.27777  0.99303  0.68660  1.0000
  H   H1218     1.0  0.47685  0.30766  0.93984  1.0000
  C   C1042     1.0  0.49495  0.16706  0.87119  1.0000
  H   H1219     1.0  0.49498  0.17986  0.74917  1.0000
  C   C1043     1.0  0.38413  0.98421  0.72037  1.0000
  C   C1044     1.0  0.30921  0.64634  0.35148  1.0000
  H   H1220     1.0  0.35876  0.63267  0.30272  1.0000
  S   S265      1.0  0.44831  0.63966  0.23435  1.0000
  H   H1221     1.0  0.24678  0.62354  0.05602  1.0000
  C   C1045     1.0  0.30493  0.64610  0.33603  1.0000
  H   H1222     1.0  0.41437  0.63911  0.22971  1.0000
  C   C1046     1.0  0.35130  0.64350  0.29436  1.0000
  H   H1223     1.0  0.29234  0.64342  0.33627  1.0000
  H   H1224     1.0  0.36029  0.64661  0.28161  1.0000
  H   H1225     1.0  0.29990  0.64413  0.36362  1.0000
  H   H1226     1.0  0.34066  0.63860  0.29189  1.0000
  C   C1047     1.0  0.41291  0.64946  0.23643  1.0000
  H   H1227     1.0  0.31270  0.64925  0.30867  1.0000
  C   C1048     1.0  0.31661  0.64968  0.32028  1.0000
  C   C1049     1.0  0.32531  0.64985  0.35129  1.0000
  H   H1228     1.0  0.32848  0.65020  0.36337  1.0000
  C   C1050     1.0  0.26768  0.55484  0.81030  1.0000
  C   C1051     1.0  0.25350  0.53092  0.81350  1.0000
  S   S266      1.0  0.25828  0.59548  0.72588  1.0000
  H   H1229     1.0  0.32984  0.32672  0.73233  1.0000
  H   H1230     1.0  0.36488  0.45903  0.78423  1.0000
  S   S267      1.0  0.25809  0.58307  0.68217  1.0000
  H   H1231     1.0  0.25723  0.55881  0.72952  1.0000
  H   H1232     1.0  0.31739  0.41816  0.75993  1.0000
  Fe  Fe130     1.0  0.27848  0.35400  0.71943  1.0000
  S   S268      1.0  0.29527  0.36215  0.73268  1.0000
  H   H1233     1.0  0.24992  0.41604  0.70251  1.0000
  H   H1234     1.0  0.26250  0.60034  0.91311  1.0000
  H   H1235     1.0  0.44816  0.34862  0.73172  1.0000
  H   H1236     1.0  0.36868  0.36562  0.77099  1.0000
  Fe  Fe131     1.0  0.28646  0.38884  0.71820  1.0000
  S   S269      1.0  0.30612  0.40609  0.70878  1.0000
  H   H1237     1.0  0.24921  0.42311  0.86613  1.0000
  S   S270      1.0  0.27179  0.38037  0.70277  1.0000
  S   S271      1.0  0.43840  0.32278  0.77638  1.0000
  H   H1238     1.0  0.34064  0.38175  0.78400  1.0000
  C   C1052     1.0  0.32740  0.38388  0.76296  1.0000
  H   H1239     1.0  0.39233  0.32079  0.65985  1.0000
  Fe  Fe132     1.0  0.28348  0.47451  0.75936  1.0000
  S   S272      1.0  0.31004  0.48079  0.74840  1.0000
  S   S273      1.0  0.26677  0.46985  0.74349  1.0000
  Fe  Fe133     1.0  0.28505  0.47512  0.79577  1.0000
  S   S274      1.0  0.31201  0.48124  0.78798  1.0000
  S   S275      1.0  0.26743  0.47159  0.82203  1.0000
  Fe  Fe134     1.0  0.30146  0.50005  0.76567  1.0000
  S   S276      1.0  0.30775  0.52673  0.75677  1.0000
  Fe  Fe135     1.0  0.31804  0.46124  0.77142  1.0000
  S   S277      1.0  0.34280  0.44191  0.76379  1.0000
  S   S278      1.0  0.27412  0.49543  0.77480  1.0000
  S   S279      1.0  0.29187  0.45367  0.78105  1.0000
  H   H1240     1.0  0.28939  0.49252  0.72218  1.0000
  H   H1241     1.0  0.32164  0.40922  0.78126  1.0000
  S   S280      1.0  0.27070  0.52062  0.86964  1.0000
  H   H1242     1.0  0.29441  0.38406  0.75925  1.0000
  C   C1053     1.0  0.31235  0.41040  0.77280  1.0000
  H   H1243     1.0  0.43713  0.38518  0.78174  1.0000
  Fe  Fe136     1.0  0.40421  0.35748  0.79873  1.0000
  S   S281      1.0  0.39980  0.33053  0.80209  1.0000
  S   S282      1.0  0.38273  0.37737  0.81100  1.0000
  Fe  Fe137     1.0  0.44005  0.34992  0.77553  1.0000
  H   H1244     1.0  0.24988  0.61252  0.60188  1.0000
  Fe  Fe138     1.0  0.41075  0.33378  0.77370  1.0000
  C   C1054     1.0  0.40762  0.42397  0.77502  1.0000
  C   C1055     1.0  0.37697  0.44964  0.78181  1.0000
  H   H1245     1.0  0.25067  0.44420  0.68239  1.0000
  S   S283      1.0  0.41329  0.36114  0.76997  1.0000
  C   C1056     1.0  0.26207  0.54697  0.78494  1.0000
  H   H1246     1.0  0.32852  0.34343  0.74356  1.0000
  H   H1247     1.0  0.25675  0.52463  0.82636  1.0000
  C   C1057     1.0  0.42341  0.40433  0.75548  1.0000
  C   C1058     1.0  0.26035  0.37111  0.79432  1.0000
  H   H1248     1.0  0.26650  0.46615  0.66909  1.0000
  C   C1059     1.0  0.27180  0.55089  0.82697  1.0000
  C   C1060     1.0  0.28413  0.52884  0.80005  1.0000
  S   S284      1.0  0.27481  0.35881  0.77977  1.0000
  H   H1249     1.0  0.32063  0.38401  0.73838  1.0000
  C   C1061     1.0  0.35241  0.42336  0.77739  1.0000
  C   C1062     1.0  0.36634  0.41169  0.76969  1.0000
  C   C1063     1.0  0.37520  0.39726  0.77989  1.0000
  C   C1064     1.0  0.37046  0.39444  0.79793  1.0000
  C   C1065     1.0  0.35616  0.40584  0.80569  1.0000
  C   C1066     1.0  0.34706  0.42023  0.79544  1.0000
  H   H1250     1.0  0.37042  0.41394  0.75574  1.0000
  H   H1251     1.0  0.38587  0.38855  0.77373  1.0000
  H   H1252     1.0  0.35234  0.40375  0.81966  1.0000
  H   H1253     1.0  0.33632  0.42917  0.80150  1.0000
  C   C1067     1.0  0.26891  0.48454  0.83564  1.0000
  C   C1068     1.0  0.28458  0.48960  0.83452  1.0000
  C   C1069     1.0  0.28537  0.50003  0.84559  1.0000
  C   C1070     1.0  0.27039  0.50569  0.85750  1.0000
  H   H1254     1.0  0.25795  0.50379  0.72606  1.0000
  C   C1071     1.0  0.35532  0.32872  0.78658  1.0000
  H   H1255     1.0  0.29613  0.48535  0.82528  1.0000
  H   H1256     1.0  0.29744  0.50407  0.84465  1.0000
  S   S285      1.0  0.26346  0.64501  0.97141  1.0000
  H   H1257     1.0  0.38332  0.46118  0.75490  1.0000
  H   H1258     1.0  0.29450  0.53584  0.79175  1.0000
  H   H1259     1.0  0.43316  0.33515  0.73351  1.0000
  C   C1072     1.0  0.38736  0.45075  0.76525  1.0000
  C   C1073     1.0  0.25612  0.64747  0.61300  1.0000
  S   S286      1.0  0.28797  0.32800  0.71176  1.0000
  H   H1260     1.0  0.37306  0.35883  0.74208  1.0000
  H   H1261     1.0  0.26158  0.57693  0.78931  1.0000
  H   H1262     1.0  0.30332  0.37011  0.78801  1.0000
  H   H1263     1.0  0.29922  0.40502  0.74845  1.0000
  C   C1074     1.0  0.29602  0.42530  0.71619  1.0000
  C   C1075     1.0  0.27811  0.43148  0.71689  1.0000
  C   C1076     1.0  0.26928  0.44532  0.72506  1.0000
  C   C1077     1.0  0.27826  0.45295  0.73273  1.0000
  C   C1078     1.0  0.29630  0.44700  0.73176  1.0000
  C   C1079     1.0  0.30525  0.43334  0.72322  1.0000
  H   H1264     1.0  0.27102  0.42542  0.71127  1.0000
  H   H1265     1.0  0.48574  0.32602  0.70439  1.0000
  H   H1266     1.0  0.30338  0.45269  0.73775  1.0000
  H   H1267     1.0  0.31911  0.42845  0.72286  1.0000
  H   H1268     1.0  0.30167  0.33255  0.76189  1.0000
  H   H1269     1.0  0.28930  0.58902  0.73890  1.0000
  C   C1080     1.0  0.33974  0.32860  0.69762  1.0000
  C   C1081     1.0  0.32145  0.33392  0.70063  1.0000
  S   S287      1.0  0.25354  0.62299  0.93731  1.0000
  C   C1082     1.0  0.24677  0.55788  0.64297  1.0000
  S   S288      1.0  0.25440  0.35773  0.74029  1.0000
  H   H1270     1.0  0.34789  0.33820  0.69257  1.0000
  H   H1271     1.0  0.31553  0.34755  0.69781  1.0000
  H   H1272     1.0  0.46809  0.32379  0.74233  1.0000
  C   C1083     1.0  0.33292  0.32364  0.77382  1.0000
  C   C1084     1.0  0.26076  0.50300  0.68404  1.0000
  H   H1273     1.0  0.28251  0.53658  0.69688  1.0000
  H   H1274     1.0  0.28414  0.51812  0.79385  1.0000
  H   H1275     1.0  0.43429  0.39305  0.75322  1.0000
  H   H1276     1.0  0.43926  0.34990  0.71332  1.0000
  C   C1085     1.0  0.24608  0.38372  0.78947  1.0000
  S   S289      1.0  0.46249  0.36045  0.75709  1.0000
  N   N67       1.0  0.27665  0.51098  0.70295  1.0000
  S   S290      1.0  0.43158  0.34834  0.80428  1.0000
  H   H1277     1.0  0.31281  0.38210  0.79782  1.0000
  C   C1086     1.0  0.38183  0.43612  0.79513  1.0000
  C   C1087     1.0  0.35796  0.36960  0.76412  1.0000
  H   H1278     1.0  0.30624  0.33107  0.78865  1.0000
  H   H1279     1.0  0.47432  0.33091  0.78257  1.0000
  H   H1280     1.0  0.41380  0.38924  0.78901  1.0000
  H   H1281     1.0  0.49285  0.35486  0.72992  1.0000
  H   H1282     1.0  0.27534  0.64528  0.64888  1.0000
  H   H1283     1.0  0.26207  0.59905  0.80417  1.0000
  N   N68       1.0  0.42359  0.41068  0.77103  1.0000
  H   H1284     1.0  0.37165  0.32618  0.64113  1.0000
  H   H1285     1.0  0.34889  0.36856  0.72594  1.0000
  C   C1088     1.0  0.27208  0.57577  0.73323  1.0000
  C   C1089     1.0  0.26856  0.55950  0.73395  1.0000
  C   C1090     1.0  0.27940  0.54416  0.74110  1.0000
  C   C1091     1.0  0.29401  0.54513  0.74699  1.0000
  C   C1092     1.0  0.29759  0.56137  0.74585  1.0000
  C   C1093     1.0  0.28654  0.57656  0.73933  1.0000
  C   C1094     1.0  0.25411  0.48982  0.84784  1.0000
  H   H1286     1.0  0.27638  0.53166  0.74230  1.0000
  H   H1287     1.0  0.30877  0.56224  0.75045  1.0000
  C   C1095     1.0  0.34175  0.37864  0.77156  1.0000
  H   H1288     1.0  0.26162  0.52535  0.72268  1.0000
  H   H1289     1.0  0.28341  0.40283  0.76808  1.0000
  H   H1290     1.0  0.26562  0.63975  0.60449  1.0000
  C   C1096     1.0  0.44421  0.34073  0.72451  1.0000
  C   C1097     1.0  0.26462  0.57263  0.80206  1.0000
  C   C1098     1.0  0.25801  0.49144  0.67537  1.0000
  H   H1291     1.0  0.36897  0.32838  0.78606  1.0000
  N   N69       1.0  0.26682  0.54075  0.80223  1.0000
  H   H1292     1.0  0.26022  0.55805  0.63514  1.0000
  H   H1293     1.0  0.28823  0.52265  0.81257  1.0000
  S   S291      1.0  0.39816  0.32806  0.75497  1.0000
  C   C1099     1.0  0.35068  0.32319  0.77374  1.0000
  C   C1100     1.0  0.30931  0.31910  0.76183  1.0000
  H   H1294     1.0  0.30414  0.50119  0.70311  1.0000
  C   C1101     1.0  0.36046  0.36578  0.74782  1.0000
  C   C1102     1.0  0.30418  0.38335  0.78871  1.0000
  H   H1295     1.0  0.29966  0.41808  0.77846  1.0000
  H   H1296     1.0  0.25543  0.44974  0.72575  1.0000
  H   H1297     1.0  0.27165  0.55432  0.77573  1.0000
  H   H1298     1.0  0.25227  0.52034  0.80774  1.0000
  H   H1299     1.0  0.26877  0.59121  0.83353  1.0000
  H   H1300     1.0  0.25242  0.54396  0.61479  1.0000
  H   H1301     1.0  0.29087  0.38968  0.79480  1.0000
  H   H1302     1.0  0.39940  0.41299  0.80272  1.0000
  C   C1103     1.0  0.33052  0.38006  0.74620  1.0000
  H   H1303     1.0  0.47655  0.34454  0.71396  1.0000
  H   H1304     1.0  0.41088  0.40022  0.75688  1.0000
  H   H1305     1.0  0.27436  0.35852  0.81488  1.0000
  C   C1104     1.0  0.28204  0.47010  0.68524  1.0000
  S   S292      1.0  0.25812  0.61773  0.63803  1.0000
  H   H1306     1.0  0.24753  0.54549  0.65270  1.0000
  H   H1307     1.0  0.44712  0.32108  0.83406  1.0000
  C   C1105     1.0  0.26503  0.58555  0.81042  1.0000
  H   H1308     1.0  0.43980  0.42342  0.77883  1.0000
  C   C1106     1.0  0.40260  0.43829  0.76190  1.0000
  H   H1309     1.0  0.29291  0.51395  0.71909  1.0000
  H   H1310     1.0  0.42731  0.39873  0.79712  1.0000
  C   C1107     1.0  0.25485  0.50037  0.85874  1.0000
  C   C1108     1.0  0.43921  0.41845  0.76747  1.0000
  S   S293      1.0  0.26328  0.39533  0.73915  1.0000
  C   C1109     1.0  0.29630  0.39641  0.76127  1.0000
  C   C1110     1.0  0.26879  0.58118  0.82695  1.0000
  C   C1111     1.0  0.34247  0.33493  0.79983  1.0000
  H   H1311     1.0  0.34614  0.33936  0.80966  1.0000
  C   C1112     1.0  0.24997  0.63975  0.63022  1.0000
  H   H1312     1.0  0.29522  0.47669  0.70127  1.0000
  N   N70       1.0  0.31033  0.39332  0.77118  1.0000
  C   C1113     1.0  0.28011  0.52707  0.69043  1.0000
  H   H1313     1.0  0.37349  0.43513  0.80793  1.0000
  C   C1114     1.0  0.26340  0.36828  0.81106  1.0000
  H   H1314     1.0  0.26889  0.53387  0.68408  1.0000
  C   C1115     1.0  0.28481  0.48154  0.69409  1.0000
  C   C1116     1.0  0.26058  0.51539  0.71601  1.0000
  C   C1117     1.0  0.26867  0.47504  0.67590  1.0000
  H   H1315     1.0  0.29015  0.45719  0.68583  1.0000
  H   H1316     1.0  0.43917  0.42953  0.75622  1.0000
  Fe  Fe139     1.0  0.27085  0.36779  0.75238  1.0000
  H   H1317     1.0  0.31490  0.34037  0.81065  1.0000
  H   H1318     1.0  0.29175  0.52420  0.68005  1.0000
  C   C1118     1.0  0.39686  0.42339  0.79188  1.0000
  H   H1319     1.0  0.25463  0.37564  0.83594  1.0000
  C   C1119     1.0  0.34683  0.37116  0.73882  1.0000
  C   C1120     1.0  0.42548  0.39533  0.78537  1.0000
  H   H1320     1.0  0.41027  0.43987  0.74888  1.0000
  C   C1121     1.0  0.27420  0.49844  0.69375  1.0000
  C   C1122     1.0  0.29145  0.50434  0.71218  1.0000
  H   H1321     1.0  0.45155  0.40880  0.76450  1.0000
  Fe  Fe140     1.0  0.24503  0.59646  0.70436  1.0000
  H   H1322     1.0  0.42504  0.41427  0.74338  1.0000
  H   H1323     1.0  0.24884  0.55541  0.78571  1.0000
  Fe  Fe141     1.0  0.42793  0.32165  0.80482  1.0000
  H   H1324     1.0  0.27532  0.56033  0.84800  1.0000
  C   C1123     1.0  0.49439  0.34434  0.74094  1.0000
  C   C1124     1.0  0.31084  0.32159  0.70730  1.0000
  C   C1125     1.0  0.47335  0.33547  0.70756  1.0000
  H   H1325     1.0  0.25163  0.44972  0.86809  1.0000
  C   C1126     1.0  0.24887  0.60068  0.91918  1.0000
  H   H1326     1.0  0.42656  0.32847  0.71036  1.0000
  H   H1327     1.0  0.24543  0.47353  0.79717  1.0000
  Fe  Fe142     1.0  0.24901  0.38495  0.72488  1.0000
  C   C1127     1.0  0.29931  0.65017  0.65188  1.0000
  C   C1128     1.0  0.48396  0.33090  0.77061  1.0000
  H   H1328     1.0  0.25594  0.64119  0.89826  1.0000
  H   H1329     1.0  0.27448  0.53769  0.83394  1.0000
  C   C1129     1.0  0.25224  0.37796  0.82297  1.0000
  H   H1330     1.0  0.30257  0.63768  0.66027  1.0000
  C   C1130     1.0  0.27238  0.56385  0.83512  1.0000
  H   H1331     1.0  0.24746  0.49510  0.66827  1.0000
  H   H1332     1.0  0.26191  0.53606  0.77907  1.0000
  H   H1333     1.0  0.25141  0.46944  0.88635  1.0000
  H   H1334     1.0  0.34863  0.32802  0.73926  1.0000
  N   N71       1.0  0.45902  0.32694  0.71876  1.0000
  C   C1131     1.0  0.48167  0.34430  0.75627  1.0000
  H   H1335     1.0  0.48903  0.32172  0.92327  1.0000
  H   H1336     1.0  0.46969  0.34303  0.69511  1.0000
  H   H1337     1.0  0.25220  0.51555  0.68316  1.0000
  H   H1338     1.0  0.25124  0.58757  0.62534  1.0000
  Fe  Fe143     1.0  0.24553  0.60704  0.66543  1.0000
  H   H1339     1.0  0.42246  0.31953  0.66071  1.0000
  C   C1132     1.0  0.32492  0.33554  0.80033  1.0000
  C   C1133     1.0  0.32011  0.33004  0.78754  1.0000
  C   C1134     1.0  0.33415  0.32958  0.74303  1.0000
  H   H1340     1.0  0.24875  0.52063  0.71029  1.0000
  N   N72       1.0  0.32838  0.31818  0.75974  1.0000
  H   H1341     1.0  0.36115  0.31879  0.76357  1.0000
  H   H1342     1.0  0.46248  0.31770  0.85802  1.0000
  H   H1343     1.0  0.24558  0.58349  0.90429  1.0000
  C   C1135     1.0  0.43725  0.31849  0.70599  1.0000
  S   S294      1.0  0.27887  0.69172  0.41043  1.0000
  S   S295      1.0  0.29045  0.73626  0.40530  1.0000
  H   H1344     1.0  0.45242  0.81550  0.36882  1.0000
  N   N73       1.0  0.45269  0.81207  0.12750  1.0000
  Fe  Fe144     1.0  0.28228  0.83162  0.09079  1.0000
  S   S296      1.0  0.26874  0.82992  0.11892  1.0000
  S   S297      1.0  0.27568  0.85071  0.06667  1.0000
  Fe  Fe145     1.0  0.30767  0.79778  0.09842  1.0000
  S   S298      1.0  0.29613  0.79291  0.12660  1.0000
  S   S299      1.0  0.33038  0.77919  0.08688  1.0000
  Fe  Fe146     1.0  0.27025  0.80204  0.11846  1.0000
  C   C1136     1.0  0.40508  0.84930  0.23953  1.0000
  Fe  Fe147     1.0  0.29612  0.82091  0.12469  1.0000
  S   S300      1.0  0.30626  0.82424  0.14721  1.0000
  S   S301      1.0  0.28199  0.80450  0.09019  1.0000
  S   S302      1.0  0.30939  0.82514  0.09664  1.0000
  Fe  Fe148     1.0  0.38562  0.83870  0.17585  1.0000
  S   S303      1.0  0.37705  0.81607  0.19545  1.0000
  S   S304      1.0  0.37152  0.85096  0.15335  1.0000
  Fe  Fe149     1.0  0.41632  0.83756  0.19313  1.0000
  S   S305      1.0  0.40970  0.81434  0.21328  1.0000
  S   S306      1.0  0.44120  0.84198  0.19822  1.0000
  Fe  Fe150     1.0  0.40572  0.80445  0.19163  1.0000
  S   S307      1.0  0.41714  0.77792  0.18576  1.0000
  Fe  Fe151     1.0  0.38203  0.82865  0.21469  1.0000
  S   S308      1.0  0.36285  0.83228  0.23933  1.0000
  S   S309      1.0  0.41428  0.82640  0.17121  1.0000
  S   S310      1.0  0.38846  0.85247  0.19569  1.0000
  Fe  Fe152     1.0  0.36085  0.70990  0.30865  1.0000
  S   S311      1.0  0.36697  0.73640  0.30146  1.0000
  S   S312      1.0  0.35280  0.69858  0.33691  1.0000
  Fe  Fe153     1.0  0.37171  0.70489  0.27149  1.0000
  S   S313      1.0  0.37848  0.73113  0.26094  1.0000
  S   S314      1.0  0.37354  0.68620  0.25473  1.0000
  Fe  Fe154     1.0  0.39088  0.72484  0.28403  1.0000
  S   S315      1.0  0.41718  0.72933  0.28354  1.0000
  Fe  Fe155     1.0  0.35389  0.74024  0.27927  1.0000
  S   S316      1.0  0.33350  0.76434  0.27491  1.0000
  S   S317      1.0  0.38611  0.69784  0.29325  1.0000
  S   S318      1.0  0.34578  0.71456  0.28774  1.0000
  Fe  Fe156     1.0  0.35217  0.73912  0.00333  1.0000
  S   S319      1.0  0.33574  0.72094  0.02169  1.0000
  S   S320      1.0  0.37893  0.73482  0.01022  1.0000
  Fe  Fe157     1.0  0.31403  0.74400  0.02102  1.0000
  S   S321      1.0  0.29477  0.74796  0.04524  1.0000
  S   S322      1.0  0.42638  0.75502  0.07742  1.0000
  S   S323      1.0  0.40069  0.78128  0.11311  1.0000
  H   H1345     1.0  0.45202  0.83281  0.28928  1.0000
  Fe  Fe158     1.0  0.43318  0.79394  0.35824  1.0000
  S   S324      1.0  0.43302  0.81532  0.33455  1.0000
  S   S325      1.0  0.42056  0.80192  0.38400  1.0000
  Fe  Fe159     1.0  0.45452  0.76652  0.33716  1.0000
  S   S326      1.0  0.45597  0.78590  0.31226  1.0000
  C   C1137     1.0  0.37541  0.72904  0.21738  1.0000
  Fe  Fe160     1.0  0.46129  0.80297  0.32702  1.0000
  H   H1346     1.0  0.37425  0.71619  0.21706  1.0000
  Fe  Fe161     1.0  0.42766  0.79586  0.32236  1.0000
  S   S327      1.0  0.40794  0.80043  0.30570  1.0000
  S   S328      1.0  0.46206  0.78286  0.35147  1.0000
  S   S329      1.0  0.42565  0.77538  0.34651  1.0000
  H   H1347     1.0  0.32455  0.66832  0.28690  1.0000
  C   C1138     1.0  0.26504  0.68788  0.03781  1.0000
  C   C1139     1.0  0.48118  0.88162  0.33102  1.0000
  H   H1348     1.0  0.25070  0.88165  0.00620  1.0000
  S   S330      1.0  0.47598  0.89510  0.28497  1.0000
  C   C1140     1.0  0.47794  0.87277  0.29303  1.0000
  S   S331      1.0  0.47186  0.90522  0.20271  1.0000
  H   H1349     1.0  0.45214  0.73540  0.25386  1.0000
  C   C1141     1.0  0.46134  0.79578  0.12126  1.0000
  H   H1350     1.0  0.28267  0.71232  0.44915  1.0000
  H   H1351     1.0  0.42909  0.70712  0.22530  1.0000
  H   H1352     1.0  0.29481  0.75070  0.47406  1.0000
  Fe  Fe162     1.0  0.32672  0.79639  0.44036  1.0000
  S   S332      1.0  0.29971  0.80901  0.43588  1.0000
  S   S333      1.0  0.34606  0.78357  0.41962  1.0000
  Fe  Fe163     1.0  0.29998  0.82741  0.45199  1.0000
  H   H1353     1.0  0.40788  0.78914  0.46299  1.0000
  Fe  Fe164     1.0  0.29028  0.79253  0.46119  1.0000
  S   S334      1.0  0.26730  0.78115  0.46272  1.0000
  H   H1354     1.0  0.49483  0.74270  0.19514  1.0000
  C   C1142     1.0  0.42478  0.69746  0.02186  1.0000
  S   S335      1.0  0.25665  0.72480  0.38650  1.0000
  S   S336      1.0  0.45594  0.68375  0.20832  1.0000
  H   H1355     1.0  0.33349  0.82649  0.22472  1.0000
  H   H1356     1.0  0.43586  0.68810  0.04436  1.0000
  H   H1357     1.0  0.30022  0.67733  0.03278  1.0000
  C   C1143     1.0  0.28554  0.72792  0.47460  1.0000
  C   C1144     1.0  0.49381  0.86159  0.28833  1.0000
  C   C1145     1.0  0.39942  0.79760  0.39331  1.0000
  C   C1146     1.0  0.39367  0.78500  0.38851  1.0000
  C   C1147     1.0  0.37725  0.78096  0.39667  1.0000
  C   C1148     1.0  0.36626  0.78970  0.40945  1.0000
  C   C1149     1.0  0.37183  0.80253  0.41412  1.0000
  C   C1150     1.0  0.38849  0.80633  0.40620  1.0000
  H   H1358     1.0  0.40207  0.77797  0.37890  1.0000
  H   H1359     1.0  0.37313  0.77088  0.39319  1.0000
  H   H1360     1.0  0.36336  0.80944  0.42384  1.0000
  H   H1361     1.0  0.39288  0.81606  0.41002  1.0000
  C   C1151     1.0  0.29228  0.86213  0.47306  1.0000
  H   H1362     1.0  0.46617  0.71815  0.30573  1.0000
  H   H1363     1.0  0.25231  0.69725  0.03803  1.0000
  H   H1364     1.0  0.44478  0.76655  0.24480  1.0000
  C   C1152     1.0  0.46373  0.86599  0.30395  1.0000
  C   C1153     1.0  0.46549  0.84802  0.31017  1.0000
  H   H1365     1.0  0.32626  0.77104  0.14335  1.0000
  H   H1366     1.0  0.34895  0.65685  0.33647  1.0000
  H   H1367     1.0  0.45138  0.87462  0.30743  1.0000
  H   H1368     1.0  0.45452  0.84279  0.31843  1.0000
  C   C1154     1.0  0.40694  0.70510  0.20745  1.0000
  H   H1369     1.0  0.37611  0.77550  0.22088  1.0000
  C   C1155     1.0  0.38687  0.74941  0.01785  1.0000
  C   C1156     1.0  0.39006  0.76513  0.00713  1.0000
  C   C1157     1.0  0.40024  0.77463  0.01138  1.0000
  C   C1158     1.0  0.39337  0.74373  0.03327  1.0000
  H   H1370     1.0  0.36829  0.80592  0.45311  1.0000
  H   H1371     1.0  0.40322  0.78638  0.00258  1.0000
  C   C1159     1.0  0.41476  0.74949  0.28874  1.0000
  C   C1160     1.0  0.40168  0.76352  0.28361  1.0000
  C   C1161     1.0  0.39965  0.77940  0.28854  1.0000
  C   C1162     1.0  0.41046  0.78103  0.29885  1.0000
  C   C1163     1.0  0.42325  0.76688  0.30408  1.0000
  C   C1164     1.0  0.42551  0.75125  0.29892  1.0000
  H   H1372     1.0  0.39323  0.76217  0.27580  1.0000
  H   H1373     1.0  0.38963  0.79028  0.28451  1.0000
  H   H1374     1.0  0.43141  0.76776  0.31230  1.0000
  H   H1375     1.0  0.43537  0.74045  0.30325  1.0000
  H   H1376     1.0  0.24963  0.81467  0.47438  1.0000
  N   N74       1.0  0.25259  0.81434  0.40756  1.0000
  H   H1377     1.0  0.26219  0.67518  0.04552  1.0000
  C   C1165     1.0  0.35996  0.75757  0.22239  1.0000
  H   H1378     1.0  0.31314  0.78573  0.21759  1.0000
  C   C1166     1.0  0.40904  0.67611  0.25396  1.0000
  H   H1379     1.0  0.43767  0.73377  0.10886  1.0000
  H   H1380     1.0  0.26487  0.82051  0.38069  1.0000
  H   H1381     1.0  0.40762  0.68625  0.26089  1.0000
  C   C1167     1.0  0.35551  0.81316  0.25019  1.0000
  C   C1168     1.0  0.33858  0.81421  0.26027  1.0000
  C   C1169     1.0  0.33194  0.79912  0.26789  1.0000
  C   C1170     1.0  0.34242  0.78292  0.26596  1.0000
  C   C1171     1.0  0.35964  0.78180  0.25653  1.0000
  C   C1172     1.0  0.36608  0.79696  0.24832  1.0000
  H   H1382     1.0  0.33039  0.82672  0.26174  1.0000
  H   H1383     1.0  0.31864  0.80001  0.27523  1.0000
  H   H1384     1.0  0.36784  0.76930  0.25519  1.0000
  H   H1385     1.0  0.37924  0.79611  0.24065  1.0000
  C   C1173     1.0  0.41263  0.77829  0.16567  1.0000
  C   C1174     1.0  0.42314  0.76674  0.15521  1.0000
  C   C1175     1.0  0.41988  0.76783  0.13876  1.0000
  C   C1176     1.0  0.40581  0.78012  0.13306  1.0000
  C   C1177     1.0  0.39523  0.79143  0.14363  1.0000
  C   C1178     1.0  0.39882  0.79070  0.15975  1.0000
  H   H1386     1.0  0.43390  0.75714  0.15969  1.0000
  H   H1387     1.0  0.42792  0.75886  0.13073  1.0000
  H   H1388     1.0  0.38429  0.80090  0.13932  1.0000
  H   H1389     1.0  0.39070  0.79969  0.16761  1.0000
  C   C1179     1.0  0.44779  0.86033  0.20049  1.0000
  C   C1180     1.0  0.46048  0.85753  0.21046  1.0000
  C   C1181     1.0  0.46746  0.87128  0.21162  1.0000
  C   C1182     1.0  0.46203  0.88802  0.20263  1.0000
  C   C1183     1.0  0.44908  0.89095  0.19283  1.0000
  C   C1184     1.0  0.44184  0.87717  0.19188  1.0000
  H   H1390     1.0  0.46510  0.84457  0.21722  1.0000
  H   H1391     1.0  0.47746  0.82436  0.25634  1.0000
  H   H1392     1.0  0.44477  0.90388  0.18579  1.0000
  H   H1393     1.0  0.43216  0.87950  0.18402  1.0000
  C   C1185     1.0  0.35529  0.84177  0.14965  1.0000
  C   C1186     1.0  0.35100  0.82631  0.16004  1.0000
  C   C1187     1.0  0.33658  0.82054  0.15837  1.0000
  C   C1188     1.0  0.32653  0.82979  0.14595  1.0000
  C   C1189     1.0  0.33136  0.84475  0.13486  1.0000
  C   C1190     1.0  0.34562  0.85076  0.13679  1.0000
  H   H1394     1.0  0.35840  0.81903  0.16978  1.0000
  H   H1395     1.0  0.33282  0.80917  0.16721  1.0000
  H   H1396     1.0  0.32353  0.85222  0.12546  1.0000
  H   H1397     1.0  0.34879  0.86275  0.12867  1.0000
  C   C1191     1.0  0.32156  0.76759  0.07703  1.0000
  C   C1192     1.0  0.33120  0.76194  0.06193  1.0000
  C   C1193     1.0  0.32313  0.75514  0.05254  1.0000
  C   C1194     1.0  0.30544  0.75412  0.05820  1.0000
  C   C1195     1.0  0.29611  0.75882  0.07383  1.0000
  C   C1196     1.0  0.30427  0.76537  0.08336  1.0000
  H   H1398     1.0  0.34465  0.76340  0.05713  1.0000
  H   H1399     1.0  0.33055  0.75104  0.04074  1.0000
  H   H1400     1.0  0.28250  0.75779  0.07839  1.0000
  H   H1401     1.0  0.29704  0.76898  0.09547  1.0000
  C   C1197     1.0  0.29333  0.68034  0.04573  1.0000
  C   C1198     1.0  0.25956  0.84615  0.05813  1.0000
  H   H1402     1.0  0.48799  0.67374  0.24108  1.0000
  C   C1199     1.0  0.31966  0.83385  0.20329  1.0000
  H   H1403     1.0  0.32960  0.76525  0.12289  1.0000
  C   C1200     1.0  0.35044  0.78738  0.12130  1.0000
  N   N75       1.0  0.47252  0.71637  0.27867  1.0000
  H   H1404     1.0  0.48873  0.77269  0.17754  1.0000
  H   H1405     1.0  0.25695  0.76721  0.99008  1.0000
  C   C1201     1.0  0.29709  0.68894  0.35712  1.0000
  C   C1202     1.0  0.30831  0.68658  0.36848  1.0000
  C   C1203     1.0  0.32550  0.68923  0.36208  1.0000
  C   C1204     1.0  0.33149  0.69450  0.34429  1.0000
  C   C1205     1.0  0.32037  0.69669  0.33287  1.0000
  C   C1206     1.0  0.30326  0.69372  0.33925  1.0000
  H   H1406     1.0  0.30393  0.68226  0.38218  1.0000
  H   H1407     1.0  0.33409  0.68729  0.37099  1.0000
  H   H1408     1.0  0.32486  0.70075  0.31916  1.0000
  H   H1409     1.0  0.29467  0.69539  0.33040  1.0000
  C   C1207     1.0  0.28360  0.74964  0.42046  1.0000
  C   C1208     1.0  0.26601  0.75333  0.42869  1.0000
  C   C1209     1.0  0.26092  0.76291  0.44185  1.0000
  C   C1210     1.0  0.27341  0.76917  0.44640  1.0000
  C   C1211     1.0  0.29085  0.76614  0.43761  1.0000
  C   C1212     1.0  0.29596  0.75633  0.42470  1.0000
  H   H1410     1.0  0.26808  0.80452  0.42727  1.0000
  H   H1411     1.0  0.39981  0.86314  0.24037  1.0000
  H   H1412     1.0  0.30056  0.77109  0.44087  1.0000
  H   H1413     1.0  0.30954  0.75371  0.41823  1.0000
  Fe  Fe165     1.0  0.49007  0.90171  0.22125  1.0000
  H   H1414     1.0  0.38443  0.74586  0.13605  1.0000
  Fe  Fe166     1.0  0.42404  0.77530  0.09244  1.0000
  C   C1213     1.0  0.42101  0.72938  0.19620  1.0000
  C   C1214     1.0  0.25163  0.76847  0.02973  1.0000
  H   H1415     1.0  0.36795  0.66913  0.29100  1.0000
  C   C1215     1.0  0.46784  0.76483  0.27496  1.0000
  C   C1216     1.0  0.26919  0.80509  0.41324  1.0000
  C   C1217     1.0  0.29735  0.67985  0.99087  1.0000
  C   C1218     1.0  0.36011  0.77089  0.17268  1.0000
  H   H1416     1.0  0.35734  0.77995  0.45235  1.0000
  H   H1417     1.0  0.35546  0.67666  0.31021  1.0000
  S   S337      1.0  0.31713  0.77813  0.46466  1.0000
  H   H1418     1.0  0.42641  0.82654  0.13379  1.0000
  N   N76       1.0  0.36845  0.80480  0.05397  1.0000
  C   C1219     1.0  0.35225  0.80761  0.04717  1.0000
  C   C1220     1.0  0.38213  0.81107  0.03948  1.0000
  C   C1221     1.0  0.37412  0.78581  0.05988  1.0000
  C   C1222     1.0  0.36614  0.81399  0.06822  1.0000
  C   C1223     1.0  0.35135  0.82724  0.07220  1.0000
  C   C1224     1.0  0.37942  0.81052  0.07794  1.0000
  C   C1225     1.0  0.34994  0.83612  0.08533  1.0000
  C   C1226     1.0  0.37791  0.81954  0.09095  1.0000
  C   C1227     1.0  0.36315  0.83222  0.09472  1.0000
  H   H1419     1.0  0.34120  0.80391  0.05770  1.0000
  H   H1420     1.0  0.34824  0.82129  0.04065  1.0000
  H   H1421     1.0  0.35403  0.79965  0.03730  1.0000
  H   H1422     1.0  0.38452  0.80441  0.02846  1.0000
  H   H1423     1.0  0.39492  0.80867  0.04346  1.0000
  H   H1424     1.0  0.37843  0.82526  0.03455  1.0000
  H   H1425     1.0  0.38790  0.78207  0.06167  1.0000
  H   H1426     1.0  0.36561  0.78100  0.07230  1.0000
  H   H1427     1.0  0.37358  0.77837  0.05033  1.0000
  H   H1428     1.0  0.34062  0.83093  0.06546  1.0000
  H   H1429     1.0  0.39116  0.80086  0.07550  1.0000
  H   H1430     1.0  0.33847  0.84606  0.08830  1.0000
  H   H1431     1.0  0.38827  0.81664  0.09817  1.0000
  H   H1432     1.0  0.36202  0.83907  0.10490  1.0000
  H   H1433     1.0  0.48555  0.69610  0.11138  1.0000
  C   C1228     1.0  0.25934  0.81426  0.01040  1.0000
  N   N77       1.0  0.37634  0.77997  0.46686  1.0000
  C   C1229     1.0  0.25486  0.68842  0.09213  1.0000
  H   H1434     1.0  0.26922  0.78336  0.04515  1.0000
  S   S338      1.0  0.25228  0.67321  0.45571  1.0000
  H   H1435     1.0  0.26914  0.82169  0.01062  1.0000
  H   H1436     1.0  0.48915  0.70916  0.32299  1.0000
  S   S339      1.0  0.32817  0.81668  0.45404  1.0000
  S   S340      1.0  0.24643  0.71831  0.42902  1.0000
  C   C1230     1.0  0.45422  0.73276  0.04206  1.0000
  N   N78       1.0  0.38587  0.73804  0.34580  1.0000
  C   C1231     1.0  0.38000  0.75342  0.33282  1.0000
  C   C1232     1.0  0.40166  0.74036  0.35050  1.0000
  C   C1233     1.0  0.39120  0.72278  0.33735  1.0000
  C   C1234     1.0  0.37167  0.73634  0.36138  1.0000
  C   C1235     1.0  0.36376  0.72156  0.36749  1.0000
  C   C1236     1.0  0.36510  0.74994  0.37080  1.0000
  C   C1237     1.0  0.35023  0.72055  0.38212  1.0000
  C   C1238     1.0  0.35155  0.74878  0.38543  1.0000
  C   C1239     1.0  0.34412  0.73412  0.39106  1.0000
  H   H1437     1.0  0.37818  0.76580  0.33712  1.0000
  H   H1438     1.0  0.38969  0.75440  0.32038  1.0000
  H   H1439     1.0  0.36742  0.75280  0.32995  1.0000
  H   H1440     1.0  0.40630  0.72924  0.36055  1.0000
  H   H1441     1.0  0.39926  0.75234  0.35565  1.0000
  H   H1442     1.0  0.41269  0.74142  0.33907  1.0000
  H   H1443     1.0  0.38005  0.72040  0.33313  1.0000
  H   H1444     1.0  0.40165  0.72461  0.32548  1.0000
  H   H1445     1.0  0.39648  0.71081  0.34615  1.0000
  H   H1446     1.0  0.36771  0.71059  0.36117  1.0000
  H   H1447     1.0  0.37040  0.76160  0.36688  1.0000
  H   H1448     1.0  0.34433  0.70919  0.38649  1.0000
  H   H1449     1.0  0.34681  0.75929  0.39251  1.0000
  H   H1450     1.0  0.33355  0.73326  0.40234  1.0000
  N   N79       1.0  0.30722  0.74776  0.34851  1.0000
  C   C1240     1.0  0.30382  0.74020  0.33514  1.0000
  C   C1241     1.0  0.31489  0.73320  0.36123  1.0000
  C   C1242     1.0  0.29010  0.75653  0.35745  1.0000
  C   C1243     1.0  0.31911  0.76022  0.34136  1.0000
  C   C1244     1.0  0.32613  0.76483  0.32334  1.0000
  C   C1245     1.0  0.32382  0.76836  0.35256  1.0000
  C   C1246     1.0  0.33699  0.77695  0.31705  1.0000
  C   C1247     1.0  0.33470  0.78047  0.34612  1.0000
  C   C1248     1.0  0.34120  0.78482  0.32838  1.0000
  H   H1451     1.0  0.31617  0.73307  0.32816  1.0000
  H   H1452     1.0  0.29507  0.73068  0.34097  1.0000
  H   H1453     1.0  0.29725  0.75033  0.32551  1.0000
  H   H1454     1.0  0.31622  0.73745  0.37267  1.0000
  H   H1455     1.0  0.32807  0.72662  0.35522  1.0000
  H   H1456     1.0  0.30647  0.72334  0.36653  1.0000
  H   H1457     1.0  0.29122  0.76083  0.36899  1.0000
  H   H1458     1.0  0.28419  0.76806  0.34857  1.0000
  H   H1459     1.0  0.28061  0.74768  0.36239  1.0000
  H   H1460     1.0  0.32340  0.75937  0.31373  1.0000
  H   H1461     1.0  0.31898  0.76548  0.36641  1.0000
  C   C1249     1.0  0.33699  0.65370  0.33561  1.0000
  H   H1462     1.0  0.33799  0.78661  0.35493  1.0000
  H   H1463     1.0  0.34211  0.78030  0.30321  1.0000
  C   C1250     1.0  0.43279  0.83517  0.27414  1.0000
  S   S341      1.0  0.24942  0.78607  0.13079  1.0000
  H   H1464     1.0  0.42454  0.72275  0.06254  1.0000
  N   N80       1.0  0.41074  0.83889  0.25570  1.0000
  H   H1465     1.0  0.44936  0.71313  0.29814  1.0000
  C   C1251     1.0  0.31571  0.86189  0.18243  1.0000
  H   H1466     1.0  0.40765  0.71139  0.23841  1.0000
  C   C1252     1.0  0.46229  0.71554  0.10798  1.0000
  N   N81       1.0  0.40878  0.72142  0.21127  1.0000
  H   H1467     1.0  0.48382  0.72863  0.18082  1.0000
  C   C1253     1.0  0.39161  0.75070  0.21649  1.0000
  C   C1254     1.0  0.46072  0.82497  0.36111  1.0000
  N   N82       1.0  0.27738  0.69408  0.04453  1.0000
  H   H1468     1.0  0.46863  0.83425  0.13758  1.0000
  H   H1469     1.0  0.46315  0.82379  0.34733  1.0000
  C   C1255     1.0  0.26388  0.87652  0.46635  1.0000
  C   C1256     1.0  0.26914  0.69798  0.06194  1.0000
  H   H1470     1.0  0.42990  0.81463  0.11694  1.0000
  C   C1257     1.0  0.26247  0.68511  0.07554  1.0000
  C   C1258     1.0  0.39636  0.65978  0.24100  1.0000
  H   H1471     1.0  0.28035  0.81133  0.40569  1.0000
  H   H1472     1.0  0.48412  0.75893  0.11984  1.0000
  C   C1259     1.0  0.46378  0.71092  0.29691  1.0000
  S   S342      1.0  0.28407  0.85406  0.44575  1.0000
  C   C1260     1.0  0.42794  0.72609  0.00581  1.0000
  H   H1473     1.0  0.39107  0.85407  0.27222  1.0000
  C   C1261     1.0  0.48885  0.73317  0.32982  1.0000
  C   C1262     1.0  0.40719  0.76869  0.02650  1.0000
  H   H1474     1.0  0.42809  0.82404  0.28258  1.0000
  H   H1475     1.0  0.26288  0.67239  0.07345  1.0000
  N   N83       1.0  0.34446  0.65882  0.30260  1.0000
  H   H1476     1.0  0.41394  0.71022  0.99921  1.0000
  H   H1477     1.0  0.42743  0.86702  0.23817  1.0000
  C   C1263     1.0  0.46892  0.82198  0.16367  1.0000
  C   C1264     1.0  0.43398  0.69892  0.03371  1.0000
  H   H1478     1.0  0.44233  0.83378  0.39033  1.0000
  H   H1479     1.0  0.46284  0.84081  0.38562  1.0000
  C   C1265     1.0  0.25634  0.70958  0.47597  1.0000
  C   C1266     1.0  0.39311  0.76798  0.43991  1.0000
  H   H1480     1.0  0.29906  0.66928  0.00181  1.0000
  C   C1267     1.0  0.46454  0.80859  0.17732  1.0000
  C   C1268     1.0  0.42571  0.66608  0.24895  1.0000
  H   H1481     1.0  0.27588  0.73137  0.98692  1.0000
  H   H1482     1.0  0.26920  0.85851  0.03196  1.0000
  C   C1269     1.0  0.40752  0.78249  0.45318  1.0000
  H   H1483     1.0  0.41902  0.81150  0.26591  1.0000
  H   H1484     1.0  0.38009  0.80458  0.46952  1.0000
  H   H1485     1.0  0.25526  0.72271  0.46755  1.0000
  H   H1486     1.0  0.47197  0.77334  0.28073  1.0000
  H   H1487     1.0  0.27355  0.80458  0.03770  1.0000
  H   H1488     1.0  0.24674  0.83308  0.08264  1.0000
  S   S343      1.0  0.49064  0.68607  0.17735  1.0000
  H   H1489     1.0  0.29111  0.79499  0.01020  1.0000
  H   H1490     1.0  0.24794  0.70707  0.10859  1.0000
  H   H1491     1.0  0.46244  0.68889  0.04976  1.0000
  H   H1492     1.0  0.49163  0.82827  0.07983  1.0000
  C   C1270     1.0  0.44019  0.71422  0.03211  1.0000
  C   C1271     1.0  0.37588  0.76252  0.21989  1.0000
  C   C1272     1.0  0.43992  0.71809  0.13399  1.0000
  H   H1493     1.0  0.27041  0.68588  0.02428  1.0000
  H   H1494     1.0  0.32249  0.85549  0.17125  1.0000
  C   C1273     1.0  0.44563  0.86416  0.25384  1.0000
  S   S344      1.0  0.33052  0.76275  0.00435  1.0000
  C   C1274     1.0  0.25027  0.78582  0.02034  1.0000
  H   H1495     1.0  0.39132  0.73141  0.04147  1.0000
  C   C1275     1.0  0.45050  0.70494  0.14372  1.0000
  C   C1276     1.0  0.40323  0.75346  0.03772  1.0000
  H   H1496     1.0  0.42721  0.72428  0.14026  1.0000
  C   C1277     1.0  0.25385  0.70452  0.09574  1.0000
  H   H1497     1.0  0.47519  0.68686  0.14310  1.0000
  S   S345      1.0  0.27544  0.68592  0.36510  1.0000
  S   S346      1.0  0.44293  0.69899  0.16607  1.0000
  C   C1278     1.0  0.46442  0.88655  0.34047  1.0000
  S   S347      1.0  0.42115  0.78048  0.03041  1.0000
  C   C1279     1.0  0.43351  0.81430  0.12939  1.0000
  C   C1280     1.0  0.44587  0.72349  0.11620  1.0000
  C   C1281     1.0  0.45528  0.87400  0.35121  1.0000
  Fe  Fe167     1.0  0.43346  0.77515  0.05402  1.0000
  S   S348      1.0  0.45167  0.76811  0.09609  1.0000
  Fe  Fe168     1.0  0.45480  0.74974  0.07864  1.0000
  S   S349      1.0  0.42894  0.79613  0.06906  1.0000
  C   C1282     1.0  0.26037  0.71740  0.08273  1.0000
  Fe  Fe169     1.0  0.27044  0.72036  0.40824  1.0000
  Fe  Fe170     1.0  0.26347  0.69588  0.38981  1.0000
  C   C1283     1.0  0.42251  0.78012  0.44019  1.0000
  H   H1498     1.0  0.42496  0.73685  0.99530  1.0000
  H   H1499     1.0  0.39807  0.83205  0.28253  1.0000
  C   C1284     1.0  0.43214  0.85914  0.24952  1.0000
  H   H1500     1.0  0.30134  0.86323  0.18396  1.0000
  C   C1285     1.0  0.25732  0.84053  0.41644  1.0000
  C   C1286     1.0  0.46805  0.70626  0.26810  1.0000
  C   C1287     1.0  0.25487  0.81318  0.38919  1.0000
  H   H1501     1.0  0.40843  0.75934  0.41670  1.0000
  H   H1502     1.0  0.26102  0.89807  0.05654  1.0000
  C   C1288     1.0  0.44995  0.84354  0.38176  1.0000
  N   N84       1.0  0.26338  0.79600  0.01975  1.0000
  H   H1503     1.0  0.40822  0.74890  0.04952  1.0000
  H   H1504     1.0  0.25627  0.74906  0.42476  1.0000
  H   H1505     1.0  0.24968  0.70200  0.47094  1.0000
  H   H1506     1.0  0.30091  0.80526  0.19288  1.0000
  H   H1507     1.0  0.25892  0.79951  0.38742  1.0000
  C   C1289     1.0  0.39226  0.77668  0.45333  1.0000
  C   C1290     1.0  0.28080  0.78783  0.01083  1.0000
  H   H1508     1.0  0.45060  0.87550  0.24606  1.0000
  H   H1509     1.0  0.36860  0.65495  0.31142  1.0000
  C   C1291     1.0  0.42528  0.84442  0.25960  1.0000
  H   H1510     1.0  0.27276  0.79141  0.41149  1.0000
  C   C1292     1.0  0.48993  0.80181  0.08179  1.0000
  H   H1511     1.0  0.43581  0.84831  0.34465  1.0000
  H   H1512     1.0  0.30454  0.83489  0.18381  1.0000
  H   H1513     1.0  0.42619  0.85874  0.36274  1.0000
  H   H1514     1.0  0.44279  0.85643  0.38458  1.0000
  H   H1515     1.0  0.44671  0.78771  0.15732  1.0000
  H   H1516     1.0  0.47294  0.69208  0.27209  1.0000
  H   H1517     1.0  0.38511  0.65742  0.23767  1.0000
  C   C1293     1.0  0.48160  0.83697  0.30593  1.0000
  C   C1294     1.0  0.47320  0.74089  0.14140  1.0000
  H   H1518     1.0  0.46340  0.85855  0.27116  1.0000
  C   C1295     1.0  0.37048  0.79889  0.46625  1.0000
  S   S350      1.0  0.30491  0.73914  0.99941  1.0000
  Fe  Fe171     1.0  0.46349  0.68195  0.18041  1.0000
  H   H1519     1.0  0.34325  0.86604  0.19053  1.0000
  H   H1520     1.0  0.45564  0.82657  0.10109  1.0000
  H   H1521     1.0  0.30281  0.68441  0.05101  1.0000
  C   C1296     1.0  0.40823  0.76556  0.42709  1.0000
  S   S351      1.0  0.32275  0.69145  0.99900  1.0000
  C   C1297     1.0  0.47324  0.73255  0.15856  1.0000
  C   C1298     1.0  0.41609  0.82052  0.25379  1.0000
  H   H1522     1.0  0.27961  0.69083  0.45308  1.0000
  H   H1523     1.0  0.47238  0.70327  0.05560  1.0000
  H   H1524     1.0  0.46488  0.72324  0.16475  1.0000
  H   H1525     1.0  0.34609  0.84783  0.20773  1.0000
  C   C1299     1.0  0.24757  0.83275  0.40924  1.0000
  H   H1526     1.0  0.40547  0.81613  0.25057  1.0000
  H   H1527     1.0  0.42791  0.81869  0.24329  1.0000
  H   H1528     1.0  0.41505  0.73409  0.18452  1.0000
  H   H1529     1.0  0.43337  0.71998  0.19276  1.0000
  H   H1530     1.0  0.34780  0.76659  0.22563  1.0000
  C   C1300     1.0  0.28437  0.69971  0.45843  1.0000
  H   H1531     1.0  0.45838  0.90019  0.33914  1.0000
  C   C1301     1.0  0.45300  0.79745  0.15858  1.0000
  C   C1302     1.0  0.42281  0.77178  0.42710  1.0000
  C   C1303     1.0  0.28540  0.68041  0.98071  1.0000
  C   C1304     1.0  0.27983  0.86496  0.46285  1.0000
  Fe  Fe172     1.0  0.32815  0.71741  0.99843  1.0000
  H   H1532     1.0  0.38211  0.75776  0.18453  1.0000
  C   C1305     1.0  0.45265  0.76102  0.25463  1.0000
  C   C1306     1.0  0.25907  0.85206  0.04045  1.0000
  H   H1533     1.0  0.28520  0.77435  0.01758  1.0000
  H   H1534     1.0  0.27231  0.72498  0.05668  1.0000
  C   C1307     1.0  0.36144  0.77348  0.46489  1.0000
  H   H1535     1.0  0.39946  0.69734  0.21882  1.0000
  H   H1536     1.0  0.40054  0.70774  0.19618  1.0000
  H   H1537     1.0  0.42510  0.74046  0.19863  1.0000
  H   H1538     1.0  0.28069  0.78735  0.99729  1.0000
  H   H1539     1.0  0.42824  0.80356  0.13892  1.0000
  C   C1308     1.0  0.45699  0.81109  0.14443  1.0000
  C   C1309     1.0  0.44642  0.84017  0.27819  1.0000
  H   H1540     1.0  0.45607  0.78441  0.12958  1.0000
  C   C1310     1.0  0.33574  0.76335  0.13423  1.0000
  H   H1541     1.0  0.45144  0.83941  0.11715  1.0000
  C   C1311     1.0  0.46698  0.69702  0.13560  1.0000
  H   H1542     1.0  0.47490  0.83156  0.16589  1.0000
  C   C1312     1.0  0.46515  0.82337  0.14744  1.0000
  C   C1313     1.0  0.36377  0.75909  0.11518  1.0000
  H   H1543     1.0  0.34049  0.79537  0.12986  1.0000
  C   C1314     1.0  0.48900  0.86414  0.33250  1.0000
  H   H1544     1.0  0.42732  0.83623  0.36547  1.0000
  C   C1315     1.0  0.41671  0.71690  0.22678  1.0000
  H   H1545     1.0  0.39668  0.74129  0.16136  1.0000
  H   H1546     1.0  0.36467  0.75922  0.46570  1.0000
  H   H1547     1.0  0.44096  0.74003  0.01536  1.0000
  H   H1548     1.0  0.29799  0.86058  0.21565  1.0000
  H   H1549     1.0  0.25966  0.72996  0.08550  1.0000
  C   C1316     1.0  0.39191  0.73372  0.21467  1.0000
  C   C1317     1.0  0.35973  0.74086  0.22119  1.0000
  H   H1550     1.0  0.41985  0.69643  0.20407  1.0000
  H   H1551     1.0  0.41977  0.72837  0.22961  1.0000
  H   H1552     1.0  0.34732  0.73690  0.22353  1.0000
  C   C1318     1.0  0.45838  0.82663  0.11385  1.0000
  H   H1553     1.0  0.45937  0.79648  0.10804  1.0000
  H   H1554     1.0  0.43423  0.77039  0.41674  1.0000
  H   H1555     1.0  0.47890  0.74202  0.29125  1.0000
  C   C1319     1.0  0.45705  0.74302  0.25997  1.0000
  C   C1320     1.0  0.25214  0.85801  0.41768  1.0000
  H   H1556     1.0  0.34956  0.79428  0.32336  1.0000
  H   H1557     1.0  0.30466  0.85330  0.47030  1.0000
  H   H1558     1.0  0.29034  0.66800  0.05424  1.0000
  H   H1559     1.0  0.46488  0.73805  0.13431  1.0000
  N   N85       1.0  0.45227  0.84297  0.36327  1.0000
  C   C1321     1.0  0.47993  0.85145  0.34305  1.0000
  H   H1560     1.0  0.48796  0.89134  0.32216  1.0000
  S   S352      1.0  0.49271  0.65665  0.21357  1.0000
  C   C1322     1.0  0.30723  0.69278  0.98674  1.0000
  S   S353      1.0  0.49071  0.70530  0.21576  1.0000
  H   H1561     1.0  0.46093  0.73344  0.05219  1.0000
  C   C1323     1.0  0.39532  0.84052  0.27011  1.0000
  H   H1562     1.0  0.40356  0.75492  0.21548  1.0000
  H   H1563     1.0  0.47271  0.82575  0.11178  1.0000
  H   H1564     1.0  0.27134  0.72020  0.03004  1.0000
  H   H1565     1.0  0.46841  0.69688  0.30191  1.0000
  H   H1566     1.0  0.29863  0.69472  0.45795  1.0000
  H   H1567     1.0  0.31832  0.87527  0.17867  1.0000
  H   H1568     1.0  0.47570  0.79306  0.12069  1.0000
  C   C1324     1.0  0.46713  0.73537  0.27303  1.0000
  H   H1569     1.0  0.24633  0.82114  0.01649  1.0000
  S   S354      1.0  0.46583  0.73891  0.33426  1.0000
  H   H1570     1.0  0.43707  0.66849  0.25204  1.0000
  C   C1325     1.0  0.47280  0.70220  0.11767  1.0000
  C   C1326     1.0  0.42168  0.71107  0.00801  1.0000
  Fe  Fe173     1.0  0.45717  0.78740  0.07145  1.0000
  C   C1327     1.0  0.43708  0.72775  0.01761  1.0000
  H   H1571     1.0  0.25952  0.81508  0.99648  1.0000
  C   C1328     1.0  0.26438  0.79640  0.03763  1.0000
  Fe  Fe174     1.0  0.46539  0.65515  0.21332  1.0000
  S   S355      1.0  0.46249  0.76841  0.05392  1.0000
  N   N86       1.0  0.32197  0.85206  0.19850  1.0000
  N   N87       1.0  0.35299  0.76854  0.12895  1.0000
  H   H1572     1.0  0.41605  0.84856  0.22811  1.0000
  C   C1329     1.0  0.37593  0.75925  0.17377  1.0000
  H   H1573     1.0  0.35385  0.77816  0.18284  1.0000
  H   H1574     1.0  0.44309  0.71557  0.07283  1.0000
  H   H1575     1.0  0.25439  0.73498  0.00042  1.0000
  H   H1576     1.0  0.43444  0.70022  0.06714  1.0000
  C   C1330     1.0  0.43727  0.71347  0.06266  1.0000
  N   N88       1.0  0.44907  0.71576  0.04536  1.0000
  H   H1577     1.0  0.38558  0.76944  0.99500  1.0000
  C   C1331     1.0  0.30800  0.81002  0.19983  1.0000
  C   C1332     1.0  0.45653  0.79638  0.17481  1.0000
  H   H1578     1.0  0.46707  0.80798  0.18995  1.0000
  S   S356      1.0  0.47127  0.65290  0.18538  1.0000
  H   H1579     1.0  0.47729  0.86880  0.21926  1.0000
  H   H1580     1.0  0.45361  0.70809  0.26949  1.0000
  C   C1333     1.0  0.38418  0.75007  0.16064  1.0000
  C   C1334     1.0  0.26776  0.71431  0.06606  1.0000
  H   H1581     1.0  0.48662  0.83818  0.34300  1.0000
  C   C1335     1.0  0.28269  0.70927  0.03158  1.0000
  H   H1582     1.0  0.31709  0.85515  0.22500  1.0000
  C   C1336     1.0  0.31214  0.86109  0.21280  1.0000
  H   H1583     1.0  0.26901  0.83351  0.42118  1.0000
  H   H1584     1.0  0.43389  0.78497  0.44010  1.0000
  C   C1337     1.0  0.31497  0.79901  0.21362  1.0000
  Fe  Fe175     1.0  0.25328  0.68996  0.42905  1.0000
  C   C1338     1.0  0.46255  0.85602  0.35245  1.0000
  H   H1585     1.0  0.33702  0.74943  0.14065  1.0000
  C   C1339     1.0  0.46522  0.70217  0.04594  1.0000
  C   C1340     1.0  0.33453  0.67277  0.29099  1.0000
  H   H1586     1.0  0.41965  0.68591  0.02361  1.0000
  C   C1341     1.0  0.35259  0.77354  0.15828  1.0000
  C   C1342     1.0  0.37691  0.75285  0.14606  1.0000
  H   H1587     1.0  0.36290  0.79205  0.11860  1.0000
  H   H1588     1.0  0.39445  0.84458  0.23674  1.0000
  H   H1589     1.0  0.45269  0.78620  0.18555  1.0000
  H   H1590     1.0  0.44234  0.87851  0.35830  1.0000
  H   H1591     1.0  0.37682  0.76271  0.11032  1.0000
  H   H1592     1.0  0.46359  0.73515  0.02951  1.0000
  C   C1343     1.0  0.39438  0.67310  0.24979  1.0000
  C   C1344     1.0  0.36094  0.76489  0.14435  1.0000
  H   H1593     1.0  0.34584  0.79048  0.10888  1.0000
  H   H1594     1.0  0.34030  0.78266  0.15792  1.0000
  H   H1595     1.0  0.24735  0.76555  0.44838  1.0000
  C   C1345     1.0  0.34077  0.85265  0.19568  1.0000
  C   C1346     1.0  0.31019  0.82721  0.19473  1.0000
  H   H1596     1.0  0.45479  0.78582  0.25779  1.0000
  H   H1597     1.0  0.28858  0.70601  0.01858  1.0000
  H   H1598     1.0  0.35754  0.76214  0.10377  1.0000
  H   H1599     1.0  0.24660  0.80010  0.09523  1.0000
  H   H1600     1.0  0.44263  0.74365  0.04205  1.0000
  H   H1601     1.0  0.28189  0.73337  0.46219  1.0000
  Fe  Fe176     1.0  0.48360  0.68533  0.20578  1.0000
  H   H1602     1.0  0.47396  0.70999  0.25413  1.0000
  C   C1347     1.0  0.45283  0.85465  0.26804  1.0000
  H   H1603     1.0  0.36555  0.74482  0.11980  1.0000
  H   H1604     1.0  0.29290  0.71390  0.03525  1.0000
  H   H1605     1.0  0.34875  0.84471  0.18612  1.0000
  H   H1606     1.0  0.25978  0.86377  0.42310  1.0000
  C   C1348     1.0  0.48429  0.73580  0.16765  1.0000
  S   S357      1.0  0.47249  0.80764  0.07055  1.0000
  S   S358      1.0  0.46973  0.72269  0.08573  1.0000
  H   H1607     1.0  0.32943  0.79663  0.23326  1.0000
  C   C1349     1.0  0.32416  0.80514  0.22240  1.0000
  C   C1350     1.0  0.47200  0.74687  0.28066  1.0000
  H   H1608     1.0  0.31323  0.87496  0.20960  1.0000
  H   H1609     1.0  0.38398  0.83676  0.26748  1.0000
  H   H1610     1.0  0.25428  0.87883  0.45840  1.0000
  C   C1351     1.0  0.32645  0.82229  0.21738  1.0000
  H   H1611     1.0  0.47337  0.82054  0.36558  1.0000
  C   C1352     1.0  0.48403  0.75270  0.13329  1.0000
  S   S359      1.0  0.48489  0.81473  0.31480  1.0000
  H   H1612     1.0  0.38214  0.76335  0.43866  1.0000
  C   C1353     1.0  0.45818  0.77189  0.26199  1.0000
  H   H1613     1.0  0.26186  0.76253  0.03701  1.0000
  C   C1354     1.0  0.43470  0.84676  0.35883  1.0000
  H   H1614     1.0  0.47431  0.70321  0.03309  1.0000
  C   C1355     1.0  0.42764  0.65266  0.24025  1.0000
  C   C1356     1.0  0.24650  0.83769  0.06900  1.0000
  C   C1357     1.0  0.24611  0.90029  0.03717  1.0000
  H   H1615     1.0  0.32770  0.68387  0.29743  1.0000
  S   S360      1.0  0.48927  0.92134  0.23688  1.0000
  C   C1358     1.0  0.26162  0.73386  0.98703  1.0000
  H   H1616     1.0  0.24951  0.67846  0.10218  1.0000
  H   H1617     1.0  0.34322  0.67783  0.27875  1.0000
  H   H1618     1.0  0.25131  0.80175  0.04498  1.0000
  H   H1619     1.0  0.25959  0.72197  0.98413  1.0000
  H   H1620     1.0  0.49281  0.80698  0.27892  1.0000
  H   H1621     1.0  0.27784  0.67037  0.98395  1.0000
  H   H1622     1.0  0.48303  0.81585  0.22803  1.0000
  H   H1623     1.0  0.25462  0.90781  0.02747  1.0000
  H   H1624     1.0  0.25530  0.90294  0.00157  1.0000
  Fe  Fe177     1.0  0.32341  0.75564  0.98233  1.0000
  C   C1359     1.0  0.33281  0.65407  0.31953  1.0000
  C   C1360     1.0  0.35973  0.66517  0.30397  1.0000
  H   H1625     1.0  0.49184  0.77432  0.08562  1.0000
  C   C1361     1.0  0.49178  0.71160  0.27746  1.0000
  S   S361      1.0  0.28878  0.81166  0.47714  1.0000
  C   C1362     1.0  0.48658  0.81246  0.25413  1.0000
  C   C1363     1.0  0.48968  0.80772  0.23817  1.0000
  H   H1626     1.0  0.49296  0.75583  0.33612  1.0000
  H   H1627     1.0  0.35799  0.80193  0.47566  1.0000
  H   H1628     1.0  0.34977  0.77603  0.47532  1.0000
  N   N89       1.0  0.27480  0.70093  0.47640  1.0000
  Fe  Fe178     1.0  0.31669  0.79915  0.47805  1.0000
  S   S362      1.0  0.49164  0.87914  0.24346  1.0000
  H   H1629     1.0  0.49265  0.88689  0.16867  1.0000
  C   C1364     1.0  0.24974  0.89506  0.05383  1.0000
  S   S363      1.0  0.34653  0.73338  0.97956  1.0000
  Fe  Fe179     1.0  0.49307  0.89811  0.25843  1.0000
  C   C1365     1.0  0.49493  0.75627  0.14231  1.0000
  C   C1366     1.0  0.24532  0.84996  0.03383  1.0000
  C   C1367     1.0  0.24502  0.89567  0.00257  1.0000
  H   H1630     1.0  0.24523  0.75426  0.79542  1.0000
  H   H1631     1.0  0.26408  0.84817  0.50202  1.0000
  Fe  Fe180     1.0  0.27163  0.72901  0.56068  1.0000
  S   S364      1.0  0.29788  0.73382  0.56075  1.0000
  S   S365      1.0  0.26666  0.70204  0.56570  1.0000
  H   H1632     1.0  0.29114  0.81749  0.51202  1.0000
  H   H1633     1.0  0.25435  0.95717  0.81566  1.0000
  H   H1634     1.0  0.39657  0.98313  0.68756  1.0000
  S   S366      1.0  0.25664  0.73966  0.53929  1.0000
  S   S367      1.0  0.26330  0.89075  0.73164  1.0000
  H   H1635     1.0  0.26967  0.85781  0.52705  1.0000
  H   H1636     1.0  0.32239  0.65847  0.65246  1.0000
  C   C1368     1.0  0.30507  0.70633  0.97252  1.0000
  Fe  Fe181     1.0  0.27048  0.90953  0.74348  1.0000
  S   S368      1.0  0.29907  0.91043  0.73885  1.0000
  C   C1369     1.0  0.29287  0.73799  0.48133  1.0000
  H   H1637     1.0  0.28262  0.92106  0.80997  1.0000
  Fe  Fe182     1.0  0.27375  0.76635  0.88684  1.0000
  C   C1370     1.0  0.28725  0.70553  0.50042  1.0000
  S   S369      1.0  0.29347  0.74982  0.90279  1.0000
  Fe  Fe183     1.0  0.26461  0.79494  0.85588  1.0000
  C   C1371     1.0  0.27970  0.67054  0.63468  1.0000
  S   S370      1.0  0.27473  0.81734  0.83670  1.0000
  H   H1638     1.0  0.39498  0.97424  0.72524  1.0000
  H   H1639     1.0  0.30940  0.97922  0.64271  1.0000
  H   H1640     1.0  0.28495  0.69335  0.50872  1.0000
  C   C1372     1.0  0.27648  0.78524  0.80891  1.0000
  S   S371      1.0  0.26277  0.79483  0.88386  1.0000
  S   S372      1.0  0.27821  0.76693  0.85833  1.0000
  H   H1641     1.0  0.29514  0.72314  0.60450  1.0000
  C   C1373     1.0  0.28895  0.87123  0.48645  1.0000
  S   S373      1.0  0.31088  0.77624  0.96234  1.0000
  C   C1374     1.0  0.34550  0.69310  0.94314  1.0000
  H   H1642     1.0  0.33086  0.97754  0.66046  1.0000
  S   S374      1.0  0.32742  0.79302  0.50223  1.0000
  H   H1643     1.0  0.32454  0.72385  0.90165  1.0000
  H   H1644     1.0  0.36825  0.77329  0.49466  1.0000
  S   S375      1.0  0.34139  0.97133  0.71599  1.0000
  C   C1375     1.0  0.29452  0.71575  0.50707  1.0000
  C   C1376     1.0  0.29359  0.70654  0.96204  1.0000
  H   H1645     1.0  0.38502  0.75718  0.48509  1.0000
  H   H1646     1.0  0.25580  0.79311  0.94024  1.0000
  H   H1647     1.0  0.28552  0.78121  0.81771  1.0000
  H   H1648     1.0  0.31799  0.68793  0.88658  1.0000
  S   S376      1.0  0.25525  0.90067  0.77013  1.0000
  S   S377      1.0  0.24904  0.93156  0.73611  1.0000
  C   C1377     1.0  0.27962  0.79789  0.79407  1.0000
  H   H1649     1.0  0.26145  0.98120  0.82354  1.0000
  C   C1378     1.0  0.26147  0.77822  0.81277  1.0000
  C   C1379     1.0  0.26902  0.70938  0.62598  1.0000
  C   C1380     1.0  0.29814  0.75753  0.91921  1.0000
  C   C1381     1.0  0.30927  0.74639  0.92989  1.0000
  C   C1382     1.0  0.31318  0.75202  0.94318  1.0000
  C   C1383     1.0  0.30611  0.76892  0.94577  1.0000
  C   C1384     1.0  0.29491  0.78006  0.93517  1.0000
  C   C1385     1.0  0.29086  0.77436  0.92196  1.0000
  H   H1650     1.0  0.31479  0.73329  0.92809  1.0000
  H   H1651     1.0  0.32184  0.74338  0.95128  1.0000
  H   H1652     1.0  0.28939  0.79316  0.93715  1.0000
  H   H1653     1.0  0.28227  0.78307  0.91383  1.0000
  Fe  Fe184     1.0  0.25112  0.76147  0.86431  1.0000
  H   H1654     1.0  0.29864  0.92790  0.77884  1.0000
  H   H1655     1.0  0.29266  0.71651  0.95056  1.0000
  Fe  Fe185     1.0  0.24952  0.71364  0.54618  1.0000
  C   C1386     1.0  0.26452  0.82880  0.81923  1.0000
  C   C1387     1.0  0.27181  0.84216  0.80736  1.0000
  C   C1388     1.0  0.26426  0.85138  0.79308  1.0000
  H   H1656     1.0  0.26775  0.92343  0.67280  1.0000
  C   C1389     1.0  0.24943  0.84719  0.79052  1.0000
  H   H1657     1.0  0.28355  0.84517  0.80903  1.0000
  H   H1658     1.0  0.27026  0.86131  0.78373  1.0000
  C   C1390     1.0  0.28371  0.69363  0.96611  1.0000
  C   C1391     1.0  0.26781  0.80353  0.78296  1.0000
  H   H1659     1.0  0.25608  0.87165  0.84906  1.0000
  H   H1660     1.0  0.39020  0.77657  0.48745  1.0000
  H   H1661     1.0  0.29097  0.80372  0.79144  1.0000
  H   H1662     1.0  0.30762  0.91057  0.67185  1.0000
  N   N90       1.0  0.25616  0.74977  0.97434  1.0000
  C   C1392     1.0  0.30965  0.92824  0.73246  1.0000
  C   C1393     1.0  0.32785  0.92456  0.73063  1.0000
  C   C1394     1.0  0.33724  0.93791  0.72562  1.0000
  C   C1395     1.0  0.32857  0.95522  0.72261  1.0000
  C   C1396     1.0  0.31028  0.95907  0.72429  1.0000
  C   C1397     1.0  0.30080  0.94556  0.72909  1.0000
  H   H1663     1.0  0.33481  0.91123  0.73306  1.0000
  H   H1664     1.0  0.35134  0.93478  0.72419  1.0000
  H   H1665     1.0  0.30349  0.97238  0.72144  1.0000
  H   H1666     1.0  0.28676  0.94856  0.73017  1.0000
  C   C1398     1.0  0.30571  0.75031  0.54418  1.0000
  C   C1399     1.0  0.32009  0.75622  0.54556  1.0000
  C   C1400     1.0  0.32656  0.76942  0.53270  1.0000
  C   C1401     1.0  0.31889  0.77662  0.51821  1.0000
  C   C1402     1.0  0.30453  0.77075  0.51672  1.0000
  C   C1403     1.0  0.29787  0.75769  0.52978  1.0000
  H   H1667     1.0  0.32618  0.75064  0.55667  1.0000
  H   H1668     1.0  0.33761  0.77397  0.53395  1.0000
  H   H1669     1.0  0.29845  0.77632  0.50561  1.0000
  H   H1670     1.0  0.28679  0.75329  0.52859  1.0000
  H   H1671     1.0  0.27294  0.68998  0.60311  1.0000
  C   C1404     1.0  0.29768  0.91353  0.68353  1.0000
  C   C1405     1.0  0.26442  0.84645  0.53559  1.0000
  H   H1672     1.0  0.29709  0.71425  0.92106  1.0000
  H   H1673     1.0  0.29619  0.68785  0.59550  1.0000
  H   H1674     1.0  0.33288  0.95470  0.68678  1.0000
  C   C1406     1.0  0.33981  0.67920  0.95528  1.0000
  Fe  Fe186     1.0  0.24606  0.88377  0.75777  1.0000
  C   C1407     1.0  0.27671  0.95444  0.79406  1.0000
  H   H1675     1.0  0.31558  0.68641  0.63354  1.0000
  C   C1408     1.0  0.28551  0.93263  0.77536  1.0000
  S   S378      1.0  0.24928  0.73746  0.58152  1.0000
  C   C1409     1.0  0.32712  0.71221  0.89589  1.0000
  C   C1410     1.0  0.27498  0.68294  0.48651  1.0000
  H   H1676     1.0  0.30067  0.71439  0.62533  1.0000
  C   C1411     1.0  0.30021  0.70440  0.91284  1.0000
  C   C1412     1.0  0.29132  0.96200  0.78463  1.0000
  H   H1677     1.0  0.29510  0.82456  0.52980  1.0000
  C   C1413     1.0  0.28397  0.65448  0.64550  1.0000
  N   N91       1.0  0.28599  0.69953  0.61794  1.0000
  H   H1678     1.0  0.34397  0.71021  0.91908  1.0000
  H   H1679     1.0  0.29176  0.83960  0.51026  1.0000
  H   H1680     1.0  0.37689  0.97732  0.71514  1.0000
  H   H1681     1.0  0.28205  0.92140  0.77240  1.0000
  C   C1414     1.0  0.29077  0.68278  0.62974  1.0000
  S   S379      1.0  0.24693  0.70028  0.52651  1.0000
  H   H1682     1.0  0.27033  0.84267  0.54730  1.0000
  H   H1683     1.0  0.34445  0.67475  0.96737  1.0000
  C   C1415     1.0  0.24900  0.78383  0.80188  1.0000
  H   H1684     1.0  0.31205  0.70436  0.60690  1.0000
  H   H1685     1.0  0.32130  0.71676  0.88409  1.0000
  C   C1416     1.0  0.32089  0.67775  0.93706  1.0000
  C   C1417     1.0  0.24866  0.78850  0.56216  1.0000
  S   S380      1.0  0.26958  0.69416  0.95263  1.0000
  H   H1686     1.0  0.26093  0.73553  0.95393  1.0000
  H   H1687     1.0  0.30016  0.95748  0.77355  1.0000
  C   C1418     1.0  0.32754  0.67154  0.95224  1.0000
  N   N92       1.0  0.27222  0.93987  0.78940  1.0000
  H   H1688     1.0  0.31577  0.67293  0.90673  1.0000
  S   S381      1.0  0.24691  0.73989  0.85403  1.0000
  H   H1689     1.0  0.29309  0.69391  0.92018  1.0000
  C   C1419     1.0  0.28416  0.69630  0.60141  1.0000
  N   N93       1.0  0.31937  0.69796  0.90825  1.0000
  H   H1690     1.0  0.30451  0.91069  0.69453  1.0000
  C   C1420     1.0  0.27303  0.80040  0.54311  1.0000
  C   C1421     1.0  0.32265  0.68351  0.89904  1.0000
  H   H1691     1.0  0.28692  0.79794  0.53783  1.0000
  H   H1692     1.0  0.29009  0.95884  0.65086  1.0000
  C   C1422     1.0  0.33911  0.69929  0.92779  1.0000
  H   H1693     1.0  0.35469  0.69931  0.94584  1.0000
  C   C1423     1.0  0.25023  0.66524  0.60683  1.0000
  C   C1424     1.0  0.26642  0.78655  0.55469  1.0000
  Fe  Fe187     1.0  0.25355  0.67340  0.96255  1.0000
  H   H1694     1.0  0.26504  0.72212  0.61749  1.0000
  H   H1695     1.0  0.27761  0.76008  0.97670  1.0000
  H   H1696     1.0  0.25956  0.76856  0.82455  1.0000
  H   H1697     1.0  0.27511  0.77419  0.55790  1.0000
  H   H1698     1.0  0.30318  0.73971  0.50260  1.0000
  C   C1425     1.0  0.32659  0.69172  0.92426  1.0000
  H   H1699     1.0  0.33689  0.67774  0.89613  1.0000
  C   C1426     1.0  0.25113  0.65522  0.89868  1.0000
  C   C1427     1.0  0.29909  0.71076  0.61360  1.0000
  C   C1428     1.0  0.25913  0.83728  0.51176  1.0000
  H   H1700     1.0  0.25948  0.92918  0.81536  1.0000
  S   S382      1.0  0.26853  0.89288  0.50774  1.0000
  H   H1701     1.0  0.28183  0.70859  0.59175  1.0000
  S   S383      1.0  0.24760  0.75885  0.89290  1.0000
  H   H1702     1.0  0.26974  0.67518  0.48026  1.0000
  H   H1703     1.0  0.24882  0.71102  0.48920  1.0000
  C   C1429     1.0  0.26591  0.96194  0.80810  1.0000
  N   N94       1.0  0.26823  0.83178  0.52657  1.0000
  C   C1430     1.0  0.38018  0.77138  0.48424  1.0000
  H   H1704     1.0  0.29438  0.71068  0.90120  1.0000
  N   N95       1.0  0.28786  0.93171  0.68024  1.0000
  C   C1431     1.0  0.27622  0.93546  0.69665  1.0000
  C   C1432     1.0  0.27656  0.93298  0.66789  1.0000
  C   C1433     1.0  0.31045  0.66191  0.64744  1.0000
  C   C1434     1.0  0.30011  0.94385  0.67408  1.0000
  C   C1435     1.0  0.29946  0.95705  0.65890  1.0000
  C   C1436     1.0  0.31261  0.94329  0.68389  1.0000
  C   C1437     1.0  0.31051  0.96898  0.65407  1.0000
  C   C1438     1.0  0.32364  0.95523  0.67890  1.0000
  C   C1439     1.0  0.32254  0.96810  0.66407  1.0000
  H   H1705     1.0  0.26877  0.94910  0.69486  1.0000
  H   H1706     1.0  0.26652  0.92687  0.70148  1.0000
  H   H1707     1.0  0.28357  0.93346  0.70708  1.0000
  H   H1708     1.0  0.26758  0.94586  0.66602  1.0000
  H   H1709     1.0  0.28665  0.94235  0.76305  1.0000
  H   H1710     1.0  0.28446  0.93059  0.65509  1.0000
  C   C1440     1.0  0.24649  0.79932  0.49969  1.0000
  H   H1711     1.0  0.28879  0.90411  0.68715  1.0000
  H   H1712     1.0  0.27889  0.74439  0.95459  1.0000
  H   H1713     1.0  0.25547  0.85438  0.83959  1.0000
  H   H1714     1.0  0.31366  0.93385  0.69575  1.0000
  H   H1715     1.0  0.24802  0.89414  0.48275  1.0000
  C   C1441     1.0  0.25537  0.94598  0.78345  1.0000
  H   H1716     1.0  0.34150  0.70812  0.89154  1.0000
  C   C1442     1.0  0.26441  0.74686  0.95662  1.0000
  H   H1717     1.0  0.29876  0.86938  0.49406  1.0000
  H   H1718     1.0  0.29768  0.71123  0.51985  1.0000
  H   H1719     1.0  0.25811  0.70243  0.62839  1.0000
  H   H1720     1.0  0.26759  0.91411  0.80137  1.0000
  H   H1721     1.0  0.26967  0.71177  0.63865  1.0000
  C   C1443     1.0  0.24934  0.82499  0.81701  1.0000
  H   H1722     1.0  0.26647  0.68268  0.49962  1.0000
  H   H1723     1.0  0.26764  0.67328  0.63013  1.0000
  C   C1444     1.0  0.30633  0.67800  0.63651  1.0000
  H   H1724     1.0  0.28559  0.98002  0.68816  1.0000
  C   C1445     1.0  0.28737  0.82812  0.51941  1.0000
  C   C1446     1.0  0.26185  0.81673  0.53870  1.0000
  H   H1725     1.0  0.31287  0.71618  0.96913  1.0000
  H   H1726     1.0  0.25836  0.78992  0.49647  1.0000
  C   C1447     1.0  0.27289  0.88258  0.49016  1.0000
  H   H1727     1.0  0.26155  0.77576  0.96704  1.0000
  H   H1728     1.0  0.24910  0.68625  0.90097  1.0000
  C   C1448     1.0  0.28274  0.71125  0.48380  1.0000
  C   C1449     1.0  0.29747  0.73187  0.49747  1.0000
  C   C1450     1.0  0.27041  0.92548  0.80469  1.0000
  H   H1729     1.0  0.26045  0.75842  0.94666  1.0000
  H   H1730     1.0  0.25357  0.95074  0.57150  1.0000
  H   H1731     1.0  0.25013  0.85125  0.53983  1.0000
  H   H1732     1.0  0.26473  0.84962  0.85845  1.0000
  C   C1451     1.0  0.29495  0.97595  0.78929  1.0000
  H   H1733     1.0  0.31086  0.67181  0.93568  1.0000
  C   C1452     1.0  0.28423  0.98280  0.80330  1.0000
  C   C1453     1.0  0.25391  0.85817  0.85220  1.0000
  H   H1734     1.0  0.27002  0.81381  0.77172  1.0000
  H   H1735     1.0  0.30611  0.98162  0.78193  1.0000
  H   H1736     1.0  0.41475  0.98237  0.69704  1.0000
  H   H1737     1.0  0.25190  0.65638  0.91180  1.0000
  S   S384      1.0  0.25906  0.98110  0.66997  1.0000
  H   H1738     1.0  0.25609  0.95703  0.77219  1.0000
  C   C1454     1.0  0.26974  0.97582  0.81266  1.0000
  H   H1739     1.0  0.26104  0.82640  0.50509  1.0000
  H   H1740     1.0  0.25166  0.93557  0.77935  1.0000
  H   H1741     1.0  0.25250  0.97793  0.92843  1.0000
  C   C1455     1.0  0.26031  0.88513  0.48016  1.0000
  H   H1742     1.0  0.25456  0.97398  0.90717  1.0000
  H   H1743     1.0  0.28847  0.67593  0.48781  1.0000
  H   H1744     1.0  0.25518  0.67113  0.59361  1.0000
  C   C1456     1.0  0.26322  0.76382  0.97724  1.0000
  C   C1457     1.0  0.25268  0.79668  0.78673  1.0000
  H   H1745     1.0  0.32267  0.66113  0.96203  1.0000
  H   H1746     1.0  0.26048  0.66233  0.88874  1.0000
  H   H1747     1.0  0.24533  0.82887  0.87126  1.0000
  H   H1748     1.0  0.24532  0.75093  0.81799  1.0000
  Fe  Fe188     1.0  0.72253  0.04656  0.12882  1.0000
  S   S385      1.0  0.71149  0.03628  0.11178  1.0000
  S   S386      1.0  0.71326  0.07431  0.13131  1.0000
  S   S387      1.0  0.70038  0.00294  0.32694  1.0000
  Fe  Fe189     1.0  0.71124  0.01239  0.13285  1.0000
  S   S388      1.0  0.64227  0.25321  0.99290  1.0000
  S   S389      1.0  0.71951  0.02409  0.15091  1.0000
  H   H1749     1.0  0.68075  0.01180  0.43223  1.0000
  C   C1458     1.0  0.67235  0.14776  0.45774  1.0000
  Fe  Fe190     1.0  0.71752  0.14232  0.02581  1.0000
  S   S390      1.0  0.70548  0.12588  0.01574  1.0000
  S   S391      1.0  0.70848  0.14621  0.05313  1.0000
  H   H1750     1.0  0.73289  0.08528  0.29418  1.0000
  C   C1459     1.0  0.65476  0.17444  0.46616  1.0000
  H   H1751     1.0  0.67438  0.05609  0.28507  1.0000
  H   H1752     1.0  0.67119  0.00526  0.22799  1.0000
  C   C1460     1.0  0.74134  0.30326  0.40445  1.0000
  S   S392      1.0  0.60994  0.23240  0.03215  1.0000
  C   C1461     1.0  0.67332  0.98985  0.28149  1.0000
  Fe  Fe191     1.0  0.71516  0.02100  0.33084  1.0000
  S   S393      1.0  0.69158  0.04096  0.33847  1.0000
  H   H1753     1.0  0.69281  0.01618  0.04844  1.0000
  Fe  Fe192     1.0  0.69245  0.02668  0.36579  1.0000
  S   S394      1.0  0.68517  0.04189  0.38765  1.0000
  Fe  Fe193     1.0  0.67669  0.02181  0.33684  1.0000
  S   S395      1.0  0.65506  0.03210  0.32184  1.0000
  C   C1462     1.0  0.64219  0.20349  0.00865  1.0000
  Fe  Fe194     1.0  0.60723  0.01205  0.25094  1.0000
  S   S396      1.0  0.59144  0.00014  0.27610  1.0000
  S   S397      1.0  0.60560  0.04031  0.23828  1.0000
  H   H1754     1.0  0.69004  0.23274  0.39056  1.0000
  H   H1755     1.0  0.70365  0.20300  0.21254  1.0000
  C   C1463     1.0  0.65027  0.29048  0.43119  1.0000
  H   H1756     1.0  0.67818  0.20548  0.06534  1.0000
  H   H1757     1.0  0.74196  0.00483  0.43814  1.0000
  C   C1464     1.0  0.67806  0.03462  0.17856  1.0000
  Fe  Fe195     1.0  0.70879  0.22494  0.07861  1.0000
  S   S398      1.0  0.68882  0.21228  0.09911  1.0000
  S   S399      1.0  0.72874  0.21434  0.05716  1.0000
  Fe  Fe196     1.0  0.69737  0.25870  0.09104  1.0000
  S   S400      1.0  0.67656  0.24925  0.11294  1.0000
  S   S401      1.0  0.70425  0.28505  0.08270  1.0000
  Fe  Fe197     1.0  0.69656  0.22453  0.11700  1.0000
  S   S402      1.0  0.70407  0.20923  0.14217  1.0000
  Fe  Fe198     1.0  0.67046  0.23771  0.09324  1.0000
  S   S403      1.0  0.64228  0.23908  0.09302  1.0000
  S   S404      1.0  0.71801  0.23526  0.09686  1.0000
  S   S405      1.0  0.68959  0.24913  0.07109  1.0000
  C   C1465     1.0  0.67352  0.00010  0.21603  1.0000
  Fe  Fe199     1.0  0.71041  0.31523  0.38116  1.0000
  Fe  Fe200     1.0  0.71520  0.09810  0.20769  1.0000
  S   S406      1.0  0.68940  0.09814  0.20185  1.0000
  C   C1466     1.0  0.71027  0.00835  0.08416  1.0000
  Fe  Fe201     1.0  0.69853  0.11611  0.23776  1.0000
  S   S407      1.0  0.67133  0.11805  0.23435  1.0000
  S   S408      1.0  0.70170  0.12449  0.26081  1.0000
  Fe  Fe202     1.0  0.68064  0.09058  0.23066  1.0000
  S   S409      1.0  0.66912  0.06787  0.24739  1.0000
  Fe  Fe203     1.0  0.68262  0.12564  0.20588  1.0000
  S   S410      1.0  0.66790  0.14742  0.18817  1.0000
  S   S411      1.0  0.70721  0.08825  0.23601  1.0000
  S   S412      1.0  0.70915  0.12594  0.20979  1.0000
  C   C1467     1.0  0.73541  0.07201  0.04414  1.0000
  H   H1758     1.0  0.65223  0.17043  0.02474  1.0000
  H   H1759     1.0  0.73883  0.19472  0.03015  1.0000
  S   S413      1.0  0.68457  0.28746  0.36956  1.0000
  C   C1468     1.0  0.66115  0.17531  0.01265  1.0000
  H   H1760     1.0  0.67465  0.16783  0.01354  1.0000
  H   H1761     1.0  0.68195  0.20964  0.43770  1.0000
  H   H1762     1.0  0.65753  0.17201  0.00170  1.0000
  C   C1469     1.0  0.72280  0.12686  0.26074  1.0000
  C   C1470     1.0  0.72735  0.12610  0.27646  1.0000
  Fe  Fe204     1.0  0.62735  0.27909  0.98191  1.0000
  H   H1763     1.0  0.54832  0.02353  0.26489  1.0000
  S   S414      1.0  0.74046  0.08551  0.19276  1.0000
  C   C1471     1.0  0.72713  0.04484  0.40588  1.0000
  H   H1764     1.0  0.71806  0.12358  0.28851  1.0000
  N   N96       1.0  0.67720  0.07675  0.29585  1.0000
  N   N97       1.0  0.66434  0.01224  0.20265  1.0000
  C   C1472     1.0  0.72562  0.00519  0.05545  1.0000
  C   C1473     1.0  0.69433  0.19148  0.15371  1.0000
  C   C1474     1.0  0.67768  0.19045  0.15230  1.0000
  C   C1475     1.0  0.66963  0.17696  0.16306  1.0000
  C   C1476     1.0  0.67844  0.16406  0.17471  1.0000
  C   C1477     1.0  0.69532  0.16481  0.17560  1.0000
  C   C1478     1.0  0.70309  0.17861  0.16538  1.0000
  H   H1765     1.0  0.67073  0.20044  0.14348  1.0000
  H   H1766     1.0  0.65644  0.17669  0.16256  1.0000
  H   H1767     1.0  0.70231  0.15497  0.18433  1.0000
  H   H1768     1.0  0.71594  0.17939  0.16656  1.0000
  C   C1479     1.0  0.71816  0.28796  0.09476  1.0000
  H   H1769     1.0  0.64732  0.23374  0.44004  1.0000
  H   H1770     1.0  0.62966  0.20644  0.11683  1.0000
  C   C1480     1.0  0.72391  0.11040  0.38863  1.0000
  C   C1481     1.0  0.53983  0.00730  0.23547  1.0000
  C   C1482     1.0  0.71829  0.27855  0.11166  1.0000
  C   C1483     1.0  0.69274  0.10881  0.39677  1.0000
  C   C1484     1.0  0.52609  0.00016  0.23462  1.0000
  H   H1771     1.0  0.70997  0.26916  0.11734  1.0000
  H   H1772     1.0  0.70272  0.13761  0.13147  1.0000
  H   H1773     1.0  0.69870  0.15742  0.11617  1.0000
  C   C1485     1.0  0.65420  0.19080  0.10706  1.0000
  H   H1774     1.0  0.69107  0.15716  0.13885  1.0000
  N   N98       1.0  0.67594  0.14584  0.12800  1.0000
  C   C1486     1.0  0.69534  0.01898  0.06019  1.0000
  H   H1775     1.0  0.66879  0.13962  0.15590  1.0000
  C   C1487     1.0  0.70241  0.25535  0.01079  1.0000
  C   C1488     1.0  0.73663  0.04696  0.33504  1.0000
  C   C1489     1.0  0.66500  0.28772  0.43841  1.0000
  S   S415      1.0  0.71339  0.08059  0.47394  1.0000
  C   C1490     1.0  0.73197  0.16943  0.47766  1.0000
  C   C1491     1.0  0.66911  0.19304  0.20248  1.0000
  C   C1492     1.0  0.54758  0.05090  0.23779  1.0000
  C   C1493     1.0  0.67255  0.03788  0.20834  1.0000
  C   C1494     1.0  0.62282  0.04862  0.24091  1.0000
  C   C1495     1.0  0.62776  0.06347  0.22952  1.0000
  C   C1496     1.0  0.64191  0.06971  0.23132  1.0000
  C   C1497     1.0  0.65108  0.06110  0.24456  1.0000
  C   C1498     1.0  0.64604  0.04633  0.25592  1.0000
  C   C1499     1.0  0.63200  0.04014  0.25411  1.0000
  H   H1776     1.0  0.62074  0.07010  0.21925  1.0000
  H   H1777     1.0  0.64574  0.08110  0.22247  1.0000
  H   H1778     1.0  0.65296  0.03969  0.26629  1.0000
  H   H1779     1.0  0.62804  0.02900  0.26322  1.0000
  S   S416      1.0  0.71729  0.12129  0.46770  1.0000
  C   C1500     1.0  0.64551  0.01692  0.21046  1.0000
  S   S417      1.0  0.65050  0.30041  0.40931  1.0000
  C   C1501     1.0  0.63004  0.29837  0.05576  1.0000
  H   H1780     1.0  0.72912  0.01817  0.05245  1.0000
  S   S418      1.0  0.74376  0.08546  0.00839  1.0000
  H   H1781     1.0  0.66161  0.06548  0.31969  1.0000
  H   H1782     1.0  0.65148  0.26687  0.36371  1.0000
  H   H1783     1.0  0.71493  0.09578  0.09665  1.0000
  H   H1784     1.0  0.57795  0.03509  0.22229  1.0000
  C   C1502     1.0  0.69892  0.04743  0.39859  1.0000
  C   C1503     1.0  0.69133  0.05856  0.41041  1.0000
  H   H1785     1.0  0.67741  0.06382  0.41235  1.0000
  C   C1504     1.0  0.64612  0.01614  0.31808  1.0000
  C   C1505     1.0  0.64913  0.99914  0.32752  1.0000
  C   C1506     1.0  0.71503  0.24073  0.01515  1.0000
  H   H1786     1.0  0.68790  0.99713  0.21099  1.0000
  C   C1507     1.0  0.72861  0.28186  0.12155  1.0000
  C   C1508     1.0  0.69073  0.21732  0.19206  1.0000
  C   C1509     1.0  0.62014  0.23423  0.04825  1.0000
  C   C1510     1.0  0.63609  0.23981  0.04446  1.0000
  C   C1511     1.0  0.64366  0.24066  0.05806  1.0000
  C   C1512     1.0  0.63497  0.23641  0.07535  1.0000
  C   C1513     1.0  0.61912  0.23091  0.07894  1.0000
  C   C1514     1.0  0.61192  0.22955  0.06552  1.0000
  H   H1787     1.0  0.65591  0.24498  0.05513  1.0000
  H   H1788     1.0  0.61224  0.22776  0.09221  1.0000
  H   H1789     1.0  0.59965  0.22522  0.06856  1.0000
  H   H1790     1.0  0.63281  0.29210  0.09820  1.0000
  H   H1791     1.0  0.62208  0.01093  0.29140  1.0000
  C   C1515     1.0  0.71599  0.16399  0.05470  1.0000
  C   C1516     1.0  0.72651  0.17261  0.04042  1.0000
  C   C1517     1.0  0.73985  0.30283  0.09718  1.0000
  C   C1518     1.0  0.72566  0.19396  0.05678  1.0000
  C   C1519     1.0  0.71639  0.18453  0.07143  1.0000
  C   C1520     1.0  0.71138  0.16965  0.07035  1.0000
  H   H1792     1.0  0.53737  0.05347  0.24943  1.0000
  H   H1793     1.0  0.65022  0.31171  0.08146  1.0000
  H   H1794     1.0  0.71318  0.18862  0.08361  1.0000
  H   H1795     1.0  0.70393  0.16255  0.08156  1.0000
  C   C1521     1.0  0.72209  0.07770  0.14744  1.0000
  H   H1796     1.0  0.52833  0.98648  0.23435  1.0000
  H   H1797     1.0  0.72673  0.08432  0.04544  1.0000
  S   S419      1.0  0.61320  0.23641  0.98301  1.0000
  C   C1522     1.0  0.72260  0.09608  0.16647  1.0000
  C   C1523     1.0  0.71639  0.09347  0.15294  1.0000
  H   H1798     1.0  0.60936  0.27458  0.04077  1.0000
  H   H1799     1.0  0.64980  0.19720  0.06838  1.0000
  H   H1800     1.0  0.71782  0.10816  0.17098  1.0000
  H   H1801     1.0  0.70700  0.10355  0.14691  1.0000
  H   H1802     1.0  0.67208  0.21366  0.99059  1.0000
  H   H1803     1.0  0.72561  0.04139  0.34252  1.0000
  H   H1804     1.0  0.71467  0.11355  0.07838  1.0000
  H   H1805     1.0  0.69929  0.22659  0.18773  1.0000
  H   H1806     1.0  0.68813  0.03019  0.44769  1.0000
  C   C1524     1.0  0.67749  0.21891  0.18327  1.0000
  Fe  Fe205     1.0  0.70804  0.14576  0.99082  1.0000
  H   H1807     1.0  0.69837  0.20860  0.03698  1.0000
  H   H1808     1.0  0.64173  0.19190  0.04366  1.0000
  N   N99       1.0  0.68618  0.17605  0.22598  1.0000
  C   C1525     1.0  0.70478  0.16704  0.22244  1.0000
  C   C1526     1.0  0.68266  0.18248  0.24228  1.0000
  C   C1527     1.0  0.67526  0.16295  0.22887  1.0000
  H   H1809     1.0  0.71400  0.17502  0.22274  1.0000
  H   H1810     1.0  0.70738  0.15503  0.23234  1.0000
  H   H1811     1.0  0.70842  0.16340  0.20952  1.0000
  H   H1812     1.0  0.68500  0.17161  0.25347  1.0000
  H   H1813     1.0  0.66884  0.18949  0.24534  1.0000
  H   H1814     1.0  0.67735  0.15754  0.21706  1.0000
  H   H1815     1.0  0.67845  0.15181  0.23954  1.0000
  H   H1816     1.0  0.66107  0.16845  0.23271  1.0000
  H   H1817     1.0  0.64057  0.21743  0.00874  1.0000
  H   H1818     1.0  0.63210  0.19836  0.01943  1.0000
  H   H1819     1.0  0.68545  0.19190  0.99235  1.0000
  H   H1820     1.0  0.69785  0.00887  0.09401  1.0000
  S   S420      1.0  0.63297  0.99534  0.25567  1.0000
  C   C1528     1.0  0.66402  0.29259  0.01671  1.0000
  C   C1529     1.0  0.69392  0.99711  0.40230  1.0000
  H   H1821     1.0  0.73051  0.17936  0.45086  1.0000
  H   H1822     1.0  0.64335  0.02276  0.22197  1.0000
  H   H1823     1.0  0.65643  0.20811  0.18156  1.0000
  H   H1824     1.0  0.69109  0.20367  0.01177  1.0000
  H   H1825     1.0  0.64881  0.27949  0.00783  1.0000
  Fe  Fe206     1.0  0.69456  0.31098  0.35333  1.0000
  C   C1530     1.0  0.65487  0.28319  0.06885  1.0000
  H   H1826     1.0  0.66187  0.28157  0.07952  1.0000
  H   H1827     1.0  0.74457  0.17273  0.47612  1.0000
  C   C1531     1.0  0.62907  0.31306  0.04193  1.0000
  C   C1532     1.0  0.65423  0.29093  0.00536  1.0000
  H   H1828     1.0  0.49886  0.00480  0.23373  1.0000
  H   H1829     1.0  0.67594  0.22921  0.17203  1.0000
  N   N100      1.0  0.70265  0.98592  0.41636  1.0000
  N   N101      1.0  0.55219  0.03217  0.23718  1.0000
  H   H1830     1.0  0.66890  0.98761  0.22032  1.0000
  H   H1831     1.0  0.72309  0.30650  0.45713  1.0000
  C   C1533     1.0  0.50949  0.01045  0.23431  1.0000
  Fe  Fe207     1.0  0.72564  0.08175  0.44559  1.0000
  S   S421      1.0  0.72148  0.30123  0.35922  1.0000
  H   H1832     1.0  0.71856  0.02685  0.45080  1.0000
  C   C1534     1.0  0.71027  0.10119  0.39140  1.0000
  H   H1833     1.0  0.62353  0.28749  0.43610  1.0000
  H   H1834     1.0  0.66419  0.28637  0.05644  1.0000
  C   C1535     1.0  0.65936  0.23831  0.43968  1.0000
  S   S422      1.0  0.68761  0.99981  0.14422  1.0000
  C   C1536     1.0  0.67175  0.02815  0.19641  1.0000
  C   C1537     1.0  0.72982  0.23583  0.00275  1.0000
  H   H1835     1.0  0.71399  0.30054  0.04071  1.0000
  H   H1836     1.0  0.54295  0.05892  0.22595  1.0000
  H   H1837     1.0  0.62270  0.27326  0.46702  1.0000
  C   C1538     1.0  0.70822  0.16841  0.46517  1.0000
  H   H1838     1.0  0.68993  0.05433  0.15955  1.0000
  S   S423      1.0  0.73934  0.14120  0.42132  1.0000
  C   C1539     1.0  0.64495  0.26388  0.39144  1.0000
  C   C1540     1.0  0.65549  0.26028  0.37584  1.0000
  H   H1839     1.0  0.63281  0.27339  0.39139  1.0000
  H   H1840     1.0  0.69975  0.03159  0.05632  1.0000
  H   H1841     1.0  0.68230  0.14118  0.44856  1.0000
  C   C1541     1.0  0.64220  0.98646  0.32406  1.0000
  S   S424      1.0  0.60047  0.27412  0.99513  1.0000
  S   S425      1.0  0.72348  0.25085  0.38094  1.0000
  Fe  Fe208     1.0  0.74429  0.14973  0.99268  1.0000
  C   C1542     1.0  0.71883  0.12767  0.39139  1.0000
  N   N102      1.0  0.63882  0.29688  0.07019  1.0000
  H   H1842     1.0  0.69548  0.07136  0.42897  1.0000
  H   H1843     1.0  0.56972  0.02808  0.25463  1.0000
  H   H1844     1.0  0.70230  0.17096  0.45398  1.0000
  H   H1845     1.0  0.56198  0.03668  0.20963  1.0000
  H   H1846     1.0  0.68772  0.04933  0.30112  1.0000
  H   H1847     1.0  0.72877  0.30762  0.07458  1.0000
  C   C1543     1.0  0.65068  0.30451  0.99146  1.0000
  H   H1848     1.0  0.69277  0.23722  0.43630  1.0000
  H   H1849     1.0  0.67783  0.99795  0.26870  1.0000
  H   H1850     1.0  0.65099  0.07172  0.30175  1.0000
  C   C1544     1.0  0.66737  0.16589  0.45413  1.0000
  C   C1545     1.0  0.67464  0.20321  0.05423  1.0000
  H   H1851     1.0  0.61416  0.30115  0.08803  1.0000
  H   H1852     1.0  0.71427  0.02099  0.08194  1.0000
  C   C1546     1.0  0.67394  0.09056  0.28056  1.0000
  C   C1547     1.0  0.69003  0.08073  0.30376  1.0000
  C   C1548     1.0  0.70736  0.08133  0.29432  1.0000
  C   C1549     1.0  0.68578  0.08445  0.32068  1.0000
  C   C1550     1.0  0.71967  0.08515  0.30146  1.0000
  C   C1551     1.0  0.69821  0.08831  0.32765  1.0000
  C   C1552     1.0  0.71506  0.08878  0.31802  1.0000
  C   C1553     1.0  0.73464  0.06475  0.15496  1.0000
  C   C1554     1.0  0.73478  0.08298  0.17432  1.0000
  C   C1555     1.0  0.70894  0.30889  0.45925  1.0000
  C   C1556     1.0  0.73485  0.13015  0.24520  1.0000
  C   C1557     1.0  0.72411  0.17313  0.46340  1.0000
  H   H1853     1.0  0.65327  0.08815  0.31158  1.0000
  H   H1854     1.0  0.68597  0.09135  0.27040  1.0000
  H   H1855     1.0  0.72907  0.06006  0.07143  1.0000
  H   H1856     1.0  0.66921  0.10351  0.28416  1.0000
  H   H1857     1.0  0.71150  0.07892  0.28130  1.0000
  H   H1858     1.0  0.67302  0.08420  0.32894  1.0000
  H   H1859     1.0  0.67785  0.02829  0.16844  1.0000
  H   H1860     1.0  0.69482  0.09076  0.34070  1.0000
  C   C1558     1.0  0.72858  0.00588  0.43703  1.0000
  C   C1559     1.0  0.66656  0.20695  0.18863  1.0000
  S   S426      1.0  0.73288  0.06024  0.42998  1.0000
  H   H1861     1.0  0.72301  0.03217  0.38721  1.0000
  H   H1862     1.0  0.72815  0.26362  0.05784  1.0000
  S   S427      1.0  0.70869  0.10730  0.43664  1.0000
  H   H1863     1.0  0.65194  0.27040  0.06945  1.0000
  C   C1560     1.0  0.67710  0.24084  0.39138  1.0000
  C   C1561     1.0  0.73930  0.29411  0.11438  1.0000
  N   N103      1.0  0.74040  0.09984  0.08235  1.0000
  Fe  Fe209     1.0  0.70027  0.99151  0.35499  1.0000
  H   H1864     1.0  0.71277  0.08797  0.38975  1.0000
  C   C1562     1.0  0.61382  0.30006  0.02799  1.0000
  H   H1865     1.0  0.62297  0.18439  0.14334  1.0000
  H   H1866     1.0  0.66748  0.21086  0.42381  1.0000
  H   H1867     1.0  0.65947  0.98942  0.28215  1.0000
  C   C1563     1.0  0.68418  0.05992  0.29016  1.0000
  C   C1564     1.0  0.68274  0.19084  0.21154  1.0000
  C   C1565     1.0  0.55885  0.02275  0.25309  1.0000
  C   C1566     1.0  0.64924  0.27462  0.46628  1.0000
  H   H1868     1.0  0.66406  0.08825  0.27441  1.0000
  C   C1567     1.0  0.70731  0.99684  0.42592  1.0000
  H   H1869     1.0  0.62471  0.27869  0.08936  1.0000
  H   H1870     1.0  0.60807  0.30055  0.01713  1.0000
  H   H1871     1.0  0.65576  0.25216  0.44064  1.0000
  H   H1872     1.0  0.64320  0.15709  0.14899  1.0000
  C   C1568     1.0  0.63871  0.19412  0.11906  1.0000
  N   N104      1.0  0.67279  0.23546  0.42385  1.0000
  H   H1873     1.0  0.71333  0.23310  0.02822  1.0000
  C   C1569     1.0  0.63276  0.99059  0.31077  1.0000
  C   C1570     1.0  0.68510  0.04963  0.17320  1.0000
  C   C1571     1.0  0.67989  0.05267  0.20284  1.0000
  C   C1572     1.0  0.68625  0.05848  0.18531  1.0000
  C   C1573     1.0  0.64683  0.16594  0.13700  1.0000
  H   H1874     1.0  0.72466  0.09179  0.32346  1.0000
  C   C1574     1.0  0.63501  0.18170  0.13396  1.0000
  H   H1875     1.0  0.66053  0.18395  0.20545  1.0000
  C   C1575     1.0  0.62708  0.29205  0.08712  1.0000
  S   S428      1.0  0.67517  0.00904  0.36487  1.0000
  C   C1576     1.0  0.67833  0.21643  0.42501  1.0000
  H   H1876     1.0  0.72538  0.00229  0.04288  1.0000
  H   H1877     1.0  0.68059  0.05971  0.21225  1.0000
  H   H1878     1.0  0.68265  0.02117  0.06944  1.0000
  C   C1577     1.0  0.72176  0.10023  0.08313  1.0000
  H   H1879     1.0  0.67468  0.13147  0.40397  1.0000
  H   H1880     1.0  0.66409  0.23115  0.45175  1.0000
  H   H1881     1.0  0.65805  0.12996  0.14478  1.0000
  H   H1882     1.0  0.66616  0.28231  0.02775  1.0000
  C   C1578     1.0  0.69282  0.14968  0.12860  1.0000
  S   S429      1.0  0.71743  0.00796  0.35814  1.0000
  H   H1883     1.0  0.62314  0.27286  0.06476  1.0000
  C   C1579     1.0  0.65877  0.19844  0.05594  1.0000
  C   C1580     1.0  0.65416  0.19562  0.04158  1.0000
  C   C1581     1.0  0.72897  0.30010  0.08754  1.0000
  H   H1884     1.0  0.69591  0.06023  0.27954  1.0000
  H   H1885     1.0  0.69123  0.19153  0.24156  1.0000
  C   C1582     1.0  0.62953  0.00764  0.30151  1.0000
  C   C1583     1.0  0.70155  0.06286  0.41988  1.0000
  C   C1584     1.0  0.70459  0.26525  0.99404  1.0000
  S   S430      1.0  0.68189  0.31011  0.02891  1.0000
  H   H1886     1.0  0.71584  0.28835  0.01579  1.0000
  C   C1585     1.0  0.68825  0.12574  0.39950  1.0000
  H   H1887     1.0  0.72664  0.25459  0.04043  1.0000
  C   C1586     1.0  0.63611  0.02042  0.30524  1.0000
  C   C1587     1.0  0.69825  0.02013  0.44250  1.0000
  C   C1588     1.0  0.72845  0.29607  0.03894  1.0000
  N   N105      1.0  0.66032  0.19415  0.01002  1.0000
  C   C1589     1.0  0.66532  0.19763  0.02495  1.0000
  H   H1888     1.0  0.73155  0.13057  0.23302  1.0000
  H   H1889     1.0  0.69470  0.27666  0.99069  1.0000
  H   H1890     1.0  0.73757  0.29186  0.00572  1.0000
  H   H1891     1.0  0.68822  0.12392  0.11571  1.0000
  H   H1892     1.0  0.67808  0.17336  0.10037  1.0000
  H   H1893     1.0  0.68433  0.25698  0.42246  1.0000
  Fe  Fe210     1.0  0.61556  0.24753  0.00485  1.0000
  H   H1894     1.0  0.64264  0.24330  0.03115  1.0000
  H   H1895     1.0  0.63365  0.03359  0.29799  1.0000
  Fe  Fe211     1.0  0.69812  0.10706  0.46494  1.0000
  C   C1590     1.0  0.74125  0.25102  0.44993  1.0000
  C   C1591     1.0  0.72452  0.26690  0.04490  1.0000
  H   H1896     1.0  0.67341  0.99669  0.29174  1.0000
  Fe  Fe212     1.0  0.73342  0.09505  0.47520  1.0000
  C   C1592     1.0  0.67186  0.19962  0.99313  1.0000
  H   H1897     1.0  0.66743  0.03419  0.22205  1.0000
  C   C1593     1.0  0.62261  0.28458  0.05494  1.0000
  H   H1898     1.0  0.55914  0.05568  0.23858  1.0000
  C   C1594     1.0  0.61466  0.28544  0.04125  1.0000
  H   H1899     1.0  0.67580  0.27809  0.46149  1.0000
  H   H1900     1.0  0.68263  0.10139  0.39909  1.0000
  C   C1595     1.0  0.73675  0.05831  0.05881  1.0000
  C   C1596     1.0  0.63455  0.27717  0.45906  1.0000
  N   N106      1.0  0.73450  0.27955  0.03263  1.0000
  C   C1597     1.0  0.68154  0.20227  0.02371  1.0000
  H   H1901     1.0  0.69782  0.14822  0.39921  1.0000
  S   S431      1.0  0.64924  0.19714  0.46184  1.0000
  H   H1902     1.0  0.68992  0.21282  0.41491  1.0000
  H   H1903     1.0  0.68446  0.14408  0.10091  1.0000
  H   H1904     1.0  0.65702  0.20065  0.09560  1.0000
  C   C1598     1.0  0.69420  0.00959  0.43351  1.0000
  H   H1905     1.0  0.65837  0.01062  0.17871  1.0000
  H   H1906     1.0  0.69912  0.23975  0.41318  1.0000
  C   C1599     1.0  0.71951  0.05590  0.41778  1.0000
  H   H1907     1.0  0.63822  0.02654  0.20106  1.0000
  C   C1600     1.0  0.69323  0.20363  0.20612  1.0000
  Fe  Fe213     1.0  0.73361  0.11435  0.00594  1.0000
  C   C1601     1.0  0.68597  0.20510  0.03817  1.0000
  C   C1602     1.0  0.66588  0.00275  0.18877  1.0000
  H   H1908     1.0  0.65670  0.99580  0.33756  1.0000
  S   S432      1.0  0.70214  0.29211  0.40027  1.0000
  Fe  Fe214     1.0  0.72966  0.11879  0.44039  1.0000
  C   C1603     1.0  0.66444  0.27994  0.45595  1.0000
  H   H1909     1.0  0.64160  0.25955  0.41862  1.0000
  H   H1910     1.0  0.73917  0.22428  0.00678  1.0000
  C   C1604     1.0  0.67047  0.13379  0.14445  1.0000
  C   C1605     1.0  0.67887  0.13659  0.11364  1.0000
  C   C1606     1.0  0.66616  0.17514  0.10997  1.0000
  H   H1911     1.0  0.68034  0.12157  0.14632  1.0000
  H   H1912     1.0  0.66638  0.13394  0.11241  1.0000
  H   H1913     1.0  0.69207  0.06988  0.18107  1.0000
  C   C1607     1.0  0.66004  0.07557  0.30779  1.0000
  H   H1914     1.0  0.67667  0.29197  0.43064  1.0000
  C   C1608     1.0  0.70127  0.13516  0.39678  1.0000
  S   S433      1.0  0.71718  0.16349  0.00222  1.0000
  C   C1609     1.0  0.68794  0.24260  0.42400  1.0000
  C   C1610     1.0  0.66647  0.24383  0.40756  1.0000
  Fe  Fe215     1.0  0.73954  0.02437  0.10278  1.0000
  C   C1611     1.0  0.65025  0.25580  0.40711  1.0000
  C   C1612     1.0  0.67155  0.24879  0.37581  1.0000
  H   H1915     1.0  0.67350  0.17327  0.44214  1.0000
  Fe  Fe216     1.0  0.71054  0.27909  0.37750  1.0000
  C   C1613     1.0  0.71694  0.04071  0.39626  1.0000
  H   H1916     1.0  0.71017  0.27228  0.04684  1.0000
  H   H1917     1.0  0.63928  0.00537  0.21484  1.0000
  C   C1614     1.0  0.73003  0.28267  0.01537  1.0000
  C   C1615     1.0  0.53736  0.02506  0.23609  1.0000
  H   H1918     1.0  0.73476  0.06245  0.35353  1.0000
  H   H1919     1.0  0.68098  0.00495  0.40716  1.0000
  C   C1616     1.0  0.66291  0.16222  0.12509  1.0000
  H   H1920     1.0  0.67979  0.99885  0.18234  1.0000
  H   H1921     1.0  0.72963  0.98473  0.17454  1.0000
  H   H1922     1.0  0.72823  0.27498  0.13484  1.0000
  H   H1923     1.0  0.63874  0.20264  0.99653  1.0000
  H   H1924     1.0  0.73291  0.27057  0.01036  1.0000
  H   H1925     1.0  0.72042  0.99820  0.09006  1.0000
  H   H1926     1.0  0.56407  0.00877  0.25305  1.0000
  H   H1927     1.0  0.57160  0.01607  0.22103  1.0000
  H   H1928     1.0  0.67752  0.99646  0.08759  1.0000
  C   C1617     1.0  0.56651  0.02990  0.22188  1.0000
  H   H1929     1.0  0.73162  0.29456  0.05180  1.0000
  H   H1930     1.0  0.73786  0.25848  0.43732  1.0000
  C   C1618     1.0  0.70290  0.98801  0.07141  1.0000
  H   H1931     1.0  0.72029  0.09171  0.07505  1.0000
  H   H1932     1.0  0.74144  0.07577  0.39354  1.0000
  H   H1933     1.0  0.51703  0.04883  0.23621  1.0000
  H   H1934     1.0  0.72848  0.13540  0.38977  1.0000
  H   H1935     1.0  0.69091  0.25902  0.02042  1.0000
  C   C1619     1.0  0.73129  0.18768  0.04141  1.0000
  S   S434      1.0  0.73800  0.02856  0.31084  1.0000
  Fe  Fe217     1.0  0.67668  0.30194  0.39133  1.0000
  C   C1620     1.0  0.52024  0.03524  0.23573  1.0000
  H   H1936     1.0  0.73080  0.16783  0.02855  1.0000
  H   H1937     1.0  0.65849  0.31737  0.46570  1.0000
  H   H1938     1.0  0.66739  0.19750  0.98206  1.0000
  H   H1939     1.0  0.70209  0.00642  0.39400  1.0000
  H   H1940     1.0  0.72968  0.24559  0.45778  1.0000
  H   H1941     1.0  0.55242  0.99870  0.23587  1.0000
  H   H1942     1.0  0.68006  0.24654  0.36360  1.0000
  C   C1621     1.0  0.71539  0.01828  0.44427  1.0000
  C   C1622     1.0  0.63501  0.28528  0.44159  1.0000
  C   C1623     1.0  0.66425  0.13817  0.47312  1.0000
  H   H1943     1.0  0.73429  0.30670  0.02972  1.0000
  C   C1624     1.0  0.50656  0.02795  0.23485  1.0000
  N   N107      1.0  0.70854  0.00476  0.06777  1.0000
  C   C1625     1.0  0.67050  0.30772  0.01407  1.0000
  S   S435      1.0  0.60182  0.99505  0.23589  1.0000
  H   H1944     1.0  0.73660  0.99601  0.06096  1.0000
  S   S436      1.0  0.73859  0.99940  0.12264  1.0000
  C   C1626     1.0  0.69910  0.30551  0.47606  1.0000
  H   H1945     1.0  0.73730  0.15453  0.09312  1.0000
  C   C1627     1.0  0.64406  0.31312  0.07024  1.0000
  C   C1628     1.0  0.72470  0.99524  0.42800  1.0000
  H   H1946     1.0  0.74306  0.26076  0.45643  1.0000
  H   H1947     1.0  0.66052  0.99068  0.19394  1.0000
  H   H1948     1.0  0.73919  0.05254  0.15071  1.0000
  H   H1949     1.0  0.73958  0.09469  0.24498  1.0000
  S   S437      1.0  0.67039  0.11559  0.47806  1.0000
  H   H1950     1.0  0.73560  0.98609  0.42257  1.0000
  C   C1629     1.0  0.71936  0.26051  0.98152  1.0000
  H   H1951     1.0  0.73873  0.29685  0.39558  1.0000
  H   H1952     1.0  0.74312  0.22059  0.44153  1.0000
  H   H1953     1.0  0.69153  0.98939  0.39390  1.0000
  C   C1630     1.0  0.67248  0.31505  0.46466  1.0000
  C   C1631     1.0  0.73910  0.14065  0.09807  1.0000
  H   H1954     1.0  0.74100  0.03936  0.40415  1.0000
  C   C1632     1.0  0.73243  0.24553  0.98550  1.0000
  C   C1633     1.0  0.68621  0.98604  0.08181  1.0000
  C   C1634     1.0  0.62095  0.31385  0.02836  1.0000
  C   C1635     1.0  0.74186  0.05890  0.34133  1.0000
  C   C1636     1.0  0.70065  0.31527  0.44519  1.0000
  C   C1637     1.0  0.74132  0.11137  0.09346  1.0000
  C   C1638     1.0  0.74111  0.06745  0.16833  1.0000
  H   H1955     1.0  0.74109  0.11779  0.05750  1.0000
  H   H1956     1.0  0.73880  0.08345  0.37136  1.0000
  C   C1639     1.0  0.74387  0.10496  0.11077  1.0000
  C   C1640     1.0  0.68055  0.30840  0.47931  1.0000
  C   C1641     1.0  0.73850  0.12964  0.08761  1.0000
  H   H1957     1.0  0.73577  0.13562  0.07490  1.0000
  H   H1958     1.0  0.74176  0.07514  0.10040  1.0000
  N   N108      1.0  0.74266  0.10266  0.38335  1.0000
  H   H1959     1.0  0.74295  0.11379  0.35639  1.0000
  C   C1642     1.0  0.74438  0.11608  0.12116  1.0000
  C   C1643     1.0  0.74211  0.13388  0.11479  1.0000
  C   C1644     1.0  0.74501  0.06949  0.02764  1.0000
  C   C1645     1.0  0.74452  0.24748  0.38502  1.0000
  H   H1960     1.0  0.74382  0.27448  0.38241  1.0000
  C   C1646     1.0  0.74389  0.12863  0.27668  1.0000
  H   H1961     1.0  0.74262  0.14243  0.12287  1.0000
  S   S438      1.0  0.73527  0.13295  0.97996  1.0000
  H   H1962     1.0  0.65413  0.31670  0.05853  1.0000
  H   H1963     1.0  0.67098  0.12582  0.94515  1.0000
  Fe  Fe218     1.0  0.64888  0.28448  0.60238  1.0000
  S   S439      1.0  0.64788  0.25882  0.62045  1.0000
  C   C1647     1.0  0.51969  0.15325  0.85207  1.0000
  Fe  Fe219     1.0  0.67204  0.26914  0.57201  1.0000
  S   S440      1.0  0.67230  0.24197  0.58713  1.0000
  S   S441      1.0  0.68758  0.27267  0.54440  1.0000
  Fe  Fe220     1.0  0.64389  0.25111  0.59743  1.0000
  S   S442      1.0  0.62517  0.23365  0.60157  1.0000
  Fe  Fe221     1.0  0.67644  0.25175  0.60879  1.0000
  S   S443      1.0  0.64282  0.27728  0.57997  1.0000
  S   S444      1.0  0.67806  0.27839  0.59312  1.0000
  Fe  Fe222     1.0  0.53004  0.19273  0.78798  1.0000
  S   S445      1.0  0.52313  0.17025  0.80852  1.0000
  H   H1964     1.0  0.59899  0.17442  0.50118  1.0000
  Fe  Fe223     1.0  0.55312  0.16947  0.76410  1.0000
  S   S446      1.0  0.54816  0.14505  0.78304  1.0000
  S   S447      1.0  0.57151  0.16961  0.73849  1.0000
  Fe  Fe224     1.0  0.52000  0.15939  0.78680  1.0000
  H   H1965     1.0  0.62801  0.20767  0.95885  1.0000
  Fe  Fe225     1.0  0.55191  0.15868  0.80261  1.0000
  S   S448      1.0  0.56702  0.14705  0.82458  1.0000
  S   S449      1.0  0.52502  0.18302  0.76668  1.0000
  S   S450      1.0  0.55884  0.18194  0.78302  1.0000
  Fe  Fe226     1.0  0.53182  0.28089  0.69884  1.0000
  H   H1966     1.0  0.73087  0.15838  0.50422  1.0000
  S   S451      1.0  0.51049  0.27550  0.68918  1.0000
  Fe  Fe227     1.0  0.56705  0.26627  0.70869  1.0000
  S   S452      1.0  0.56937  0.29150  0.71344  1.0000
  S   S453      1.0  0.58974  0.24367  0.70923  1.0000
  Fe  Fe228     1.0  0.54098  0.29385  0.72646  1.0000
  Fe  Fe229     1.0  0.63905  0.20833  0.48589  1.0000
  Fe  Fe230     1.0  0.55920  0.30288  0.68891  1.0000
  S   S454      1.0  0.58091  0.27129  0.95382  1.0000
  S   S455      1.0  0.53963  0.26739  0.72413  1.0000
  S   S456      1.0  0.55910  0.27752  0.68315  1.0000
  Fe  Fe231     1.0  0.64004  0.20825  0.88057  1.0000
  S   S457      1.0  0.64906  0.20754  0.85256  1.0000
  S   S458      1.0  0.62736  0.23310  0.88963  1.0000
  Fe  Fe232     1.0  0.65326  0.16972  0.89223  1.0000
  S   S459      1.0  0.66325  0.16575  0.86464  1.0000
  S   S460      1.0  0.65704  0.14925  0.91655  1.0000
  Fe  Fe233     1.0  0.67343  0.19027  0.86027  1.0000
  S   S461      1.0  0.70094  0.19513  0.85039  1.0000
  Fe  Fe234     1.0  0.63760  0.18342  0.85929  1.0000
  S   S462      1.0  0.61946  0.18590  0.84065  1.0000
  S   S463      1.0  0.66499  0.19277  0.88785  1.0000
  S   S464      1.0  0.62698  0.18546  0.88730  1.0000
  H   H1967     1.0  0.57606  0.18354  0.50442  1.0000
  S   S465      1.0  0.74406  0.08936  0.49995  1.0000
  H   H1968     1.0  0.51740  0.24892  0.83918  1.0000
  S   S466      1.0  0.68806  0.16260  0.97524  1.0000
  C   C1648     1.0  0.68160  0.15611  0.51827  1.0000
  Fe  Fe235     1.0  0.64522  0.20603  0.52157  1.0000
  S   S467      1.0  0.62682  0.23117  0.52490  1.0000
  S   S468      1.0  0.65741  0.18951  0.54350  1.0000
  H   H1969     1.0  0.64191  0.17825  0.96094  1.0000
  C   C1649     1.0  0.57378  0.17348  0.94510  1.0000
  S   S469      1.0  0.53088  0.30750  0.70231  1.0000
  H   H1970     1.0  0.61068  0.26774  0.68257  1.0000
  Fe  Fe236     1.0  0.60931  0.22132  0.51395  1.0000
  S   S470      1.0  0.58110  0.22267  0.52756  1.0000
  H   H1971     1.0  0.57385  0.27209  0.54563  1.0000
  S   S471      1.0  0.62694  0.19547  0.51241  1.0000
  S   S472      1.0  0.63563  0.31054  0.60860  1.0000
  H   H1972     1.0  0.52271  0.20443  0.86186  1.0000
  C   C1650     1.0  0.64712  0.23964  0.66791  1.0000
  H   H1973     1.0  0.63681  0.17132  0.49068  1.0000
  C   C1651     1.0  0.70646  0.24318  0.86673  1.0000
  C   C1652     1.0  0.72400  0.16093  0.49378  1.0000
  Fe  Fe237     1.0  0.51442  0.17431  0.63976  1.0000
  S   S473      1.0  0.51962  0.19330  0.61463  1.0000
  S   S474      1.0  0.50984  0.14734  0.64451  1.0000
  Fe  Fe238     1.0  0.52260  0.19588  0.66066  1.0000
  S   S475      1.0  0.52878  0.21689  0.63779  1.0000
  C   C1653     1.0  0.49868  0.24832  0.74284  1.0000
  H   H1974     1.0  0.54197  0.17727  0.84083  1.0000
  Fe  Fe239     1.0  0.54296  0.19544  0.62368  1.0000
  S   S476      1.0  0.57061  0.19545  0.60869  1.0000
  H   H1975     1.0  0.58386  0.20494  0.95873  1.0000
  S   S477      1.0  0.53905  0.17470  0.64740  1.0000
  H   H1976     1.0  0.56923  0.15371  0.51848  1.0000
  H   H1977     1.0  0.55867  0.19498  0.95669  1.0000
  C   C1654     1.0  0.50858  0.23017  0.67895  1.0000
  C   C1655     1.0  0.64679  0.16482  0.48157  1.0000
  C   C1656     1.0  0.60728  0.22515  0.79576  1.0000
  H   H1978     1.0  0.67907  0.25217  0.86603  1.0000
  H   H1979     1.0  0.53004  0.15983  0.88829  1.0000
  H   H1980     1.0  0.55671  0.17768  0.53206  1.0000
  H   H1981     1.0  0.68109  0.21268  0.61614  1.0000
  C   C1657     1.0  0.57832  0.21402  0.54995  1.0000
  C   C1658     1.0  0.59275  0.20635  0.55779  1.0000
  C   C1659     1.0  0.59021  0.19991  0.57576  1.0000
  C   C1660     1.0  0.57328  0.20132  0.58600  1.0000
  C   C1661     1.0  0.55885  0.20868  0.57811  1.0000
  C   C1662     1.0  0.56138  0.21499  0.56013  1.0000
  H   H1982     1.0  0.60589  0.20541  0.55007  1.0000
  H   H1983     1.0  0.60143  0.19438  0.58181  1.0000
  H   H1984     1.0  0.54575  0.20994  0.58591  1.0000
  H   H1985     1.0  0.55016  0.22089  0.55413  1.0000
  C   C1663     1.0  0.73089  0.19330  0.61090  1.0000
  C   C1664     1.0  0.60524  0.17029  0.93961  1.0000
  C   C1665     1.0  0.70406  0.29666  0.54894  1.0000
  H   H1986     1.0  0.50029  0.27479  0.79635  1.0000
  C   C1666     1.0  0.51278  0.16586  0.86265  1.0000
  C   C1667     1.0  0.68196  0.26841  0.92801  1.0000
  C   C1668     1.0  0.65851  0.29510  0.64124  1.0000
  H   H1987     1.0  0.68954  0.26280  0.65719  1.0000
  H   H1988     1.0  0.68827  0.31055  0.50940  1.0000
  C   C1669     1.0  0.53734  0.26068  0.59567  1.0000
  H   H1989     1.0  0.73507  0.30068  0.83587  1.0000
  C   C1670     1.0  0.58039  0.25903  0.55168  1.0000
  H   H1990     1.0  0.67616  0.22198  0.91925  1.0000
  C   C1671     1.0  0.63714  0.23436  0.90603  1.0000
  C   C1672     1.0  0.65514  0.22836  0.90530  1.0000
  C   C1673     1.0  0.66231  0.22699  0.91972  1.0000
  C   C1674     1.0  0.65147  0.23196  0.93472  1.0000
  C   C1675     1.0  0.63365  0.23877  0.93502  1.0000
  C   C1676     1.0  0.62649  0.24003  0.92072  1.0000
  H   H1991     1.0  0.66358  0.22493  0.89358  1.0000
  H   H1992     1.0  0.61259  0.24485  0.92133  1.0000
  C   C1677     1.0  0.56175  0.26548  0.93294  1.0000
  C   C1678     1.0  0.71931  0.21494  0.85923  1.0000
  C   C1679     1.0  0.70310  0.21358  0.85675  1.0000
  C   C1680     1.0  0.68858  0.22694  0.85956  1.0000
  S   S478      1.0  0.65976  0.22930  0.95337  1.0000
  H   H1993     1.0  0.67244  0.26175  0.93829  1.0000
  H   H1994     1.0  0.67603  0.22602  0.85775  1.0000
  C   C1681     1.0  0.51361  0.25339  0.68957  1.0000
  C   C1682     1.0  0.50534  0.24778  0.67943  1.0000
  N   N109      1.0  0.66530  0.28130  0.65507  1.0000
  C   C1683     1.0  0.51970  0.21815  0.68899  1.0000
  C   C1684     1.0  0.52742  0.22366  0.69965  1.0000
  C   C1685     1.0  0.52465  0.24133  0.69966  1.0000
  H   H1995     1.0  0.60856  0.21643  0.95037  1.0000
  H   H1996     1.0  0.71569  0.27639  0.51478  1.0000
  H   H1997     1.0  0.53596  0.21439  0.70751  1.0000
  H   H1998     1.0  0.53112  0.24556  0.70745  1.0000
  H   H1999     1.0  0.70118  0.30288  0.96444  1.0000
  C   C1686     1.0  0.58207  0.15751  0.82876  1.0000
  C   C1687     1.0  0.59217  0.14909  0.84145  1.0000
  C   C1688     1.0  0.60394  0.15732  0.84517  1.0000
  C   C1689     1.0  0.60550  0.17421  0.83641  1.0000
  C   C1690     1.0  0.59534  0.18253  0.82383  1.0000
  C   C1691     1.0  0.58377  0.17429  0.82001  1.0000
  H   H2000     1.0  0.59103  0.13606  0.84830  1.0000
  H   H2001     1.0  0.61174  0.15063  0.85481  1.0000
  H   H2002     1.0  0.59636  0.19549  0.81694  1.0000
  H   H2003     1.0  0.57618  0.18102  0.81028  1.0000
  C   C1692     1.0  0.57660  0.19020  0.73141  1.0000
  C   C1693     1.0  0.59382  0.19195  0.72373  1.0000
  C   C1694     1.0  0.59773  0.20846  0.71701  1.0000
  C   C1695     1.0  0.58441  0.22322  0.71776  1.0000
  C   C1696     1.0  0.56718  0.22147  0.72542  1.0000
  C   C1697     1.0  0.56330  0.20496  0.73244  1.0000
  H   H2004     1.0  0.60416  0.18055  0.72315  1.0000
  H   H2005     1.0  0.61111  0.20978  0.71127  1.0000
  H   H2006     1.0  0.55682  0.23275  0.72598  1.0000
  H   H2007     1.0  0.54994  0.20364  0.73823  1.0000
  C   C1698     1.0  0.52573  0.22213  0.81075  1.0000
  C   C1699     1.0  0.54139  0.21171  0.81481  1.0000
  C   C1700     1.0  0.54851  0.21478  0.82749  1.0000
  C   C1701     1.0  0.69032  0.24176  0.86429  1.0000
  H   H2008     1.0  0.54814  0.20132  0.80817  1.0000
  H   H2009     1.0  0.56065  0.20668  0.83059  1.0000
  H   H2010     1.0  0.62236  0.20510  0.92309  1.0000
  H   H2011     1.0  0.50097  0.30770  0.78097  1.0000
  C   C1702     1.0  0.50213  0.12894  0.76679  1.0000
  Fe  Fe240     1.0  0.51615  0.23786  0.91349  1.0000
  H   H2012     1.0  0.51416  0.11976  0.69554  1.0000
  C   C1703     1.0  0.65335  0.26887  0.66193  1.0000
  H   H2013     1.0  0.65717  0.28942  0.63069  1.0000
  H   H2014     1.0  0.51568  0.12808  0.76704  1.0000
  H   H2015     1.0  0.50794  0.10918  0.75157  1.0000
  S   S479      1.0  0.70808  0.26252  0.87171  1.0000
  C   C1704     1.0  0.56400  0.24384  0.95912  1.0000
  H   H2016     1.0  0.68950  0.28138  0.50583  1.0000
  H   H2017     1.0  0.53315  0.15110  0.84528  1.0000
  N   N110      1.0  0.72804  0.23049  0.55952  1.0000
  H   H2018     1.0  0.67052  0.27925  0.68021  1.0000
  H   H2019     1.0  0.58774  0.17230  0.55923  1.0000
  H   H2020     1.0  0.72430  0.24298  0.52473  1.0000
  H   H2021     1.0  0.61898  0.28608  0.63749  1.0000
  H   H2022     1.0  0.59295  0.29147  0.66121  1.0000
  C   C1705     1.0  0.60488  0.19040  0.67143  1.0000
  C   C1706     1.0  0.66820  0.29654  0.93406  1.0000
  C   C1707     1.0  0.63401  0.22119  0.58559  1.0000
  C   C1708     1.0  0.63268  0.20379  0.58897  1.0000
  C   C1709     1.0  0.64045  0.19379  0.57624  1.0000
  C   C1710     1.0  0.64904  0.20137  0.56000  1.0000
  C   C1711     1.0  0.65000  0.21887  0.55653  1.0000
  C   C1712     1.0  0.64274  0.22869  0.56940  1.0000
  H   H2023     1.0  0.62595  0.19792  0.60143  1.0000
  H   H2024     1.0  0.63947  0.18033  0.57886  1.0000
  H   H2025     1.0  0.65649  0.22483  0.54394  1.0000
  H   H2026     1.0  0.64377  0.24215  0.56668  1.0000
  H   H2027     1.0  0.68643  0.20095  0.55658  1.0000
  H   H2028     1.0  0.55428  0.24472  0.57877  1.0000
  C   C1713     1.0  0.67748  0.17155  0.94442  1.0000
  C   C1714     1.0  0.67077  0.16880  0.93124  1.0000
  C   C1715     1.0  0.66807  0.15242  0.93150  1.0000
  C   C1716     1.0  0.67302  0.13857  0.94476  1.0000
  C   C1717     1.0  0.68028  0.14118  0.95775  1.0000
  H   H2029     1.0  0.67884  0.18447  0.94432  1.0000
  H   H2030     1.0  0.66731  0.17957  0.92118  1.0000
  H   H2031     1.0  0.69288  0.26881  0.93392  1.0000
  C   C1718     1.0  0.59731  0.30220  0.65165  1.0000
  S   S480      1.0  0.72815  0.16518  0.59939  1.0000
  C   C1719     1.0  0.51976  0.30675  0.93543  1.0000
  C   C1720     1.0  0.58268  0.23914  0.81466  1.0000
  C   C1721     1.0  0.63031  0.28135  0.90025  1.0000
  C   C1722     1.0  0.71555  0.15370  0.91927  1.0000
  H   H2032     1.0  0.51183  0.17013  0.71465  1.0000
  C   C1723     1.0  0.56821  0.17465  0.53832  1.0000
  Fe  Fe241     1.0  0.63861  0.24476  0.97023  1.0000
  H   H2033     1.0  0.55350  0.30577  0.63821  1.0000
  C   C1724     1.0  0.64738  0.27341  0.89396  1.0000
  H   H2034     1.0  0.61956  0.27950  0.89560  1.0000
  C   C1725     1.0  0.71667  0.22636  0.54999  1.0000
  C   C1726     1.0  0.70353  0.28563  0.53849  1.0000
  C   C1727     1.0  0.59048  0.16481  0.93863  1.0000
  H   H2035     1.0  0.67495  0.27734  0.49474  1.0000
  C   C1728     1.0  0.53084  0.30570  0.94656  1.0000
  C   C1729     1.0  0.63563  0.27457  0.66976  1.0000
  C   C1730     1.0  0.67424  0.31355  0.50861  1.0000
  C   C1731     1.0  0.52443  0.27793  0.96214  1.0000
  C   C1732     1.0  0.70182  0.19140  0.60946  1.0000
  N   N111      1.0  0.58452  0.16687  0.52727  1.0000
  H   H2036     1.0  0.63526  0.16359  0.95224  1.0000
  C   C1733     1.0  0.70530  0.21464  0.55855  1.0000
  H   H2037     1.0  0.63741  0.30112  0.92890  1.0000
  H   H2038     1.0  0.56499  0.16578  0.55101  1.0000
  H   H2039     1.0  0.53433  0.16922  0.73033  1.0000
  H   H2040     1.0  0.74475  0.18799  0.60941  1.0000
  H   H2041     1.0  0.66732  0.30451  0.63527  1.0000
  H   H2042     1.0  0.64262  0.15318  0.55404  1.0000
  C   C1734     1.0  0.68220  0.15779  0.95776  1.0000
  C   C1735     1.0  0.59688  0.26994  0.56583  1.0000
  H   H2043     1.0  0.62507  0.24246  0.94650  1.0000
  H   H2044     1.0  0.69168  0.12116  0.52260  1.0000
  C   C1736     1.0  0.61199  0.29916  0.63820  1.0000
  C   C1737     1.0  0.51705  0.23551  0.81963  1.0000
  H   H2045     1.0  0.57375  0.28705  0.58629  1.0000
  H   H2046     1.0  0.49678  0.15518  0.68087  1.0000
  H   H2047     1.0  0.67571  0.29825  0.66464  1.0000
  H   H2048     1.0  0.67508  0.14995  0.53130  1.0000
  N   N112      1.0  0.57945  0.22296  0.89145  1.0000
  C   C1738     1.0  0.58709  0.22186  0.90656  1.0000
  C   C1739     1.0  0.59218  0.22833  0.87544  1.0000
  C   C1740     1.0  0.56355  0.23686  0.89182  1.0000
  C   C1741     1.0  0.57483  0.20619  0.89244  1.0000
  C   C1742     1.0  0.58215  0.19614  0.87939  1.0000
  C   C1743     1.0  0.56270  0.19934  0.90690  1.0000
  C   C1744     1.0  0.57776  0.18018  0.88099  1.0000
  C   C1745     1.0  0.55819  0.18349  0.90819  1.0000
  C   C1746     1.0  0.56591  0.17380  0.89537  1.0000
  H   H2049     1.0  0.59887  0.21126  0.90699  1.0000
  H   H2050     1.0  0.59118  0.23412  0.90601  1.0000
  H   H2051     1.0  0.57769  0.21950  0.91907  1.0000
  H   H2052     1.0  0.60483  0.21883  0.87449  1.0000
  H   H2053     1.0  0.59545  0.24094  0.87509  1.0000
  H   H2054     1.0  0.58692  0.22992  0.86360  1.0000
  H   H2055     1.0  0.55361  0.23447  0.90387  1.0000
  H   H2056     1.0  0.56660  0.24968  0.89100  1.0000
  H   H2057     1.0  0.55735  0.23801  0.88075  1.0000
  H   H2058     1.0  0.59138  0.20022  0.86781  1.0000
  H   H2059     1.0  0.55645  0.20632  0.91726  1.0000
  H   H2060     1.0  0.58366  0.17274  0.87094  1.0000
  H   H2061     1.0  0.54857  0.17878  0.91916  1.0000
  H   H2062     1.0  0.56266  0.16138  0.89648  1.0000
  H   H2063     1.0  0.59558  0.16784  0.70222  1.0000
  H   H2064     1.0  0.58275  0.23220  0.57876  1.0000
  C   C1747     1.0  0.71982  0.18452  0.60720  1.0000
  H   H2065     1.0  0.58127  0.30985  0.61788  1.0000
  C   C1748     1.0  0.63013  0.19457  0.93136  1.0000
  C   C1749     1.0  0.73300  0.20555  0.92538  1.0000
  C   C1750     1.0  0.71025  0.18069  0.89897  1.0000
  H   H2066     1.0  0.72890  0.27675  0.81588  1.0000
  H   H2067     1.0  0.50839  0.24548  0.76545  1.0000
  C   C1751     1.0  0.51136  0.31730  0.75411  1.0000
  C   C1752     1.0  0.51753  0.14243  0.71500  1.0000
  H   H2068     1.0  0.70569  0.23492  0.51009  1.0000
  C   C1753     1.0  0.52906  0.12674  0.72058  1.0000
  H   H2069     1.0  0.73052  0.20453  0.85727  1.0000
  C   C1754     1.0  0.54178  0.12648  0.72965  1.0000
  C   C1755     1.0  0.54360  0.14173  0.73321  1.0000
  C   C1756     1.0  0.73979  0.24225  0.54860  1.0000
  H   H2070     1.0  0.50482  0.24350  0.81681  1.0000
  H   H2071     1.0  0.50957  0.25678  0.78635  1.0000
  H   H2072     1.0  0.69462  0.29736  0.56091  1.0000
  H   H2073     1.0  0.70236  0.13529  0.53907  1.0000
  H   H2074     1.0  0.60303  0.28455  0.60923  1.0000
  C   C1757     1.0  0.62414  0.26310  0.67654  1.0000
  H   H2075     1.0  0.67995  0.30694  0.89947  1.0000
  H   H2076     1.0  0.72010  0.26875  0.96880  1.0000
  C   C1758     1.0  0.57831  0.29698  0.62247  1.0000
  H   H2077     1.0  0.52828  0.11442  0.71843  1.0000
  C   C1759     1.0  0.57174  0.18803  0.95204  1.0000
  H   H2078     1.0  0.55014  0.11431  0.73417  1.0000
  H   H2079     1.0  0.55337  0.14143  0.74040  1.0000
  N   N113      1.0  0.57868  0.17637  0.68346  1.0000
  C   C1760     1.0  0.56800  0.19034  0.69256  1.0000
  C   C1761     1.0  0.56648  0.16845  0.67843  1.0000
  C   C1762     1.0  0.58806  0.16266  0.69569  1.0000
  C   C1763     1.0  0.59131  0.18381  0.66858  1.0000
  C   C1764     1.0  0.59012  0.18556  0.65106  1.0000
  C   C1765     1.0  0.60207  0.19304  0.63736  1.0000
  H   H2080     1.0  0.56030  0.20056  0.68395  1.0000
  H   H2081     1.0  0.55859  0.18529  0.70422  1.0000
  H   H2082     1.0  0.57614  0.19683  0.69698  1.0000
  H   H2083     1.0  0.55734  0.16272  0.68994  1.0000
  H   H2084     1.0  0.57364  0.15797  0.67121  1.0000
  H   H2085     1.0  0.55797  0.17833  0.67039  1.0000
  H   H2086     1.0  0.57884  0.15608  0.70644  1.0000
  H   H2087     1.0  0.59730  0.15260  0.68896  1.0000
  H   H2088     1.0  0.58014  0.18121  0.64747  1.0000
  H   H2089     1.0  0.60095  0.19411  0.62409  1.0000
  N   N114      1.0  0.57075  0.24751  0.77049  1.0000
  C   C1766     1.0  0.55416  0.24104  0.77582  1.0000
  C   C1767     1.0  0.56657  0.26673  0.76690  1.0000
  C   C1768     1.0  0.58020  0.24201  0.75396  1.0000
  C   C1769     1.0  0.58084  0.24104  0.78453  1.0000
  C   C1770     1.0  0.57342  0.24502  0.80120  1.0000
  C   C1771     1.0  0.59812  0.23086  0.78220  1.0000
  H   H2090     1.0  0.55674  0.22661  0.77926  1.0000
  H   H2091     1.0  0.54542  0.24594  0.78723  1.0000
  H   H2092     1.0  0.54650  0.24515  0.76533  1.0000
  H   H2093     1.0  0.55773  0.27204  0.77806  1.0000
  H   H2094     1.0  0.55979  0.27213  0.75578  1.0000
  H   H2095     1.0  0.57867  0.27212  0.76368  1.0000
  H   H2096     1.0  0.58330  0.22764  0.75550  1.0000
  H   H2097     1.0  0.57220  0.24709  0.74378  1.0000
  H   H2098     1.0  0.59253  0.24702  0.74862  1.0000
  H   H2099     1.0  0.56031  0.25255  0.80404  1.0000
  H   H2100     1.0  0.60484  0.22699  0.77010  1.0000
  N   N115      1.0  0.56842  0.24522  0.64331  1.0000
  C   C1772     1.0  0.57126  0.23545  0.62933  1.0000
  C   C1773     1.0  0.58109  0.23634  0.65472  1.0000
  C   C1774     1.0  0.55054  0.24448  0.65383  1.0000
  C   C1775     1.0  0.57125  0.26312  0.63578  1.0000
  C   C1776     1.0  0.55899  0.27802  0.64040  1.0000
  C   C1777     1.0  0.58717  0.26600  0.62425  1.0000
  C   C1778     1.0  0.56265  0.29464  0.63393  1.0000
  C   C1779     1.0  0.59056  0.28269  0.61763  1.0000
  C   C1780     1.0  0.71651  0.23361  0.53219  1.0000
  H   H2101     1.0  0.58511  0.23316  0.62226  1.0000
  H   H2102     1.0  0.56807  0.22233  0.63447  1.0000
  H   H2103     1.0  0.56291  0.24241  0.61972  1.0000
  H   H2104     1.0  0.57921  0.22296  0.66100  1.0000
  H   H2105     1.0  0.57965  0.24351  0.66518  1.0000
  H   H2106     1.0  0.59488  0.23527  0.64746  1.0000
  H   H2107     1.0  0.54030  0.25124  0.64608  1.0000
  H   H2108     1.0  0.54857  0.23091  0.65886  1.0000
  H   H2109     1.0  0.54794  0.25031  0.66545  1.0000
  H   H2110     1.0  0.54666  0.27721  0.64938  1.0000
  H   H2111     1.0  0.59739  0.25532  0.62065  1.0000
  H   H2112     1.0  0.50754  0.26763  0.95327  1.0000
  H   H2113     1.0  0.49798  0.20042  0.72082  1.0000
  C   C1781     1.0  0.51006  0.29713  0.90671  1.0000
  S   S481      1.0  0.64856  0.26566  0.48836  1.0000
  C   C1782     1.0  0.60367  0.18462  0.94728  1.0000
  H   H2114     1.0  0.64984  0.26552  0.88432  1.0000
  C   C1783     1.0  0.58641  0.19362  0.95314  1.0000
  H   H2115     1.0  0.74097  0.20730  0.91195  1.0000
  H   H2116     1.0  0.65348  0.29723  0.67432  1.0000
  H   H2117     1.0  0.52665  0.26656  0.97228  1.0000
  N   N116      1.0  0.49978  0.29434  0.92473  1.0000
  H   H2118     1.0  0.61428  0.16634  0.57031  1.0000
  H   H2119     1.0  0.59018  0.19157  0.51298  1.0000
  C   C1784     1.0  0.56402  0.27931  0.58844  1.0000
  H   H2120     1.0  0.54478  0.26275  0.91741  1.0000
  S   S482      1.0  0.62621  0.27117  0.95800  1.0000
  C   C1785     1.0  0.59158  0.24124  0.57656  1.0000
  N   N117      1.0  0.61954  0.18963  0.94886  1.0000
  C   C1786     1.0  0.69489  0.21004  0.54976  1.0000
  H   H2121     1.0  0.50171  0.19909  0.86775  1.0000
  C   C1787     1.0  0.58758  0.17957  0.51074  1.0000
  H   H2122     1.0  0.68770  0.26004  0.91826  1.0000
  Fe  Fe242     1.0  0.50498  0.21325  0.63077  1.0000
  C   C1788     1.0  0.68618  0.29400  0.90609  1.0000
  C   C1789     1.0  0.59962  0.16632  0.55150  1.0000
  C   C1790     1.0  0.53969  0.22795  0.83655  1.0000
  H   H2123     1.0  0.67276  0.15754  0.50927  1.0000
  H   H2124     1.0  0.71962  0.21364  0.92525  1.0000
  H   H2125     1.0  0.71677  0.31590  0.55173  1.0000
  H   H2126     1.0  0.71028  0.15487  0.52966  1.0000
  H   H2127     1.0  0.61371  0.29721  0.91788  1.0000
  C   C1791     1.0  0.68342  0.27328  0.64751  1.0000
  H   H2128     1.0  0.69319  0.18462  0.60670  1.0000
  H   H2129     1.0  0.59216  0.14548  0.51377  1.0000
  C   C1792     1.0  0.70915  0.16332  0.90463  1.0000
  H   H2130     1.0  0.73752  0.25189  0.94946  1.0000
  S   S483      1.0  0.54745  0.23016  0.85391  1.0000
  C   C1793     1.0  0.66628  0.28934  0.66917  1.0000
  C   C1794     1.0  0.61681  0.19776  0.65762  1.0000
  H   H2131     1.0  0.60629  0.18999  0.68440  1.0000
  C   C1795     1.0  0.69497  0.20732  0.61472  1.0000
  C   C1796     1.0  0.58141  0.15104  0.52363  1.0000
  H   H2132     1.0  0.72512  0.24259  0.58117  1.0000
  C   C1797     1.0  0.61546  0.19898  0.64062  1.0000
  C   C1798     1.0  0.63017  0.17475  0.95892  1.0000
  H   H2133     1.0  0.68682  0.21378  0.52565  1.0000
  H   H2134     1.0  0.65887  0.29099  0.94548  1.0000
  C   C1799     1.0  0.53489  0.27486  0.60329  1.0000
  H   H2135     1.0  0.67187  0.24544  0.65516  1.0000
  C   C1800     1.0  0.55306  0.25580  0.58436  1.0000
  H   H2136     1.0  0.56928  0.18718  0.54074  1.0000
  H   H2137     1.0  0.73723  0.29562  0.50518  1.0000
  H   H2138     1.0  0.71088  0.12112  0.50571  1.0000
  C   C1801     1.0  0.51507  0.19563  0.85997  1.0000
  H   H2139     1.0  0.53239  0.18180  0.88605  1.0000
  Fe  Fe243     1.0  0.60060  0.26349  0.97186  1.0000
  H   H2140     1.0  0.57200  0.24979  0.55249  1.0000
  H   H2141     1.0  0.54611  0.29532  0.60546  1.0000
  C   C1802     1.0  0.63166  0.15092  0.53334  1.0000
  H   H2142     1.0  0.70298  0.15740  0.89783  1.0000
  H   H2143     1.0  0.68958  0.13019  0.50072  1.0000
  H   H2144     1.0  0.73574  0.22184  0.96706  1.0000
  H   H2145     1.0  0.51416  0.19885  0.84607  1.0000
  H   H2146     1.0  0.60924  0.26502  0.55708  1.0000
  C   C1803     1.0  0.72093  0.22960  0.86449  1.0000
  C   C1804     1.0  0.52430  0.17369  0.88372  1.0000
  H   H2147     1.0  0.63043  0.28801  0.67061  1.0000
  C   C1805     1.0  0.62707  0.29131  0.91277  1.0000
  C   C1806     1.0  0.71570  0.28515  0.52279  1.0000
  H   H2148     1.0  0.58014  0.14080  0.53561  1.0000
  H   H2149     1.0  0.49679  0.25709  0.67158  1.0000
  H   H2150     1.0  0.54914  0.18356  0.85694  1.0000
  N   N118      1.0  0.52337  0.17717  0.86518  1.0000
  C   C1807     1.0  0.53277  0.15736  0.72763  1.0000
  C   C1808     1.0  0.51992  0.15773  0.71870  1.0000
  H   H2151     1.0  0.60659  0.22435  0.82252  1.0000
  H   H2152     1.0  0.54225  0.29025  0.96812  1.0000
  S   S484      1.0  0.72035  0.29006  0.93425  1.0000
  H   H2153     1.0  0.60071  0.26976  0.57812  1.0000
  H   H2154     1.0  0.70914  0.23020  0.58349  1.0000
  N   N119      1.0  0.67331  0.28604  0.92036  1.0000
  C   C1809     1.0  0.60009  0.16247  0.53527  1.0000
  H   H2155     1.0  0.71425  0.14029  0.92388  1.0000
  H   H2156     1.0  0.70815  0.19209  0.95106  1.0000
  C   C1810     1.0  0.53323  0.29128  0.95984  1.0000
  H   H2157     1.0  0.73777  0.14242  0.65751  1.0000
  C   C1811     1.0  0.65127  0.30780  0.49842  1.0000
  H   H2158     1.0  0.50245  0.29675  0.89714  1.0000
  C   C1812     1.0  0.54163  0.17465  0.85501  1.0000
  H   H2159     1.0  0.67971  0.29707  0.93904  1.0000
  H   H2160     1.0  0.73928  0.25295  0.83455  1.0000
  H   H2161     1.0  0.51488  0.13336  0.84173  1.0000
  C   C1813     1.0  0.71655  0.30726  0.54366  1.0000
  H   H2162     1.0  0.72250  0.17221  0.95789  1.0000
  Fe  Fe244     1.0  0.63886  0.24076  0.49724  1.0000
  C   C1814     1.0  0.61484  0.16288  0.55813  1.0000
  C   C1815     1.0  0.50218  0.12599  0.70379  1.0000
  C   C1816     1.0  0.54815  0.28419  0.59962  1.0000
  N   N120      1.0  0.69935  0.14600  0.51259  1.0000
  H   H2163     1.0  0.69725  0.29579  0.91089  1.0000
  H   H2164     1.0  0.62720  0.20250  0.66007  1.0000
  C   C1817     1.0  0.56854  0.25897  0.94817  1.0000
  C   C1818     1.0  0.72799  0.29596  0.51736  1.0000
  H   H2165     1.0  0.59203  0.28356  0.55962  1.0000
  H   H2166     1.0  0.59439  0.24067  0.58937  1.0000
  H   H2167     1.0  0.56505  0.27726  0.92446  1.0000
  H   H2168     1.0  0.54909  0.16125  0.85876  1.0000
  C   C1819     1.0  0.72219  0.18585  0.95083  1.0000
  C   C1820     1.0  0.71778  0.18860  0.90787  1.0000
  C   C1821     1.0  0.70583  0.22909  0.52357  1.0000
  C   C1822     1.0  0.66123  0.27502  0.90048  1.0000
  C   C1823     1.0  0.69776  0.12897  0.51030  1.0000
  N   N121      1.0  0.50363  0.14323  0.70571  1.0000
  H   H2169     1.0  0.72242  0.13454  0.52356  1.0000
  C   C1824     1.0  0.72309  0.16144  0.92830  1.0000
  H   H2170     1.0  0.62485  0.20455  0.62995  1.0000
  H   H2171     1.0  0.60402  0.23599  0.56814  1.0000
  H   H2172     1.0  0.59275  0.25496  0.54250  1.0000
  C   C1825     1.0  0.51094  0.29316  0.93710  1.0000
  N   N122      1.0  0.58368  0.25907  0.56882  1.0000
  H   H2173     1.0  0.70430  0.20892  0.57218  1.0000
  H   H2174     1.0  0.59208  0.15369  0.93288  1.0000
  C   C1826     1.0  0.56695  0.26491  0.58043  1.0000
  C   C1827     1.0  0.70605  0.21626  0.61814  1.0000
  H   H2175     1.0  0.52221  0.28699  0.90529  1.0000
  C   C1828     1.0  0.55021  0.25728  0.92891  1.0000
  C   C1829     1.0  0.54508  0.24258  0.94024  1.0000
  H   H2176     1.0  0.70509  0.18810  0.88764  1.0000
  C   C1830     1.0  0.61655  0.15442  0.52653  1.0000
  S   S485      1.0  0.69784  0.23695  0.62316  1.0000
  H   H2177     1.0  0.50964  0.23899  0.73759  1.0000
  Fe  Fe245     1.0  0.73591  0.28152  0.90939  1.0000
  C   C1831     1.0  0.69514  0.21725  0.53231  1.0000
  H   H2178     1.0  0.73469  0.14828  0.63558  1.0000
  H   H2179     1.0  0.51981  0.14828  0.68027  1.0000
  S   S486      1.0  0.49751  0.19405  0.65502  1.0000
  S   S487      1.0  0.51729  0.21889  0.79421  1.0000
  H   H2180     1.0  0.56238  0.16898  0.94467  1.0000
  C   C1832     1.0  0.65139  0.14669  0.48494  1.0000
  H   H2181     1.0  0.73925  0.21102  0.93297  1.0000
  H   H2182     1.0  0.63517  0.18355  0.92448  1.0000
  H   H2183     1.0  0.50726  0.27817  0.77321  1.0000
  H   H2184     1.0  0.73219  0.25517  0.54354  1.0000
  H   H2185     1.0  0.64178  0.19927  0.93190  1.0000
  H   H2186     1.0  0.64516  0.13917  0.49674  1.0000
  C   C1833     1.0  0.64089  0.29332  0.91913  1.0000
  H   H2187     1.0  0.52694  0.25346  0.59848  1.0000
  H   H2188     1.0  0.70618  0.30044  0.48650  1.0000
  S   S488      1.0  0.73115  0.25533  0.91011  1.0000
  C   C1834     1.0  0.61743  0.31315  0.62569  1.0000
  H   H2189     1.0  0.51399  0.30992  0.90259  1.0000
  S   S489      1.0  0.52921  0.23268  0.93676  1.0000
  S   S490      1.0  0.52949  0.29992  0.75301  1.0000
  H   H2190     1.0  0.73260  0.21596  0.61913  1.0000
  S   S491      1.0  0.52498  0.19646  0.68724  1.0000
  C   C1835     1.0  0.55222  0.23581  0.95524  1.0000
  C   C1836     1.0  0.62988  0.24566  0.67566  1.0000
  H   H2191     1.0  0.65155  0.22609  0.66710  1.0000
  H   H2192     1.0  0.56887  0.23882  0.97101  1.0000
  H   H2193     1.0  0.50788  0.16741  0.68831  1.0000
  C   C1837     1.0  0.50720  0.15401  0.68809  1.0000
  S   S492      1.0  0.52162  0.21593  0.89948  1.0000
  C   C1838     1.0  0.71711  0.23891  0.57387  1.0000
  H   H2194     1.0  0.50325  0.26689  0.92635  1.0000
  Fe  Fe246     1.0  0.52477  0.23622  0.87536  1.0000
  C   C1839     1.0  0.51346  0.27874  0.95098  1.0000
  C   C1840     1.0  0.72398  0.20908  0.61651  1.0000
  C   C1841     1.0  0.67585  0.28503  0.50387  1.0000
  C   C1842     1.0  0.61574  0.20445  0.95771  1.0000
  H   H2195     1.0  0.66699  0.31024  0.52221  1.0000
  C   C1843     1.0  0.59957  0.22926  0.81194  1.0000
  C   C1844     1.0  0.49771  0.11824  0.75800  1.0000
  C   C1845     1.0  0.65841  0.28489  0.91341  1.0000
  S   S493      1.0  0.52099  0.25785  0.88917  1.0000
  C   C1846     1.0  0.52404  0.23843  0.83249  1.0000
  H   H2196     1.0  0.64544  0.30281  0.64596  1.0000
  C   C1847     1.0  0.65876  0.25099  0.66113  1.0000
  H   H2197     1.0  0.70802  0.25086  0.56896  1.0000
  H   H2198     1.0  0.51121  0.17671  0.89218  1.0000
  C   C1848     1.0  0.70792  0.15561  0.49595  1.0000
  H   H2199     1.0  0.73340  0.23055  0.86648  1.0000
  S   S494      1.0  0.73352  0.29122  0.88157  1.0000
  H   H2200     1.0  0.72747  0.19202  0.95862  1.0000
  H   H2201     1.0  0.49961  0.11714  0.71659  1.0000
  C   C1849     1.0  0.72839  0.30711  0.52777  1.0000
  C   C1850     1.0  0.72446  0.17914  0.92289  1.0000
  H   H2202     1.0  0.64410  0.14502  0.52626  1.0000
  C   C1851     1.0  0.63084  0.15537  0.54900  1.0000
  H   H2203     1.0  0.57659  0.24203  0.82738  1.0000
  H   H2204     1.0  0.72757  0.15349  0.93977  1.0000
  H   H2205     1.0  0.61792  0.15115  0.51413  1.0000
  H   H2206     1.0  0.62031  0.21710  0.79390  1.0000
  H   H2207     1.0  0.66754  0.28059  0.51663  1.0000
  S   S495      1.0  0.65912  0.21648  0.49505  1.0000
  H   H2208     1.0  0.67417  0.26824  0.89544  1.0000
  C   C1852     1.0  0.70016  0.15989  0.48120  1.0000
  N   N123      1.0  0.73241  0.18701  0.93281  1.0000
  H   H2209     1.0  0.68368  0.13051  0.96811  1.0000
  C   C1853     1.0  0.50927  0.14284  0.84995  1.0000
  H   H2210     1.0  0.54818  0.22459  0.96423  1.0000
  H   H2211     1.0  0.61795  0.16310  0.93443  1.0000
  S   S496      1.0  0.61953  0.23344  0.48626  1.0000
  H   H2212     1.0  0.52260  0.27868  0.61194  1.0000
  H   H2213     1.0  0.66216  0.31021  0.92913  1.0000
  H   H2214     1.0  0.68368  0.26779  0.63620  1.0000
  Fe  Fe247     1.0  0.73093  0.26429  0.88191  1.0000
  C   C1854     1.0  0.70908  0.14260  0.52678  1.0000
  N   N124      1.0  0.67052  0.30387  0.49718  1.0000
  H   H2215     1.0  0.69208  0.28592  0.89611  1.0000
  H   H2216     1.0  0.68223  0.16941  0.51905  1.0000
  H   H2217     1.0  0.64415  0.30425  0.51202  1.0000
  H   H2218     1.0  0.64743  0.30023  0.49082  1.0000
  H   H2219     1.0  0.71808  0.20212  0.90271  1.0000
  H   H2220     1.0  0.62091  0.23683  0.68106  1.0000
  H   H2221     1.0  0.69211  0.28289  0.64259  1.0000
  H   H2222     1.0  0.50247  0.22592  0.67076  1.0000
  C   C1855     1.0  0.50080  0.26970  0.78470  1.0000
  H   H2223     1.0  0.62238  0.17003  0.97186  1.0000
  H   H2224     1.0  0.60799  0.20153  0.97111  1.0000
  H   H2225     1.0  0.73164  0.20469  0.57545  1.0000
  S   S497      1.0  0.63705  0.30372  0.97792  1.0000
  H   H2226     1.0  0.74218  0.16279  0.64370  1.0000
  C   C1856     1.0  0.71729  0.31057  0.93946  1.0000
  H   H2227     1.0  0.74278  0.31095  0.95943  1.0000
  H   H2228     1.0  0.53786  0.31598  0.94478  1.0000
  C   C1857     1.0  0.74254  0.28708  0.83710  1.0000
  H   H2229     1.0  0.73299  0.27864  0.84404  1.0000
  H   H2230     1.0  0.49560  0.11869  0.66650  1.0000
  C   C1858     1.0  0.70731  0.31309  0.95576  1.0000
  C   C1859     1.0  0.73900  0.28470  0.80931  1.0000
  H   H2231     1.0  0.73173  0.29832  0.80639  1.0000
  C   C1860     1.0  0.73927  0.21430  0.56691  1.0000
  S   S498      1.0  0.49692  0.24083  0.87289  1.0000
  C   C1861     1.0  0.49791  0.25234  0.75878  1.0000
  H   H2232     1.0  0.68797  0.15626  0.48186  1.0000
  C   C1862     1.0  0.74333  0.14876  0.64417  1.0000
  S   S499      1.0  0.73181  0.60569  0.15515  1.0000
  Fe  Fe248     1.0  0.71191  0.56981  0.28315  1.0000
  S   S500      1.0  0.71682  0.56912  0.25499  1.0000
  H   H2233     1.0  0.71761  0.42869  0.30269  1.0000
  Fe  Fe249     1.0  0.67380  0.58777  0.28391  1.0000
  S   S501      1.0  0.67598  0.58829  0.25590  1.0000
  S   S502      1.0  0.64694  0.59897  0.29779  1.0000
  Fe  Fe250     1.0  0.69110  0.56110  0.26161  1.0000
  S   S503      1.0  0.68723  0.53940  0.25152  1.0000
  Fe  Fe251     1.0  0.70147  0.59626  0.25221  1.0000
  S   S504      1.0  0.70904  0.61854  0.23144  1.0000
  S   S505      1.0  0.68704  0.55965  0.29011  1.0000
  S   S506      1.0  0.69838  0.59783  0.27991  1.0000
  H   H2234     1.0  0.71821  0.46612  0.22240  1.0000
  S   S507      1.0  0.70965  0.34171  0.03509  1.0000
  H   H2235     1.0  0.68925  0.50649  0.23473  1.0000
  Fe  Fe252     1.0  0.70025  0.36867  0.02091  1.0000
  S   S508      1.0  0.68839  0.39030  0.03634  1.0000
  Fe  Fe253     1.0  0.69567  0.33274  0.01930  1.0000
  C   C1863     1.0  0.72815  0.43137  0.30692  1.0000
  S   S509      1.0  0.72342  0.36843  0.99861  1.0000
  C   C1864     1.0  0.70344  0.36499  0.08257  1.0000
  N   N125      1.0  0.73529  0.36040  0.32146  1.0000
  C   C1865     1.0  0.71198  0.34017  0.10398  1.0000
  H   H2236     1.0  0.66250  0.62431  0.27031  1.0000
  C   C1866     1.0  0.68707  0.42346  0.16434  1.0000
  C   C1867     1.0  0.59829  0.64563  0.25025  1.0000
  H   H2237     1.0  0.66011  0.45336  0.17221  1.0000
  C   C1868     1.0  0.68587  0.49645  0.28636  1.0000
  Fe  Fe254     1.0  0.73175  0.34106  0.01205  1.0000
  H   H2238     1.0  0.69143  0.48462  0.24649  1.0000
  Fe  Fe255     1.0  0.72699  0.44253  0.12176  1.0000
  H   H2239     1.0  0.71840  0.48874  0.25537  1.0000
  C   C1869     1.0  0.73465  0.54318  0.31295  1.0000
  Fe  Fe256     1.0  0.69140  0.46290  0.11625  1.0000
  S   S510      1.0  0.70184  0.47612  0.08908  1.0000
  S   S511      1.0  0.66486  0.46518  0.13376  1.0000
  Fe  Fe257     1.0  0.71800  0.44946  0.08611  1.0000
  H   H2240     1.0  0.70019  0.34381  0.11394  1.0000
  Fe  Fe258     1.0  0.72339  0.47920  0.10070  1.0000
  H   H2241     1.0  0.72254  0.46170  0.33173  1.0000
  S   S512      1.0  0.70593  0.43626  0.11249  1.0000
  S   S513      1.0  0.71150  0.46800  0.12778  1.0000
  Fe  Fe259     1.0  0.61680  0.54382  0.16882  1.0000
  S   S514      1.0  0.59681  0.53237  0.19028  1.0000
  S   S515      1.0  0.62344  0.54087  0.14109  1.0000
  Fe  Fe260     1.0  0.62735  0.56151  0.19167  1.0000
  S   S516      1.0  0.60834  0.55195  0.21522  1.0000
  S   S517      1.0  0.64611  0.57743  0.19207  1.0000
  Fe  Fe261     1.0  0.61729  0.52659  0.20634  1.0000
  S   S518      1.0  0.62189  0.50218  0.22644  1.0000
  Fe  Fe262     1.0  0.58948  0.55866  0.19735  1.0000
  S   S519      1.0  0.56122  0.57024  0.20733  1.0000
  S   S520      1.0  0.63793  0.53569  0.18422  1.0000
  S   S521      1.0  0.60779  0.57063  0.17443  1.0000
  Fe  Fe263     1.0  0.70184  0.43208  0.24172  1.0000
  S   S522      1.0  0.69379  0.32131  0.32513  1.0000
  S   S523      1.0  0.69437  0.44921  0.21723  1.0000
  Fe  Fe264     1.0  0.69430  0.41206  0.27862  1.0000
  S   S524      1.0  0.72242  0.40552  0.28071  1.0000
  S   S525      1.0  0.67575  0.40292  0.30302  1.0000
  C   C1870     1.0  0.73461  0.41984  0.98911  1.0000
  C   C1871     1.0  0.73044  0.49325  0.19750  1.0000
  Fe  Fe265     1.0  0.72769  0.39975  0.25428  1.0000
  H   H2242     1.0  0.54472  0.62903  0.24565  1.0000
  S   S526      1.0  0.69415  0.44032  0.26734  1.0000
  S   S527      1.0  0.69934  0.40429  0.25286  1.0000
  Fe  Fe266     1.0  0.72279  0.43297  0.26723  1.0000
  H   H2243     1.0  0.67069  0.34768  0.34337  1.0000
  H   H2244     1.0  0.67905  0.37150  0.36092  1.0000
  H   H2245     1.0  0.51241  0.61991  0.20223  1.0000
  H   H2246     1.0  0.70249  0.50291  0.34410  1.0000
  H   H2247     1.0  0.72905  0.36045  0.29708  1.0000
  C   C1872     1.0  0.67205  0.37202  0.32533  1.0000
  H   H2248     1.0  0.56820  0.62123  0.27222  1.0000
  H   H2249     1.0  0.60011  0.65022  0.29018  1.0000
  C   C1873     1.0  0.67940  0.38019  0.30872  1.0000
  H   H2250     1.0  0.68817  0.45619  0.16301  1.0000
  C   C1874     1.0  0.69027  0.37013  0.29702  1.0000
  H   H2251     1.0  0.73288  0.49498  0.32400  1.0000
  H   H2252     1.0  0.69590  0.37629  0.28415  1.0000
  S   S528      1.0  0.68415  0.35969  0.00686  1.0000
  C   C1875     1.0  0.74340  0.42886  0.32983  1.0000
  H   H2253     1.0  0.57744  0.59188  0.12707  1.0000
  C   C1876     1.0  0.64227  0.48786  0.22363  1.0000
  C   C1877     1.0  0.64673  0.47494  0.23772  1.0000
  C   C1878     1.0  0.66275  0.46310  0.23589  1.0000
  C   C1879     1.0  0.67432  0.46400  0.21987  1.0000
  C   C1880     1.0  0.66990  0.47690  0.20572  1.0000
  C   C1881     1.0  0.65392  0.48885  0.20760  1.0000
  H   H2254     1.0  0.63769  0.47404  0.25010  1.0000
  H   H2255     1.0  0.66594  0.45306  0.24679  1.0000
  H   H2256     1.0  0.67876  0.47754  0.19328  1.0000
  H   H2257     1.0  0.65041  0.49853  0.19659  1.0000
  C   C1882     1.0  0.64128  0.60695  0.23370  1.0000
  C   C1883     1.0  0.65367  0.48637  0.13559  1.0000
  C   C1884     1.0  0.65566  0.50030  0.12163  1.0000
  C   C1885     1.0  0.64590  0.51698  0.12317  1.0000
  C   C1886     1.0  0.63477  0.51986  0.13890  1.0000
  C   C1887     1.0  0.63320  0.50601  0.15299  1.0000
  C   C1888     1.0  0.64232  0.48925  0.15119  1.0000
  H   H2258     1.0  0.66430  0.49814  0.10950  1.0000
  H   H2259     1.0  0.64721  0.52770  0.11227  1.0000
  H   H2260     1.0  0.62464  0.50814  0.16517  1.0000
  H   H2261     1.0  0.64052  0.47855  0.16195  1.0000
  C   C1889     1.0  0.53508  0.62437  0.18236  1.0000
  H   H2262     1.0  0.58908  0.56608  0.14316  1.0000
  C   C1890     1.0  0.68757  0.46638  0.30029  1.0000
  C   C1891     1.0  0.55154  0.59121  0.19765  1.0000
  C   C1892     1.0  0.56075  0.60093  0.18315  1.0000
  C   C1893     1.0  0.55256  0.61750  0.17560  1.0000
  N   N126      1.0  0.71211  0.38633  0.39290  1.0000
  C   C1894     1.0  0.67625  0.35390  0.33050  1.0000
  H   H2263     1.0  0.57415  0.59572  0.17773  1.0000
  H   H2264     1.0  0.55970  0.62490  0.16430  1.0000
  C   C1895     1.0  0.53722  0.59119  0.15389  1.0000
  H   H2265     1.0  0.55552  0.54137  0.14847  1.0000
  C   C1896     1.0  0.54002  0.62013  0.13815  1.0000
  H   H2266     1.0  0.70852  0.33184  0.09692  1.0000
  H   H2267     1.0  0.69872  0.40977  0.40220  1.0000
  H   H2268     1.0  0.63006  0.61978  0.33345  1.0000
  H   H2269     1.0  0.70170  0.64002  0.19933  1.0000
  S   S529      1.0  0.74123  0.32684  0.47295  1.0000
  H   H2270     1.0  0.71887  0.46470  0.24438  1.0000
  C   C1897     1.0  0.70404  0.41717  0.18632  1.0000
  H   H2271     1.0  0.71647  0.41487  0.17662  1.0000
  C   C1898     1.0  0.68731  0.34388  0.31884  1.0000
  C   C1899     1.0  0.69951  0.40210  0.04430  1.0000
  C   C1900     1.0  0.71761  0.40110  0.03930  1.0000
  C   C1901     1.0  0.72573  0.41128  0.04535  1.0000
  C   C1902     1.0  0.71596  0.42232  0.05676  1.0000
  C   C1903     1.0  0.69796  0.42286  0.06222  1.0000
  C   C1904     1.0  0.68979  0.41293  0.05591  1.0000
  H   H2272     1.0  0.72527  0.39289  0.03035  1.0000
  H   H2273     1.0  0.73736  0.46938  0.22791  1.0000
  H   H2274     1.0  0.69023  0.43129  0.07096  1.0000
  H   H2275     1.0  0.67579  0.41378  0.05996  1.0000
  C   C1905     1.0  0.61986  0.59111  0.23394  1.0000
  N   N127      1.0  0.56153  0.56525  0.15007  1.0000
  H   H2276     1.0  0.74483  0.34353  0.08600  1.0000
  C   C1906     1.0  0.73029  0.42478  0.32406  1.0000
  H   H2277     1.0  0.70607  0.44208  0.01823  1.0000
  H   H2278     1.0  0.67608  0.32316  0.43687  1.0000
  H   H2279     1.0  0.57079  0.56672  0.17204  1.0000
  H   H2280     1.0  0.69089  0.37831  0.41303  1.0000
  C   C1907     1.0  0.71221  0.40205  0.39906  1.0000
  H   H2281     1.0  0.68064  0.50327  0.16706  1.0000
  N   N128      1.0  0.71521  0.49079  0.22929  1.0000
  C   C1908     1.0  0.55444  0.58412  0.14580  1.0000
  C   C1909     1.0  0.52592  0.61474  0.19695  1.0000
  H   H2282     1.0  0.63068  0.58049  0.22982  1.0000
  H   H2283     1.0  0.67519  0.54054  0.13016  1.0000
  H   H2284     1.0  0.70495  0.53162  0.34937  1.0000
  C   C1910     1.0  0.56016  0.60435  0.24212  1.0000
  C   C1911     1.0  0.67739  0.54892  0.23366  1.0000
  C   C1912     1.0  0.66533  0.54121  0.23019  1.0000
  C   C1913     1.0  0.65622  0.54965  0.21688  1.0000
  C   C1914     1.0  0.65922  0.56575  0.20700  1.0000
  C   C1915     1.0  0.67192  0.57305  0.20991  1.0000
  C   C1916     1.0  0.68097  0.56466  0.22329  1.0000
  H   H2285     1.0  0.66239  0.52912  0.23827  1.0000
  H   H2286     1.0  0.64645  0.54390  0.21472  1.0000
  H   H2287     1.0  0.67438  0.58545  0.20220  1.0000
  H   H2288     1.0  0.69058  0.57049  0.22570  1.0000
  H   H2289     1.0  0.73099  0.56140  0.13504  1.0000
  C   C1917     1.0  0.71860  0.54340  0.32458  1.0000
  H   H2290     1.0  0.65196  0.59601  0.23014  1.0000
  H   H2291     1.0  0.72055  0.41057  0.38946  1.0000
  H   H2292     1.0  0.74118  0.59849  0.24896  1.0000
  H   H2293     1.0  0.70225  0.34431  0.29281  1.0000
  H   H2294     1.0  0.70726  0.55315  0.32168  1.0000
  Fe  Fe267     1.0  0.70853  0.35670  0.98610  1.0000
  N   N129      1.0  0.69012  0.43014  0.17845  1.0000
  H   H2295     1.0  0.71013  0.63481  0.16928  1.0000
  C   C1918     1.0  0.72353  0.60847  0.17659  1.0000
  C   C1919     1.0  0.71360  0.62448  0.17989  1.0000
  C   C1920     1.0  0.70886  0.62743  0.19686  1.0000
  C   C1921     1.0  0.71349  0.61417  0.21061  1.0000
  C   C1922     1.0  0.72281  0.59794  0.20741  1.0000
  C   C1923     1.0  0.72805  0.59519  0.19039  1.0000
  H   H2296     1.0  0.73037  0.33766  0.34099  1.0000
  C   C1924     1.0  0.69036  0.41038  0.35455  1.0000
  C   C1925     1.0  0.63174  0.63291  0.32743  1.0000
  H   H2297     1.0  0.67255  0.44073  0.98182  1.0000
  C   C1926     1.0  0.71733  0.53126  0.34025  1.0000
  C   C1927     1.0  0.70178  0.39038  0.37916  1.0000
  H   H2298     1.0  0.66729  0.52149  0.14266  1.0000
  C   C1928     1.0  0.68476  0.38141  0.36293  1.0000
  S   S530      1.0  0.68414  0.32646  0.37426  1.0000
  C   C1929     1.0  0.70002  0.40672  0.36758  1.0000
  H   H2299     1.0  0.70756  0.36330  0.33161  1.0000
  C   C1930     1.0  0.63819  0.62006  0.28756  1.0000
  C   C1931     1.0  0.62052  0.62742  0.29297  1.0000
  H   H2300     1.0  0.61221  0.61987  0.30296  1.0000
  H   H2301     1.0  0.68902  0.42299  0.34596  1.0000
  H   H2302     1.0  0.58023  0.56292  0.12608  1.0000
  H   H2303     1.0  0.52917  0.58314  0.16355  1.0000
  C   C1932     1.0  0.55011  0.55558  0.14620  1.0000
  H   H2304     1.0  0.70741  0.36060  0.40578  1.0000
  S   S531      1.0  0.73664  0.55845  0.29344  1.0000
  H   H2305     1.0  0.52695  0.59076  0.21580  1.0000
  H   H2306     1.0  0.67347  0.55048  0.17012  1.0000
  C   C1933     1.0  0.69388  0.35201  0.30195  1.0000
  H   H2307     1.0  0.68132  0.41166  0.16960  1.0000
  C   C1934     1.0  0.58050  0.62435  0.26446  1.0000
  H   H2308     1.0  0.63881  0.61574  0.22130  1.0000
  H   H2309     1.0  0.63319  0.46137  0.19293  1.0000
  H   H2310     1.0  0.74444  0.62854  0.19905  1.0000
  C   C1935     1.0  0.53016  0.60891  0.15004  1.0000
  N   N130      1.0  0.62526  0.60079  0.24426  1.0000
  H   H2311     1.0  0.68397  0.49861  0.33877  1.0000
  H   H2312     1.0  0.71592  0.54333  0.18961  1.0000
  S   S532      1.0  0.72671  0.43576  0.06301  1.0000
  C   C1936     1.0  0.61066  0.61497  0.24926  1.0000
  C   C1937     1.0  0.59431  0.61125  0.25913  1.0000
  C   C1938     1.0  0.61223  0.63265  0.24496  1.0000
  C   C1939     1.0  0.67996  0.40658  0.99358  1.0000
  C   C1940     1.0  0.72105  0.49696  0.24217  1.0000
  H   H2313     1.0  0.53120  0.64462  0.20857  1.0000
  H   H2314     1.0  0.70010  0.45722  0.32166  1.0000
  H   H2315     1.0  0.74014  0.45686  0.14230  1.0000
  H   H2316     1.0  0.67526  0.47854  0.27849  1.0000
  C   C1941     1.0  0.70515  0.37385  0.40834  1.0000
  H   H2317     1.0  0.55444  0.59785  0.25486  1.0000
  H   H2318     1.0  0.51720  0.61414  0.15678  1.0000
  H   H2319     1.0  0.58945  0.59538  0.20595  1.0000
  H   H2320     1.0  0.63493  0.32390  0.04097  1.0000
  H   H2321     1.0  0.62420  0.63683  0.23785  1.0000
  H   H2322     1.0  0.59220  0.59811  0.26304  1.0000
  H   H2323     1.0  0.73570  0.58280  0.18799  1.0000
  C   C1942     1.0  0.61366  0.64465  0.28579  1.0000
  H   H2324     1.0  0.72652  0.58770  0.21796  1.0000
  H   H2325     1.0  0.63260  0.32409  0.07091  1.0000
  H   H2326     1.0  0.61606  0.59976  0.22196  1.0000
  H   H2327     1.0  0.66324  0.37970  0.33426  1.0000
  H   H2328     1.0  0.70992  0.44375  0.16191  1.0000
  H   H2329     1.0  0.71293  0.58078  0.15474  1.0000
  C   C1943     1.0  0.71070  0.43500  0.00773  1.0000
  C   C1944     1.0  0.67343  0.43388  0.19095  1.0000
  H   H2330     1.0  0.67225  0.33274  0.99775  1.0000
  H   H2331     1.0  0.64659  0.61372  0.24094  1.0000
  C   C1945     1.0  0.73035  0.37852  0.38575  1.0000
  H   H2332     1.0  0.53679  0.55735  0.15452  1.0000
  H   H2333     1.0  0.69876  0.45212  0.18100  1.0000
  H   H2334     1.0  0.67538  0.40070  0.34201  1.0000
  H   H2335     1.0  0.69705  0.51161  0.29679  1.0000
  C   C1946     1.0  0.61781  0.64695  0.32980  1.0000
  H   H2336     1.0  0.63378  0.59554  0.26839  1.0000
  C   C1947     1.0  0.69433  0.37763  0.37604  1.0000
  H   H2337     1.0  0.67793  0.43313  0.15674  1.0000
  H   H2338     1.0  0.68482  0.45378  0.30107  1.0000
  C   C1948     1.0  0.72860  0.42956  0.00206  1.0000
  H   H2339     1.0  0.72168  0.41676  0.33283  1.0000
  C   C1949     1.0  0.63005  0.58866  0.26006  1.0000
  H   H2340     1.0  0.58459  0.54562  0.14390  1.0000
  H   H2341     1.0  0.66263  0.54033  0.15165  1.0000
  C   C1950     1.0  0.72280  0.47197  0.23097  1.0000
  H   H2342     1.0  0.60873  0.58482  0.24129  1.0000
  C   C1951     1.0  0.72039  0.50100  0.21170  1.0000
  C   C1952     1.0  0.71509  0.51933  0.20826  1.0000
  H   H2343     1.0  0.73807  0.35240  0.34838  1.0000
  S   S533      1.0  0.72467  0.33311  0.38632  1.0000
  C   C1953     1.0  0.73192  0.51848  0.34402  1.0000
  C   C1954     1.0  0.73945  0.34693  0.33679  1.0000
  H   H2344     1.0  0.60579  0.64388  0.33807  1.0000
  H   H2345     1.0  0.72614  0.38773  0.07806  1.0000
  H   H2346     1.0  0.73841  0.37396  0.39591  1.0000
  S   S534      1.0  0.74045  0.45386  0.09536  1.0000
  H   H2347     1.0  0.70729  0.42170  0.19675  1.0000
  C   C1955     1.0  0.56106  0.63087  0.21964  1.0000
  N   N131      1.0  0.70882  0.48791  0.32411  1.0000
  C   C1956     1.0  0.71321  0.47230  0.33756  1.0000
  C   C1957     1.0  0.72540  0.49363  0.31482  1.0000
  C   C1958     1.0  0.69723  0.50160  0.33319  1.0000
  C   C1959     1.0  0.70003  0.48493  0.31149  1.0000
  C   C1960     1.0  0.69634  0.46857  0.31214  1.0000
  H   H2348     1.0  0.73210  0.40761  0.09261  1.0000
  S   S535      1.0  0.73065  0.42677  0.24086  1.0000
  H   H2349     1.0  0.69939  0.35622  0.07645  1.0000
  H   H2350     1.0  0.68499  0.43494  0.00568  1.0000
  H   H2351     1.0  0.56467  0.62254  0.12098  1.0000
  S   S536      1.0  0.74468  0.42268  0.35172  1.0000
  H   H2352     1.0  0.71970  0.47509  0.34689  1.0000
  H   H2353     1.0  0.73398  0.48409  0.30703  1.0000
  C   C1961     1.0  0.64202  0.64711  0.26748  1.0000
  H   H2354     1.0  0.72319  0.50649  0.30600  1.0000
  C   C1962     1.0  0.69873  0.43078  0.00047  1.0000
  H   H2355     1.0  0.55815  0.64952  0.18660  1.0000
  H   H2356     1.0  0.69566  0.51461  0.32453  1.0000
  H   H2357     1.0  0.69169  0.37092  0.09129  1.0000
  C   C1963     1.0  0.69466  0.49878  0.29813  1.0000
  S   S537      1.0  0.73691  0.44996  0.27406  1.0000
  H   H2358     1.0  0.67555  0.52158  0.17687  1.0000
  C   C1964     1.0  0.72640  0.37453  0.12707  1.0000
  N   N132      1.0  0.71768  0.35574  0.09211  1.0000
  H   H2359     1.0  0.54901  0.56297  0.17728  1.0000
  C   C1965     1.0  0.65919  0.44661  0.18553  1.0000
  C   C1966     1.0  0.73355  0.34987  0.07953  1.0000
  C   C1967     1.0  0.72172  0.36751  0.10114  1.0000
  C   C1968     1.0  0.72570  0.38376  0.09183  1.0000
  C   C1969     1.0  0.72251  0.36306  0.11903  1.0000
  C   C1970     1.0  0.57274  0.59477  0.23108  1.0000
  S   S538      1.0  0.71898  0.32938  0.99787  1.0000
  H   H2360     1.0  0.68165  0.50732  0.27643  1.0000
  H   H2361     1.0  0.73669  0.38796  0.37510  1.0000
  H   H2362     1.0  0.72502  0.34208  0.31360  1.0000
  H   H2363     1.0  0.71426  0.51038  0.24349  1.0000
  C   C1971     1.0  0.68269  0.39780  0.35228  1.0000
  C   C1972     1.0  0.64885  0.62985  0.27457  1.0000
  C   C1973     1.0  0.66739  0.32102  0.99989  1.0000
  C   C1974     1.0  0.74385  0.51023  0.10910  1.0000
  C   C1975     1.0  0.55698  0.61367  0.13001  1.0000
  H   H2364     1.0  0.69945  0.42015  0.15488  1.0000
  C   C1976     1.0  0.57422  0.62077  0.20886  1.0000
  C   C1977     1.0  0.57957  0.55985  0.14031  1.0000
  H   H2365     1.0  0.61918  0.58232  0.26812  1.0000
  C   C1978     1.0  0.53415  0.59821  0.20457  1.0000
  H   H2366     1.0  0.71393  0.38130  0.31539  1.0000
  H   H2367     1.0  0.72698  0.37090  0.14071  1.0000
  C   C1979     1.0  0.73016  0.52134  0.17832  1.0000
  H   H2368     1.0  0.69591  0.36453  0.38348  1.0000
  H   H2369     1.0  0.67065  0.40210  0.98847  1.0000
  H   H2370     1.0  0.70712  0.52610  0.21832  1.0000
  H   H2371     1.0  0.72091  0.53670  0.13239  1.0000
  H   H2372     1.0  0.54863  0.55991  0.13245  1.0000
  C   C1980     1.0  0.67083  0.42536  0.20868  1.0000
  H   H2373     1.0  0.68426  0.57515  0.17199  1.0000
  C   C1981     1.0  0.65519  0.42995  0.22027  1.0000
  C   C1982     1.0  0.64366  0.45116  0.19725  1.0000
  C   C1983     1.0  0.64173  0.44295  0.21461  1.0000
  H   H2374     1.0  0.71769  0.39877  0.41103  1.0000
  H   H2375     1.0  0.73090  0.36707  0.38039  1.0000
  C   C1984     1.0  0.56418  0.59594  0.13371  1.0000
  H   H2376     1.0  0.71755  0.37811  0.33689  1.0000
  H   H2377     1.0  0.64135  0.57803  0.25685  1.0000
  C   C1985     1.0  0.69699  0.44627  0.17076  1.0000
  H   H2378     1.0  0.56698  0.54577  0.17258  1.0000
  C   C1986     1.0  0.56205  0.55995  0.16874  1.0000
  H   H2379     1.0  0.73968  0.41068  0.04107  1.0000
  H   H2380     1.0  0.68091  0.41566  0.21413  1.0000
  C   C1987     1.0  0.69588  0.49292  0.23380  1.0000
  H   H2381     1.0  0.65375  0.42379  0.23387  1.0000
  H   H2382     1.0  0.70624  0.41680  0.36822  1.0000
  H   H2383     1.0  0.62988  0.44688  0.22375  1.0000
  N   N133      1.0  0.68937  0.52586  0.15009  1.0000
  C   C1988     1.0  0.70162  0.51471  0.13842  1.0000
  C   C1989     1.0  0.68567  0.51468  0.16752  1.0000
  C   C1990     1.0  0.67294  0.53234  0.14339  1.0000
  C   C1991     1.0  0.69617  0.54074  0.15126  1.0000
  C   C1992     1.0  0.71251  0.54452  0.14133  1.0000
  C   C1993     1.0  0.68620  0.55221  0.16239  1.0000
  C   C1994     1.0  0.71848  0.55875  0.14271  1.0000
  C   C1995     1.0  0.69225  0.56643  0.16359  1.0000
  C   C1996     1.0  0.70838  0.56966  0.15382  1.0000
  H   H2384     1.0  0.71422  0.50906  0.14283  1.0000
  H   H2385     1.0  0.69605  0.50368  0.13788  1.0000
  H   H2386     1.0  0.70440  0.52198  0.12479  1.0000
  H   H2387     1.0  0.69766  0.50982  0.17314  1.0000
  H   H2388     1.0  0.69091  0.48931  0.22389  1.0000
  H   H2389     1.0  0.70014  0.40442  0.19177  1.0000
  S   S539      1.0  0.73298  0.50447  0.09554  1.0000
  S   S540      1.0  0.74136  0.42181  0.14004  1.0000
  C   C1997     1.0  0.71785  0.37124  0.32659  1.0000
  C   C1998     1.0  0.71998  0.52932  0.19183  1.0000
  H   H2390     1.0  0.74392  0.64946  0.14237  1.0000
  H   H2391     1.0  0.67201  0.41397  0.00367  1.0000
  H   H2392     1.0  0.53463  0.63394  0.13567  1.0000
  C   C1999     1.0  0.72938  0.39518  0.10003  1.0000
  H   H2393     1.0  0.68800  0.39495  0.00038  1.0000
  H   H2394     1.0  0.73534  0.49675  0.23846  1.0000
  H   H2395     1.0  0.72255  0.33182  0.11068  1.0000
  H   H2396     1.0  0.57656  0.58084  0.23508  1.0000
  C   C2000     1.0  0.73994  0.32967  0.41361  1.0000
  C   C2001     1.0  0.68227  0.48029  0.28748  1.0000
  S   S541      1.0  0.74450  0.45408  0.38044  1.0000
  H   H2397     1.0  0.72032  0.35076  0.12709  1.0000
  C   C2002     1.0  0.72963  0.39061  0.11764  1.0000
  C   C2003     1.0  0.70437  0.42102  0.98714  1.0000
  H   H2398     1.0  0.73142  0.34062  0.07261  1.0000
  C   C2004     1.0  0.57995  0.60301  0.21462  1.0000
  S   S542      1.0  0.72939  0.50223  0.36272  1.0000
  H   H2399     1.0  0.71184  0.37206  0.41932  1.0000
  H   H2400     1.0  0.70130  0.46750  0.34540  1.0000
  C   C2005     1.0  0.73415  0.35126  0.30822  1.0000
  C   C2006     1.0  0.73515  0.50336  0.18111  1.0000
  H   H2401     1.0  0.73603  0.34356  0.41220  1.0000
  H   H2402     1.0  0.73245  0.39948  0.12398  1.0000
  H   H2403     1.0  0.73439  0.52908  0.16571  1.0000
  C   C2007     1.0  0.73919  0.44193  0.29556  1.0000
  H   H2404     1.0  0.73495  0.47939  0.19871  1.0000
  H   H2405     1.0  0.70744  0.37551  0.07174  1.0000
  C   C2008     1.0  0.73647  0.32127  0.40225  1.0000
  H   H2406     1.0  0.57990  0.62612  0.19571  1.0000
  S   S543      1.0  0.52495  0.64479  0.17201  1.0000
  H   H2407     1.0  0.74307  0.49721  0.17060  1.0000
  H   H2408     1.0  0.73767  0.36090  0.06947  1.0000
  N   N134      1.0  0.55412  0.64955  0.21381  1.0000
  H   H2409     1.0  0.65818  0.62453  0.31446  1.0000
  C   C2009     1.0  0.55453  0.62216  0.23661  1.0000
  S   S544      1.0  0.74146  0.37040  0.43983  1.0000
  H   H2410     1.0  0.62082  0.32491  0.01766  1.0000
  C   C2010     1.0  0.58253  0.64149  0.26009  1.0000
  H   H2411     1.0  0.74412  0.53594  0.09367  1.0000
  C   C2011     1.0  0.64767  0.63555  0.31671  1.0000
  C   C2012     1.0  0.65749  0.31943  0.98865  1.0000
  H   H2412     1.0  0.73779  0.43256  0.00803  1.0000
  H   H2413     1.0  0.52800  0.64958  0.22953  1.0000
  C   C2013     1.0  0.68248  0.31841  0.44789  1.0000
  C   C2014     1.0  0.72276  0.41561  0.98167  1.0000
  H   H2414     1.0  0.70832  0.31771  0.43215  1.0000
  N   N135      1.0  0.69136  0.41675  0.97969  1.0000
  H   H2415     1.0  0.61253  0.34087  0.61722  1.0000
  H   H2416     1.0  0.68853  0.44130  0.96195  1.0000
  C   C2015     1.0  0.72258  0.33987  0.93351  1.0000
  H   H2417     1.0  0.67059  0.32779  0.50393  1.0000
  H   H2418     1.0  0.68924  0.40325  0.96069  1.0000
  H   H2419     1.0  0.70732  0.39371  0.97094  1.0000
  C   C2016     1.0  0.60835  0.33001  0.62676  1.0000
  C   C2017     1.0  0.70520  0.32877  0.96102  1.0000
  H   H2420     1.0  0.67074  0.43024  0.96575  1.0000
  C   C2018     1.0  0.50902  0.33066  0.73973  1.0000
  C   C2019     1.0  0.71294  0.34220  0.95003  1.0000
  C   C2020     1.0  0.59376  0.33301  0.63999  1.0000
  H   H2421     1.0  0.72857  0.35021  0.92489  1.0000
  C   C2021     1.0  0.69932  0.40642  0.96593  1.0000
  S   S545      1.0  0.71090  0.36162  0.95715  1.0000
  H   H2422     1.0  0.69736  0.33055  0.97355  1.0000
  C   C2022     1.0  0.72486  0.32404  0.92825  1.0000
  H   H2423     1.0  0.58677  0.34615  0.64056  1.0000
  H   H2424     1.0  0.51875  0.33074  0.72784  1.0000
  S   S546      1.0  0.56940  0.32406  0.66842  1.0000
  C   C2023     1.0  0.68032  0.43296  0.97198  1.0000
  H   H2425     1.0  0.73257  0.32224  0.91564  1.0000
  H   H2426     1.0  0.70769  0.41347  0.95473  1.0000
  S   S547      1.0  0.74367  0.32077  0.52131  1.0000
  H   H2427     1.0  0.65485  0.32996  0.97789  1.0000
  H   H2428     1.0  0.64630  0.32184  0.49381  1.0000
  C   C2024     1.0  0.58812  0.31920  0.65244  1.0000
  H   H2429     1.0  0.72834  0.40791  0.97184  1.0000
  H   H2430     1.0  0.51833  0.31821  0.92535  1.0000
  C   C2025     1.0  0.49900  0.31769  0.76965  1.0000
  Fe  Fe268     1.0  0.55995  0.71766  0.25695  1.0000
  S   S548      1.0  0.57823  0.71534  0.27435  1.0000
  S   S549      1.0  0.54906  0.74264  0.24076  1.0000
  Fe  Fe269     1.0  0.55141  0.68249  0.27388  1.0000
  S   S550      1.0  0.56843  0.67697  0.29334  1.0000
  S   S551      1.0  0.53472  0.66493  0.27255  1.0000
  Fe  Fe270     1.0  0.55759  0.70479  0.29555  1.0000
  S   S552      1.0  0.54858  0.71642  0.31930  1.0000
  Fe  Fe271     1.0  0.58766  0.68782  0.27046  1.0000
  S   S553      1.0  0.61661  0.67655  0.26444  1.0000
  S   S554      1.0  0.53864  0.70906  0.27847  1.0000
  S   S555      1.0  0.57131  0.69130  0.25072  1.0000
  Fe  Fe272     1.0  0.53325  0.81209  0.16385  1.0000
  S   S556      1.0  0.53216  0.82776  0.13712  1.0000
  S   S557      1.0  0.51165  0.81590  0.18676  1.0000
  Fe  Fe273     1.0  0.56850  0.78996  0.15265  1.0000
  S   S558      1.0  0.57083  0.80367  0.12485  1.0000
  S   S559      1.0  0.58715  0.76666  0.16364  1.0000
  Fe  Fe274     1.0  0.56050  0.82799  0.13600  1.0000
  S   S560      1.0  0.57084  0.85309  0.12735  1.0000
  Fe  Fe275     1.0  0.54243  0.80226  0.12831  1.0000
  S   S561      1.0  0.53227  0.78680  0.11460  1.0000
  S   S562      1.0  0.56046  0.81419  0.16342  1.0000
  S   S563      1.0  0.54121  0.78688  0.15541  1.0000
  Fe  Fe276     1.0  0.71268  0.90188  0.26638  1.0000
  S   S564      1.0  0.72975  0.88262  0.28356  1.0000
  S   S565      1.0  0.68798  0.89890  0.26020  1.0000
  Fe  Fe277     1.0  0.72900  0.90557  0.29484  1.0000
  S   S566      1.0  0.72881  0.90307  0.32314  1.0000
  S   S567      1.0  0.71002  0.92389  0.27956  1.0000
  Fe  Fe278     1.0  0.66288  0.91491  0.14329  1.0000
  S   S568      1.0  0.67468  0.88634  0.14786  1.0000
  S   S569      1.0  0.67743  0.93363  0.12255  1.0000
  Fe  Fe279     1.0  0.63454  0.91028  0.17538  1.0000
  S   S570      1.0  0.64474  0.88196  0.18311  1.0000
  S   S571      1.0  0.61050  0.92303  0.19178  1.0000
  Fe  Fe280     1.0  0.67125  0.88874  0.17543  1.0000
  S   S572      1.0  0.69398  0.87729  0.18913  1.0000
  Fe  Fe281     1.0  0.64688  0.88210  0.15504  1.0000
  S   S573      1.0  0.63763  0.85909  0.15178  1.0000
  S   S574      1.0  0.66084  0.91732  0.17045  1.0000
  S   S575      1.0  0.63533  0.91044  0.14765  1.0000
  H   H2431     1.0  0.59770  0.90038  0.17630  1.0000
  H   H2432     1.0  0.71540  0.94070  0.31260  1.0000
  C   C2026     1.0  0.67010  0.97456  0.14560  1.0000
  C   C2027     1.0  0.54454  0.94482  0.23246  1.0000
  H   H2433     1.0  0.70461  0.97807  0.29302  1.0000
  H   H2434     1.0  0.50817  0.83526  0.29156  1.0000
  H   H2435     1.0  0.72746  0.98136  0.39870  1.0000
  H   H2436     1.0  0.61047  0.93204  0.23982  1.0000
  C   C2028     1.0  0.51712  0.75817  0.28095  1.0000
  C   C2029     1.0  0.49668  0.78446  0.08824  1.0000
  H   H2437     1.0  0.56478  0.95400  0.21176  1.0000
  H   H2438     1.0  0.66799  0.96895  0.09384  1.0000
  S   S576      1.0  0.70662  0.96301  0.36637  1.0000
  H   H2439     1.0  0.70536  0.95275  0.11131  1.0000
  H   H2440     1.0  0.61198  0.87073  0.18113  1.0000
  S   S577      1.0  0.61294  0.96231  0.26709  1.0000
  S   S578      1.0  0.64639  0.96464  0.22306  1.0000
  H   H2441     1.0  0.67835  0.93957  0.23585  1.0000
  S   S579      1.0  0.53951  0.85178  0.23175  1.0000
  H   H2442     1.0  0.61746  0.83414  0.22796  1.0000
  C   C2030     1.0  0.54252  0.95262  0.25997  1.0000
  H   H2443     1.0  0.53610  0.95237  0.27339  1.0000
  C   C2031     1.0  0.56128  0.65641  0.19535  1.0000
  H   H2444     1.0  0.50575  0.65750  0.26304  1.0000
  H   H2445     1.0  0.63848  0.67906  0.30394  1.0000
  H   H2446     1.0  0.61217  0.68239  0.34632  1.0000
  H   H2447     1.0  0.51083  0.77290  0.17793  1.0000
  H   H2448     1.0  0.69636  0.96692  0.43935  1.0000
  H   H2449     1.0  0.72714  0.90359  0.35804  1.0000
  C   C2032     1.0  0.70802  0.95751  0.06912  1.0000
  H   H2450     1.0  0.59998  0.65895  0.24715  1.0000
  H   H2451     1.0  0.61084  0.92670  0.26239  1.0000
  H   H2452     1.0  0.56849  0.87007  0.18148  1.0000
  H   H2453     1.0  0.57569  0.65537  0.19287  1.0000
  H   H2454     1.0  0.59151  0.88613  0.16601  1.0000
  C   C2033     1.0  0.54376  0.89288  0.14852  1.0000
  H   H2455     1.0  0.67153  0.94709  0.18178  1.0000
  H   H2456     1.0  0.49768  0.86380  0.17447  1.0000
  H   H2457     1.0  0.51434  0.82065  0.09785  1.0000
  C   C2034     1.0  0.61914  0.93408  0.20229  1.0000
  C   C2035     1.0  0.61094  0.95085  0.20460  1.0000
  C   C2036     1.0  0.61931  0.96029  0.21104  1.0000
  C   C2037     1.0  0.63579  0.95292  0.21519  1.0000
  C   C2038     1.0  0.64371  0.93598  0.21333  1.0000
  C   C2039     1.0  0.63526  0.92653  0.20705  1.0000
  H   H2458     1.0  0.59852  0.95676  0.20074  1.0000
  C   C2040     1.0  0.51093  0.78254  0.24773  1.0000
  H   H2459     1.0  0.65628  0.93014  0.21683  1.0000
  H   H2460     1.0  0.64125  0.91339  0.20568  1.0000
  C   C2041     1.0  0.69000  0.89294  0.24037  1.0000
  C   C2042     1.0  0.70613  0.88494  0.23166  1.0000
  C   C2043     1.0  0.70720  0.87981  0.21611  1.0000
  C   C2044     1.0  0.69222  0.88286  0.20911  1.0000
  C   C2045     1.0  0.67618  0.89095  0.21776  1.0000
  C   C2046     1.0  0.67508  0.89602  0.23332  1.0000
  H   H2461     1.0  0.71768  0.88239  0.23709  1.0000
  H   H2462     1.0  0.71966  0.87353  0.20944  1.0000
  H   H2463     1.0  0.66464  0.89320  0.21245  1.0000
  H   H2464     1.0  0.66264  0.90243  0.23988  1.0000
  C   C2047     1.0  0.72186  0.92052  0.33419  1.0000
  C   C2048     1.0  0.72272  0.91680  0.35171  1.0000
  C   C2049     1.0  0.71783  0.92998  0.36124  1.0000
  C   C2050     1.0  0.71205  0.94716  0.35341  1.0000
  C   C2051     1.0  0.71109  0.95108  0.33579  1.0000
  C   C2052     1.0  0.71600  0.93772  0.32616  1.0000
  H   H2465     1.0  0.55237  0.65599  0.23847  1.0000
  H   H2466     1.0  0.71855  0.92680  0.37479  1.0000
  H   H2467     1.0  0.70665  0.96431  0.32963  1.0000
  C   C2053     1.0  0.50181  0.79278  0.23499  1.0000
  C   C2054     1.0  0.58779  0.85602  0.13606  1.0000
  C   C2055     1.0  0.59452  0.84353  0.14928  1.0000
  C   C2056     1.0  0.60913  0.84528  0.15471  1.0000
  C   C2057     1.0  0.61714  0.85957  0.14712  1.0000
  C   C2058     1.0  0.60976  0.87267  0.13467  1.0000
  C   C2059     1.0  0.59514  0.87088  0.12917  1.0000
  H   H2468     1.0  0.58893  0.83216  0.15484  1.0000
  H   H2469     1.0  0.61471  0.83521  0.16442  1.0000
  H   H2470     1.0  0.61591  0.88368  0.12859  1.0000
  H   H2471     1.0  0.59002  0.88067  0.11897  1.0000
  C   C2060     1.0  0.51902  0.82439  0.20077  1.0000
  C   C2061     1.0  0.50875  0.83915  0.20657  1.0000
  C   C2062     1.0  0.51515  0.84756  0.21593  1.0000
  C   C2063     1.0  0.53157  0.84085  0.22025  1.0000
  C   C2064     1.0  0.54176  0.82572  0.21488  1.0000
  C   C2065     1.0  0.53555  0.81759  0.20497  1.0000
  H   H2472     1.0  0.54738  0.93189  0.15391  1.0000
  H   H2473     1.0  0.49881  0.71685  0.26428  1.0000
  H   H2474     1.0  0.55452  0.82046  0.21813  1.0000
  H   H2475     1.0  0.54351  0.80604  0.20067  1.0000
  C   C2066     1.0  0.51612  0.79317  0.10175  1.0000
  H   H2476     1.0  0.70953  0.97880  0.11929  1.0000
  H   H2477     1.0  0.54624  0.76994  0.27879  1.0000
  H   H2478     1.0  0.54271  0.77156  0.25767  1.0000
  H   H2479     1.0  0.57269  0.65757  0.22349  1.0000
  H   H2480     1.0  0.68533  0.94888  0.30351  1.0000
  Fe  Fe282     1.0  0.61696  0.98217  0.27973  1.0000
  H   H2481     1.0  0.50480  0.86673  0.27986  1.0000
  H   H2482     1.0  0.51173  0.86305  0.14533  1.0000
  H   H2483     1.0  0.52915  0.66647  0.21089  1.0000
  C   C2067     1.0  0.51841  0.90482  0.16841  1.0000
  C   C2068     1.0  0.50862  0.66962  0.25497  1.0000
  H   H2484     1.0  0.65620  0.95445  0.14745  1.0000
  S   S580      1.0  0.62667  0.97399  0.30474  1.0000
  H   H2485     1.0  0.53096  0.87152  0.13519  1.0000
  C   C2069     1.0  0.52731  0.89108  0.15956  1.0000
  C   C2070     1.0  0.49914  0.74378  0.33186  1.0000
  C   C2071     1.0  0.56031  0.74871  0.21953  1.0000
  C   C2072     1.0  0.55315  0.76424  0.20952  1.0000
  C   C2073     1.0  0.56153  0.76964  0.19247  1.0000
  C   C2074     1.0  0.57714  0.75959  0.18524  1.0000
  C   C2075     1.0  0.58447  0.74403  0.19526  1.0000
  C   C2076     1.0  0.57601  0.73854  0.21247  1.0000
  H   H2486     1.0  0.54107  0.77220  0.21492  1.0000
  H   H2487     1.0  0.55585  0.78168  0.18502  1.0000
  H   H2488     1.0  0.59655  0.73619  0.18972  1.0000
  H   H2489     1.0  0.58160  0.72653  0.22022  1.0000
  C   C2077     1.0  0.52214  0.67628  0.25709  1.0000
  H   H2490     1.0  0.68686  0.96666  0.42160  1.0000
  C   C2078     1.0  0.53664  0.94431  0.24992  1.0000
  C   C2079     1.0  0.51574  0.70115  0.23428  1.0000
  C   C2080     1.0  0.52560  0.69210  0.24682  1.0000
  H   H2491     1.0  0.57732  0.68642  0.33381  1.0000
  H   H2492     1.0  0.53590  0.69745  0.24840  1.0000
  C   C2081     1.0  0.52560  0.72288  0.32336  1.0000
  C   C2082     1.0  0.51748  0.73849  0.32892  1.0000
  N   N136      1.0  0.68423  0.97218  0.28371  1.0000
  C   C2083     1.0  0.51531  0.71255  0.32087  1.0000
  H   H2493     1.0  0.52538  0.74652  0.33086  1.0000
  H   H2494     1.0  0.52145  0.70039  0.31681  1.0000
  C   C2084     1.0  0.49564  0.80231  0.26700  1.0000
  H   H2495     1.0  0.53558  0.74968  0.16551  1.0000
  C   C2085     1.0  0.66790  0.95962  0.14137  1.0000
  C   C2086     1.0  0.68052  0.95174  0.12891  1.0000
  C   C2087     1.0  0.69551  0.95880  0.12093  1.0000
  C   C2088     1.0  0.69784  0.97363  0.12535  1.0000
  H   H2496     1.0  0.62193  0.69499  0.32648  1.0000
  C   C2089     1.0  0.56301  0.88043  0.18921  1.0000
  Fe  Fe283     1.0  0.73373  0.92936  0.25964  1.0000
  C   C2090     1.0  0.61623  0.85212  0.20372  1.0000
  H   H2497     1.0  0.55379  0.89075  0.18230  1.0000
  C   C2091     1.0  0.67927  0.94649  0.24525  1.0000
  S   S581      1.0  0.53764  0.93441  0.21937  1.0000
  H   H2498     1.0  0.59486  0.90513  0.28203  1.0000
  H   H2499     1.0  0.74400  0.97038  0.19940  1.0000
  H   H2500     1.0  0.50333  0.75700  0.28673  1.0000
  C   C2092     1.0  0.55851  0.95361  0.22524  1.0000
  S   S582      1.0  0.51921  0.89826  0.21203  1.0000
  C   C2093     1.0  0.60264  0.92786  0.25288  1.0000
  H   H2501     1.0  0.72678  0.97325  0.05758  1.0000
  C   C2094     1.0  0.69148  0.95612  0.07918  1.0000
  H   H2502     1.0  0.66011  0.98066  0.15510  1.0000
  C   C2095     1.0  0.53231  0.85981  0.16834  1.0000
  H   H2503     1.0  0.64979  0.87561  0.26606  1.0000
  H   H2504     1.0  0.56342  0.90848  0.13788  1.0000
  H   H2505     1.0  0.63406  0.87158  0.22101  1.0000
  Fe  Fe284     1.0  0.49804  0.65705  0.18514  1.0000
  H   H2506     1.0  0.57194  0.65155  0.26455  1.0000
  C   C2096     1.0  0.55088  0.90743  0.14650  1.0000
  C   C2097     1.0  0.61291  0.89787  0.25020  1.0000
  C   C2098     1.0  0.72019  0.94036  0.20182  1.0000
  H   H2507     1.0  0.62946  0.84689  0.19755  1.0000
  H   H2508     1.0  0.59922  0.70158  0.33558  1.0000
  C   C2099     1.0  0.58809  0.67474  0.33309  1.0000
  H   H2509     1.0  0.58059  0.90294  0.24220  1.0000
  C   C2100     1.0  0.62446  0.65462  0.27317  1.0000
  N   N137      1.0  0.57713  0.88737  0.19212  1.0000
  C   C2101     1.0  0.56915  0.90137  0.20213  1.0000
  C   C2102     1.0  0.54187  0.92060  0.15547  1.0000
  C   C2103     1.0  0.58857  0.87314  0.20188  1.0000
  C   C2104     1.0  0.71797  0.97402  0.40821  1.0000
  C   C2105     1.0  0.58205  0.86535  0.21922  1.0000
  C   C2106     1.0  0.60982  0.69007  0.33343  1.0000
  C   C2107     1.0  0.59240  0.85151  0.22850  1.0000
  C   C2108     1.0  0.60950  0.84495  0.22079  1.0000
  H   H2510     1.0  0.57937  0.90619  0.20552  1.0000
  H   H2511     1.0  0.56130  0.91275  0.19468  1.0000
  H   H2512     1.0  0.55990  0.89726  0.21428  1.0000
  H   H2513     1.0  0.55506  0.87464  0.20159  1.0000
  C   C2109     1.0  0.53484  0.65266  0.21583  1.0000
  S   S583      1.0  0.52250  0.89365  0.25249  1.0000
  H   H2514     1.0  0.56869  0.86957  0.22560  1.0000
  H   H2515     1.0  0.52226  0.77418  0.30302  1.0000
  H   H2516     1.0  0.58694  0.84565  0.24163  1.0000
  H   H2517     1.0  0.64454  0.97333  0.33141  1.0000
  H   H2518     1.0  0.55123  0.88303  0.14127  1.0000
  C   C2110     1.0  0.56467  0.96158  0.23542  1.0000
  H   H2519     1.0  0.52979  0.73495  0.15571  1.0000
  H   H2520     1.0  0.51527  0.76670  0.10260  1.0000
  C   C2111     1.0  0.58651  0.89541  0.17496  1.0000
  Fe  Fe285     1.0  0.52068  0.87683  0.23526  1.0000
  H   H2521     1.0  0.67671  0.95468  0.19841  1.0000
  N   N138      1.0  0.60515  0.67941  0.32362  1.0000
  H   H2522     1.0  0.68183  0.96527  0.17619  1.0000
  H   H2523     1.0  0.65043  0.65472  0.25768  1.0000
  C   C2112     1.0  0.60247  0.69018  0.30650  1.0000
  C   C2113     1.0  0.71535  0.96456  0.17799  1.0000
  C   C2114     1.0  0.49874  0.67869  0.24240  1.0000
  C   C2115     1.0  0.64984  0.65225  0.30836  1.0000
  C   C2116     1.0  0.64022  0.87937  0.25780  1.0000
  H   H2524     1.0  0.53955  0.79093  0.26568  1.0000
  C   C2117     1.0  0.64322  0.87183  0.24347  1.0000
  C   C2118     1.0  0.66960  0.95305  0.27395  1.0000
  S   S584      1.0  0.56306  0.97184  0.26609  1.0000
  C   C2119     1.0  0.68059  0.97037  0.08546  1.0000
  H   H2525     1.0  0.55323  0.67382  0.22059  1.0000
  C   C2120     1.0  0.50786  0.74043  0.18635  1.0000
  H   H2526     1.0  0.68724  0.94383  0.08260  1.0000
  H   H2527     1.0  0.59069  0.70083  0.30768  1.0000
  N   N139      1.0  0.59720  0.91142  0.25413  1.0000
  H   H2528     1.0  0.70558  0.95037  0.15559  1.0000
  H   H2529     1.0  0.72476  0.96451  0.41805  1.0000
  C   C2121     1.0  0.58732  0.90619  0.27199  1.0000
  H   H2530     1.0  0.73812  0.94210  0.21677  1.0000
  H   H2531     1.0  0.61331  0.97349  0.21208  1.0000
  H   H2532     1.0  0.62388  0.89801  0.27213  1.0000
  H   H2533     1.0  0.69918  0.95946  0.22825  1.0000
  S   S585      1.0  0.73774  0.95608  0.24648  1.0000
  H   H2534     1.0  0.59118  0.93858  0.25528  1.0000
  H   H2535     1.0  0.51176  0.72638  0.18592  1.0000
  C   C2122     1.0  0.72694  0.97234  0.18217  1.0000
  C   C2123     1.0  0.69043  0.97525  0.42834  1.0000
  Fe  Fe286     1.0  0.58856  0.98121  0.26132  1.0000
  C   C2124     1.0  0.51814  0.87402  0.14426  1.0000
  C   C2125     1.0  0.61954  0.66419  0.32135  1.0000
  C   C2126     1.0  0.61656  0.89013  0.23548  1.0000
  C   C2127     1.0  0.71157  0.94833  0.18770  1.0000
  C   C2128     1.0  0.51423  0.78255  0.29357  1.0000
  H   H2536     1.0  0.51636  0.79594  0.29179  1.0000
  H   H2537     1.0  0.66053  0.95111  0.28620  1.0000
  H   H2538     1.0  0.54541  0.85794  0.15965  1.0000
  H   H2539     1.0  0.57551  0.96814  0.22972  1.0000
  H   H2540     1.0  0.51731  0.74322  0.19270  1.0000
  C   C2129     1.0  0.50248  0.69433  0.23191  1.0000
  C   C2130     1.0  0.50254  0.76973  0.17054  1.0000
  H   H2541     1.0  0.57284  0.92431  0.24619  1.0000
  H   H2542     1.0  0.61359  0.69656  0.29932  1.0000
  H   H2543     1.0  0.71798  0.92941  0.16319  1.0000
  H   H2544     1.0  0.57783  0.90665  0.16834  1.0000
  C   C2131     1.0  0.60597  0.86596  0.19434  1.0000
  C   C2132     1.0  0.69656  0.92357  0.19440  1.0000
  H   H2545     1.0  0.57503  0.91588  0.27503  1.0000
  Fe  Fe287     1.0  0.51882  0.91564  0.22983  1.0000
  H   H2546     1.0  0.51870  0.92950  0.17344  1.0000
  C   C2133     1.0  0.68153  0.95244  0.18494  1.0000
  C   C2134     1.0  0.55831  0.65966  0.22452  1.0000
  H   H2547     1.0  0.52529  0.74996  0.29036  1.0000
  C   C2135     1.0  0.62536  0.89225  0.26111  1.0000
  C   C2136     1.0  0.53766  0.77728  0.26947  1.0000
  S   S586      1.0  0.73509  0.90895  0.24519  1.0000
  H   H2548     1.0  0.65502  0.86219  0.24067  1.0000
  H   H2549     1.0  0.50578  0.90475  0.17703  1.0000
  H   H2550     1.0  0.58849  0.66798  0.34671  1.0000
  N   N140      1.0  0.51900  0.77652  0.27689  1.0000
  N   N141      1.0  0.52012  0.87551  0.16143  1.0000
  H   H2551     1.0  0.52769  0.75754  0.14592  1.0000
  H   H2552     1.0  0.71807  0.92810  0.21009  1.0000
  C   C2137     1.0  0.70482  0.93803  0.16508  1.0000
  C   C2138     1.0  0.55659  0.96123  0.25285  1.0000
  H   H2553     1.0  0.52140  0.75213  0.26936  1.0000
  H   H2554     1.0  0.60832  0.89403  0.22599  1.0000
  H   H2555     1.0  0.68706  0.91815  0.19054  1.0000
  H   H2556     1.0  0.50751  0.85944  0.21946  1.0000
  C   C2139     1.0  0.69097  0.95762  0.24104  1.0000
  N   N142      1.0  0.69890  0.94062  0.18321  1.0000
  H   H2557     1.0  0.50373  0.77885  0.15777  1.0000
  H   H2558     1.0  0.69129  0.92452  0.20823  1.0000
  N   N143      1.0  0.62782  0.79239  0.14936  1.0000
  C   C2140     1.0  0.61143  0.79560  0.16238  1.0000
  C   C2141     1.0  0.62773  0.77747  0.14198  1.0000
  C   C2142     1.0  0.64263  0.78723  0.15859  1.0000
  C   C2143     1.0  0.62881  0.80806  0.13547  1.0000
  C   C2144     1.0  0.64154  0.81836  0.13269  1.0000
  C   C2145     1.0  0.61631  0.81385  0.12462  1.0000
  C   C2146     1.0  0.64163  0.83343  0.11983  1.0000
  C   C2147     1.0  0.61653  0.82893  0.11182  1.0000
  C   C2148     1.0  0.62913  0.83873  0.10946  1.0000
  H   H2559     1.0  0.59962  0.79875  0.15661  1.0000
  H   H2560     1.0  0.61000  0.78402  0.17298  1.0000
  H   H2561     1.0  0.61095  0.80657  0.16841  1.0000
  H   H2562     1.0  0.61584  0.77931  0.13663  1.0000
  H   H2563     1.0  0.62759  0.76531  0.15203  1.0000
  H   H2564     1.0  0.63935  0.77519  0.13143  1.0000
  H   H2565     1.0  0.64272  0.79733  0.16560  1.0000
  H   H2566     1.0  0.64173  0.77513  0.16858  1.0000
  H   H2567     1.0  0.65542  0.78478  0.14946  1.0000
  H   H2568     1.0  0.65124  0.81545  0.14058  1.0000
  H   H2569     1.0  0.60590  0.80707  0.12632  1.0000
  H   H2570     1.0  0.65100  0.84147  0.11841  1.0000
  H   H2571     1.0  0.60641  0.83341  0.10416  1.0000
  H   H2572     1.0  0.62889  0.85074  0.09995  1.0000
  H   H2573     1.0  0.70902  0.91377  0.19343  1.0000
  H   H2574     1.0  0.51857  0.71333  0.22628  1.0000
  C   C2149     1.0  0.50989  0.78019  0.09795  1.0000
  H   H2575     1.0  0.58408  0.66638  0.32646  1.0000
  H   H2576     1.0  0.70931  0.97143  0.16707  1.0000
  C   C2150     1.0  0.73179  0.94828  0.20585  1.0000
  C   C2151     1.0  0.58491  0.91487  0.24223  1.0000
  H   H2577     1.0  0.69567  0.93199  0.16135  1.0000
  C   C2152     1.0  0.66839  0.94447  0.26154  1.0000
  C   C2153     1.0  0.73512  0.96424  0.19611  1.0000
  H   H2578     1.0  0.58364  0.89347  0.27372  1.0000
  C   C2154     1.0  0.63144  0.87721  0.23234  1.0000
  H   H2579     1.0  0.52585  0.93766  0.25564  1.0000
  C   C2155     1.0  0.49700  0.71755  0.32434  1.0000
  C   C2156     1.0  0.52571  0.91926  0.16641  1.0000
  C   C2157     1.0  0.50824  0.78701  0.26411  1.0000
  H   H2580     1.0  0.50457  0.78943  0.22234  1.0000
  H   H2581     1.0  0.52728  0.84785  0.16989  1.0000
  C   C2158     1.0  0.50272  0.87570  0.17329  1.0000
  C   C2159     1.0  0.69229  0.96627  0.25334  1.0000
  H   H2582     1.0  0.59075  0.92062  0.22872  1.0000
  H   H2583     1.0  0.52053  0.77135  0.24441  1.0000
  H   H2584     1.0  0.65907  0.93603  0.26462  1.0000
  H   H2585     1.0  0.53425  0.86037  0.18124  1.0000
  C   C2160     1.0  0.52592  0.74824  0.15854  1.0000
  C   C2161     1.0  0.68227  0.96355  0.27049  1.0000
  H   H2586     1.0  0.55549  0.67039  0.19133  1.0000
  H   H2587     1.0  0.50030  0.78229  0.29990  1.0000
  H   H2588     1.0  0.60079  0.68212  0.29810  1.0000
  C   C2162     1.0  0.50944  0.81055  0.09524  1.0000
  C   C2163     1.0  0.70273  0.97349  0.28194  1.0000
  H   H2589     1.0  0.49607  0.71648  0.28696  1.0000
  H   H2590     1.0  0.66426  0.96327  0.30512  1.0000
  C   C2164     1.0  0.63608  0.66640  0.31073  1.0000
  H   H2591     1.0  0.71171  0.96070  0.28128  1.0000
  C   C2165     1.0  0.67857  0.96274  0.30167  1.0000
  H   H2592     1.0  0.49659  0.69729  0.28012  1.0000
  N   N144      1.0  0.50773  0.75135  0.16874  1.0000
  H   H2593     1.0  0.68122  0.96851  0.31157  1.0000
  H   H2594     1.0  0.70147  0.97482  0.24928  1.0000
  C   C2166     1.0  0.71374  0.97317  0.06524  1.0000
  H   H2595     1.0  0.50190  0.86037  0.32478  1.0000
  Fe  Fe288     1.0  0.62634  0.97748  0.24269  1.0000
  C   C2167     1.0  0.49565  0.74770  0.15969  1.0000
  H   H2596     1.0  0.71401  0.96630  0.40080  1.0000
  C   C2168     1.0  0.49570  0.84377  0.29495  1.0000
  C   C2169     1.0  0.68510  0.98156  0.13771  1.0000
  H   H2597     1.0  0.66214  0.65416  0.29969  1.0000
  H   H2598     1.0  0.67795  0.98334  0.43389  1.0000
  C   C2170     1.0  0.49663  0.81482  0.08500  1.0000
  H   H2599     1.0  0.50303  0.76563  0.13548  1.0000
  H   H2600     1.0  0.51002  0.88607  0.13808  1.0000
  H   H2601     1.0  0.50331  0.87624  0.18667  1.0000
  H   H2602     1.0  0.49614  0.84448  0.20311  1.0000
  H   H2603     1.0  0.71653  0.94625  0.06453  1.0000
  H   H2604     1.0  0.70730  0.98294  0.27025  1.0000
  C   C2171     1.0  0.79228  0.22312  0.34220  1.0000
  S   S587      1.0  0.76255  0.99737  0.16013  1.0000
  H   H2605     1.0  0.81748  0.30523  0.02328  1.0000
  C   C2172     1.0  0.78108  0.21805  0.06041  1.0000
  H   H2606     1.0  0.82074  0.18416  0.33760  1.0000
  C   C2173     1.0  0.84439  0.17355  0.99251  1.0000
  S   S588      1.0  0.85041  0.00897  0.21980  1.0000
  S   S589      1.0  0.82343  0.01812  0.18231  1.0000
  Fe  Fe289     1.0  0.83082  0.00151  0.24389  1.0000
  S   S590      1.0  0.81514  0.01628  0.26484  1.0000
  H   H2607     1.0  0.78052  0.00689  0.31794  1.0000
  C   C2174     1.0  0.77512  0.00246  0.28900  1.0000
  S   S591      1.0  0.84227  0.22355  0.00633  1.0000
  S   S592      1.0  0.80040  0.20536  0.01110  1.0000
  Fe  Fe290     1.0  0.83530  0.25215  0.99535  1.0000
  S   S593      1.0  0.82968  0.27621  0.00682  1.0000
  H   H2608     1.0  0.82826  0.14459  0.98066  1.0000
  H   H2609     1.0  0.74974  0.21226  0.98244  1.0000
  C   C2175     1.0  0.82254  0.29436  0.03267  1.0000
  H   H2610     1.0  0.76434  0.25225  0.98085  1.0000
  H   H2611     1.0  0.74641  0.09541  0.40958  1.0000
  H   H2612     1.0  0.88855  0.26117  0.45937  1.0000
  H   H2613     1.0  0.76096  0.99865  0.32312  1.0000
  C   C2176     1.0  0.75577  0.05333  0.02598  1.0000
  S   S594      1.0  0.75031  0.02424  0.07436  1.0000
  S   S595      1.0  0.78384  0.31546  0.08537  1.0000
  H   H2614     1.0  0.79826  0.30230  0.00080  1.0000
  H   H2615     1.0  0.86692  0.24016  0.43887  1.0000
  Fe  Fe291     1.0  0.81504  0.09667  0.29644  1.0000
  S   S596      1.0  0.81153  0.12583  0.28944  1.0000
  S   S597      1.0  0.83721  0.07900  0.28192  1.0000
  Fe  Fe292     1.0  0.77938  0.09795  0.31960  1.0000
  S   S598      1.0  0.77233  0.12681  0.31366  1.0000
  Fe  Fe293     1.0  0.78497  0.12490  0.28622  1.0000
  Fe  Fe294     1.0  0.79932  0.12542  0.31786  1.0000
  S   S599      1.0  0.79554  0.14384  0.33621  1.0000
  S   S600      1.0  0.78904  0.09618  0.29187  1.0000
  S   S601      1.0  0.80563  0.09624  0.32512  1.0000
  Fe  Fe295     1.0  0.84000  0.19277  0.42735  1.0000
  S   S602      1.0  0.81221  0.20577  0.43537  1.0000
  S   S603      1.0  0.86244  0.19393  0.43883  1.0000
  Fe  Fe296     1.0  0.83143  0.17661  0.40065  1.0000
  S   S604      1.0  0.80300  0.18833  0.40680  1.0000
  S   S605      1.0  0.84232  0.15971  0.38047  1.0000
  Fe  Fe297     1.0  0.81178  0.21224  0.40702  1.0000
  S   S606      1.0  0.79937  0.23921  0.39555  1.0000
  Fe  Fe298     1.0  0.80591  0.18088  0.43440  1.0000
  S   S607      1.0  0.78619  0.16894  0.45541  1.0000
  S   S608      1.0  0.84031  0.20129  0.39872  1.0000
  S   S609      1.0  0.83378  0.16696  0.42854  1.0000
  H   H2616     1.0  0.76627  0.09625  0.39349  1.0000
  H   H2617     1.0  0.84130  0.21488  0.46540  1.0000
  S   S610      1.0  0.74552  0.12987  0.01736  1.0000
  N   N145      1.0  0.78081  0.98814  0.30306  1.0000
  H   H2618     1.0  0.75876  0.26626  0.09612  1.0000
  C   C2177     1.0  0.74962  0.29358  0.41806  1.0000
  C   C2178     1.0  0.77833  0.24211  0.39144  1.0000
  C   C2179     1.0  0.77144  0.22801  0.39125  1.0000
  C   C2180     1.0  0.82047  0.26890  0.44049  1.0000
  C   C2181     1.0  0.78833  0.10216  0.22000  1.0000
  H   H2619     1.0  0.88574  0.25800  0.43929  1.0000
  C   C2182     1.0  0.76828  0.25889  0.38837  1.0000
  H   H2620     1.0  0.77908  0.21509  0.39332  1.0000
  H   H2621     1.0  0.82026  0.12397  0.21636  1.0000
  H   H2622     1.0  0.75112  0.23140  0.33323  1.0000
  H   H2623     1.0  0.77355  0.26988  0.38839  1.0000
  C   C2183     1.0  0.80888  0.14622  0.34938  1.0000
  C   C2184     1.0  0.82713  0.14136  0.34558  1.0000
  C   C2185     1.0  0.83722  0.14538  0.35535  1.0000
  C   C2186     1.0  0.82916  0.15425  0.36897  1.0000
  C   C2187     1.0  0.81089  0.15856  0.37314  1.0000
  C   C2188     1.0  0.80084  0.15460  0.36337  1.0000
  H   H2624     1.0  0.83349  0.13496  0.33481  1.0000
  H   H2625     1.0  0.85135  0.14185  0.35212  1.0000
  H   H2626     1.0  0.80448  0.16505  0.38379  1.0000
  H   H2627     1.0  0.78671  0.15835  0.36644  1.0000
  S   S611      1.0  0.76185  0.28985  0.44767  1.0000
  H   H2628     1.0  0.75327  0.24856  0.02415  1.0000
  C   C2189     1.0  0.76739  0.14614  0.45378  1.0000
  C   C2190     1.0  0.77241  0.16196  0.44618  1.0000
  C   C2191     1.0  0.76665  0.17184  0.43118  1.0000
  H   H2629     1.0  0.76011  0.13665  0.23330  1.0000
  H   H2630     1.0  0.77731  0.20891  0.33345  1.0000
  Fe  Fe299     1.0  0.83358  0.00115  0.20586  1.0000
  S   S612      1.0  0.74755  0.09341  0.44776  1.0000
  H   H2631     1.0  0.77292  0.26926  0.10816  1.0000
  C   C2192     1.0  0.75626  0.07186  0.23654  1.0000
  H   H2632     1.0  0.86768  0.28856  0.43427  1.0000
  C   C2193     1.0  0.88445  0.19616  0.45797  1.0000
  C   C2194     1.0  0.86709  0.20094  0.45585  1.0000
  C   C2195     1.0  0.75068  0.08423  0.24705  1.0000
  H   H2633     1.0  0.80697  0.07840  0.25161  1.0000
  C   C2196     1.0  0.75564  0.13264  0.26111  1.0000
  H   H2634     1.0  0.89416  0.18861  0.44943  1.0000
  H   H2635     1.0  0.75886  0.02912  0.24492  1.0000
  H   H2636     1.0  0.76588  0.10436  0.20906  1.0000
  H   H2637     1.0  0.82632  0.22667  0.33924  1.0000
  C   C2197     1.0  0.79350  0.19636  0.98331  1.0000
  H   H2638     1.0  0.79158  0.28272  0.03389  1.0000
  H   H2639     1.0  0.74897  0.07347  0.22661  1.0000
  S   S613      1.0  0.77596  0.13689  0.26105  1.0000
  H   H2640     1.0  0.78105  0.99950  0.27594  1.0000
  C   C2198     1.0  0.77914  0.24983  0.02463  1.0000
  H   H2641     1.0  0.79494  0.28433  0.99385  1.0000
  H   H2642     1.0  0.81991  0.16173  0.46789  1.0000
  C   C2199     1.0  0.78742  0.09988  0.46670  1.0000
  C   C2200     1.0  0.78827  0.27164  0.07453  1.0000
  H   H2643     1.0  0.77194  0.13849  0.46525  1.0000
  C   C2201     1.0  0.78943  0.09136  0.19454  1.0000
  C   C2202     1.0  0.76116  0.25638  0.02646  1.0000
  H   H2644     1.0  0.74732  0.12801  0.28887  1.0000
  H   H2645     1.0  0.77457  0.98849  0.19202  1.0000
  H   H2646     1.0  0.85079  0.29556  0.45165  1.0000
  C   C2203     1.0  0.80658  0.09252  0.24954  1.0000
  N   N146      1.0  0.84419  0.16228  0.98082  1.0000
  C   C2204     1.0  0.82970  0.27817  0.02801  1.0000
  C   C2205     1.0  0.83654  0.26431  0.04016  1.0000
  C   C2206     1.0  0.83647  0.26681  0.05673  1.0000
  C   C2207     1.0  0.82906  0.28300  0.06145  1.0000
  H   H2647     1.0  0.85580  0.18010  0.98801  1.0000
  C   C2208     1.0  0.87968  0.25712  0.45328  1.0000
  H   H2648     1.0  0.84229  0.25183  0.03667  1.0000
  H   H2649     1.0  0.84222  0.25619  0.06592  1.0000
  H   H2650     1.0  0.77528  0.18345  0.02564  1.0000
  Fe  Fe300     1.0  0.80990  0.30861  0.09294  1.0000
  C   C2209     1.0  0.77082  0.25988  0.10133  1.0000
  H   H2651     1.0  0.78463  0.23520  0.43710  1.0000
  C   C2210     1.0  0.79000  0.19486  0.00127  1.0000
  C   C2211     1.0  0.77809  0.18465  0.01172  1.0000
  C   C2212     1.0  0.76990  0.17579  0.00429  1.0000
  N   N147      1.0  0.80832  0.20951  0.34343  1.0000
  H   H2652     1.0  0.75215  0.17304  0.41175  1.0000
  C   C2213     1.0  0.82199  0.03333  0.26950  1.0000
  C   C2214     1.0  0.81158  0.04144  0.28299  1.0000
  C   C2215     1.0  0.81630  0.05525  0.28698  1.0000
  C   C2216     1.0  0.83149  0.06113  0.27752  1.0000
  C   C2217     1.0  0.84202  0.05291  0.26411  1.0000
  C   C2218     1.0  0.83724  0.03911  0.26002  1.0000
  H   H2653     1.0  0.79988  0.03694  0.29054  1.0000
  H   H2654     1.0  0.80842  0.06104  0.29772  1.0000
  H   H2655     1.0  0.85392  0.05722  0.25687  1.0000
  H   H2656     1.0  0.84545  0.03286  0.24968  1.0000
  H   H2657     1.0  0.76580  0.02758  0.03884  1.0000
  H   H2658     1.0  0.80753  0.19772  0.32269  1.0000
  C   C2219     1.0  0.79143  0.29864  0.99234  1.0000
  H   H2659     1.0  0.78280  0.08952  0.18526  1.0000
  H   H2660     1.0  0.75349  0.12747  0.45216  1.0000
  C   C2220     1.0  0.77772  0.00535  0.16687  1.0000
  C   C2221     1.0  0.78688  0.01775  0.15583  1.0000
  C   C2222     1.0  0.80061  0.02190  0.16085  1.0000
  C   C2223     1.0  0.80532  0.01363  0.17685  1.0000
  H   H2661     1.0  0.77677  0.01749  0.23130  1.0000
  H   H2662     1.0  0.77112  0.25273  0.42552  1.0000
  H   H2663     1.0  0.78383  0.02368  0.14319  1.0000
  H   H2664     1.0  0.80794  0.03118  0.15208  1.0000
  H   H2665     1.0  0.84196  0.09648  0.21717  1.0000
  H   H2666     1.0  0.75985  0.07920  0.37653  1.0000
  N   N148      1.0  0.80862  0.11755  0.42028  1.0000
  C   C2224     1.0  0.81374  0.10097  0.41403  1.0000
  C   C2225     1.0  0.79325  0.12831  0.41320  1.0000
  C   C2226     1.0  0.82343  0.12677  0.41295  1.0000
  C   C2227     1.0  0.80400  0.11418  0.43947  1.0000
  C   C2228     1.0  0.79178  0.10348  0.44860  1.0000
  C   C2229     1.0  0.81097  0.12167  0.44961  1.0000
  C   C2230     1.0  0.86332  0.28629  0.44861  1.0000
  H   H2667     1.0  0.76221  0.10773  0.06296  1.0000
  H   H2668     1.0  0.75010  0.12644  0.36750  1.0000
  H   H2669     1.0  0.80263  0.09426  0.41673  1.0000
  H   H2670     1.0  0.81852  0.10302  0.39971  1.0000
  H   H2671     1.0  0.82438  0.09193  0.42017  1.0000
  H   H2672     1.0  0.79601  0.13085  0.39878  1.0000
  H   H2673     1.0  0.78937  0.14109  0.41716  1.0000
  H   H2674     1.0  0.78162  0.12212  0.41784  1.0000
  H   H2675     1.0  0.82741  0.12807  0.39863  1.0000
  H   H2676     1.0  0.81993  0.14025  0.41526  1.0000
  H   H2677     1.0  0.83526  0.11973  0.41834  1.0000
  H   H2678     1.0  0.78524  0.09803  0.44182  1.0000
  H   H2679     1.0  0.81969  0.13062  0.44387  1.0000
  H   H2680     1.0  0.82756  0.28414  0.45435  1.0000
  C   C2231     1.0  0.74532  0.04272  0.31903  1.0000
  H   H2681     1.0  0.75430  0.04889  0.21679  1.0000
  C   C2232     1.0  0.79858  0.23515  0.06653  1.0000
  H   H2682     1.0  0.80384  0.03672  0.23204  1.0000
  H   H2683     1.0  0.83996  0.09305  0.24005  1.0000
  C   C2233     1.0  0.79620  0.04239  0.22163  1.0000
  H   H2684     1.0  0.78039  0.10889  0.23007  1.0000
  H   H2685     1.0  0.82169  0.19321  0.36345  1.0000
  H   H2686     1.0  0.80102  0.03355  0.21221  1.0000
  H   H2687     1.0  0.76556  0.22968  0.99077  1.0000
  S   S614      1.0  0.76048  0.08322  0.33875  1.0000
  C   C2234     1.0  0.77308  0.02784  0.23904  1.0000
  H   H2688     1.0  0.74939  0.25901  0.34160  1.0000
  H   H2689     1.0  0.76819  0.24818  0.11133  1.0000
  H   H2690     1.0  0.76663  0.04637  0.29738  1.0000
  C   C2235     1.0  0.77318  0.06950  0.26330  1.0000
  H   H2691     1.0  0.76056  0.29458  0.03739  1.0000
  C   C2236     1.0  0.82406  0.21656  0.33356  1.0000
  H   H2692     1.0  0.77625  0.27769  0.06915  1.0000
  C   C2237     1.0  0.75025  0.11300  0.36661  1.0000
  H   H2693     1.0  0.79931  0.26933  0.06350  1.0000
  C   C2238     1.0  0.80850  0.19414  0.33659  1.0000
  C   C2239     1.0  0.77756  0.22071  0.33708  1.0000
  C   C2240     1.0  0.77991  0.09972  0.20798  1.0000
  C   C2241     1.0  0.85468  0.21082  0.46706  1.0000
  H   H2694     1.0  0.80815  0.21764  0.04864  1.0000
  C   C2242     1.0  0.82557  0.25472  0.43238  1.0000
  H   H2695     1.0  0.76162  0.24807  0.47506  1.0000
  C   C2243     1.0  0.79566  0.00178  0.18814  1.0000
  C   C2244     1.0  0.80744  0.08540  0.19307  1.0000
  H   H2696     1.0  0.80106  0.24173  0.35166  1.0000
  H   H2697     1.0  0.77792  0.09179  0.47341  1.0000
  H   H2698     1.0  0.78466  0.23730  0.02113  1.0000
  C   C2245     1.0  0.81380  0.11824  0.22960  1.0000
  H   H2699     1.0  0.76095  0.16775  0.01245  1.0000
  C   C2246     1.0  0.75109  0.13343  0.24537  1.0000
  C   C2247     1.0  0.79004  0.25922  0.02746  1.0000
  C   C2248     1.0  0.76187  0.23431  0.47756  1.0000
  C   C2249     1.0  0.75141  0.26154  0.38515  1.0000
  C   C2250     1.0  0.74790  0.04225  0.05696  1.0000
  H   H2700     1.0  0.79277  0.09933  0.25295  1.0000
  H   H2701     1.0  0.81482  0.07887  0.18258  1.0000
  H   H2702     1.0  0.79994  0.12528  0.23180  1.0000
  Fe  Fe301     1.0  0.76500  0.30942  0.46113  1.0000
  C   C2251     1.0  0.80979  0.20350  0.36184  1.0000
  C   C2252     1.0  0.86046  0.14873  0.98014  1.0000
  H   H2703     1.0  0.77466  0.26411  0.35022  1.0000
  H   H2704     1.0  0.77609  0.06738  0.30866  1.0000
  C   C2253     1.0  0.80177  0.24918  0.09548  1.0000
  H   H2705     1.0  0.81652  0.25157  0.42633  1.0000
  C   C2254     1.0  0.75224  0.10259  0.39672  1.0000
  H   H2706     1.0  0.87970  0.24325  0.45947  1.0000
  C   C2255     1.0  0.76807  0.23720  0.08076  1.0000
  C   C2256     1.0  0.80664  0.09617  0.21898  1.0000
  H   H2707     1.0  0.81646  0.30924  0.05275  1.0000
  C   C2257     1.0  0.81600  0.08769  0.20509  1.0000
  C   C2258     1.0  0.77561  0.25206  0.34629  1.0000
  S   S615      1.0  0.75079  0.03625  0.11856  1.0000
  N   N149      1.0  0.81526  0.09933  0.23165  1.0000
  H   H2708     1.0  0.76981  0.18445  0.42562  1.0000
  C   C2259     1.0  0.75994  0.22644  0.46460  1.0000
  H   H2709     1.0  0.78039  0.02319  0.24980  1.0000
  H   H2710     1.0  0.81423  0.24809  0.08577  1.0000
  H   H2711     1.0  0.84624  0.23340  0.42592  1.0000
  H   H2712     1.0  0.78950  0.04654  0.25598  1.0000
  H   H2713     1.0  0.80401  0.25409  0.02599  1.0000
  H   H2714     1.0  0.75632  0.24220  0.08935  1.0000
  S   S616      1.0  0.82842  0.28562  0.08259  1.0000
  H   H2715     1.0  0.79896  0.99545  0.20056  1.0000
  H   H2716     1.0  0.75046  0.05726  0.17444  1.0000
  H   H2717     1.0  0.83611  0.07674  0.23121  1.0000
  C   C2260     1.0  0.75448  0.22706  0.43574  1.0000
  C   C2261     1.0  0.80650  0.11799  0.46773  1.0000
  C   C2262     1.0  0.82953  0.16379  0.47452  1.0000
  H   H2718     1.0  0.79985  0.05501  0.21489  1.0000
  H   H2719     1.0  0.79762  0.18748  0.34403  1.0000
  C   C2263     1.0  0.82197  0.29670  0.04936  1.0000
  H   H2720     1.0  0.82995  0.08273  0.20318  1.0000
  H   H2721     1.0  0.75423  0.22131  0.07371  1.0000
  H   H2722     1.0  0.75021  0.07338  0.07856  1.0000
  N   N150      1.0  0.78610  0.25548  0.08741  1.0000
  C   C2264     1.0  0.76235  0.23360  0.33680  1.0000
  C   C2265     1.0  0.77241  0.24514  0.43872  1.0000
  C   C2266     1.0  0.75352  0.27267  0.03123  1.0000
  H   H2723     1.0  0.80283  0.25832  0.10317  1.0000
  Fe  Fe302     1.0  0.82032  0.22138  0.99501  1.0000
  C   C2267     1.0  0.77546  0.99495  0.31934  1.0000
  H   H2724     1.0  0.77959  0.06850  0.27385  1.0000
  Fe  Fe303     1.0  0.77270  0.31362  0.11357  1.0000
  C   C2268     1.0  0.76504  0.28198  0.03397  1.0000
  S   S617      1.0  0.81333  0.99566  0.22962  1.0000
  C   C2269     1.0  0.74918  0.08156  0.08800  1.0000
  N   N151      1.0  0.86173  0.26795  0.45586  1.0000
  H   H2725     1.0  0.77984  0.20883  0.05340  1.0000
  H   H2726     1.0  0.77901  0.01467  0.28899  1.0000
  C   C2270     1.0  0.75727  0.03991  0.04047  1.0000
  C   C2271     1.0  0.84953  0.26321  0.44774  1.0000
  H   H2727     1.0  0.76063  0.00530  0.29046  1.0000
  C   C2272     1.0  0.74573  0.08450  0.38115  1.0000
  H   H2728     1.0  0.77722  0.30204  0.99767  1.0000
  C   C2273     1.0  0.85422  0.24871  0.43954  1.0000
  C   C2274     1.0  0.78300  0.27526  0.03207  1.0000
  C   C2275     1.0  0.84235  0.24460  0.43202  1.0000
  H   H2729     1.0  0.81318  0.09434  0.25924  1.0000
  C   C2276     1.0  0.77885  0.05705  0.25290  1.0000
  H   H2730     1.0  0.80138  0.23632  0.10427  1.0000
  C   C2277     1.0  0.75923  0.08316  0.26027  1.0000
  C   C2278     1.0  0.79702  0.22302  0.05778  1.0000
  H   H2731     1.0  0.82289  0.22234  0.31987  1.0000
  S   S618      1.0  0.81222  0.24997  0.98573  1.0000
  C   C2279     1.0  0.79076  0.23918  0.34692  1.0000
  C   C2280     1.0  0.88949  0.20082  0.47111  1.0000
  C   C2281     1.0  0.76137  0.24923  0.34141  1.0000
  C   C2282     1.0  0.79491  0.10696  0.47625  1.0000
  H   H2732     1.0  0.79820  0.19809  0.36965  1.0000
  C   C2283     1.0  0.75699  0.13991  0.44630  1.0000
  N   N152      1.0  0.77698  0.04453  0.22824  1.0000
  Fe  Fe304     1.0  0.74705  0.01267  0.13949  1.0000
  H   H2733     1.0  0.75353  0.27973  0.41947  1.0000
  H   H2734     1.0  0.76416  0.10712  0.36178  1.0000
  C   C2284     1.0  0.77078  0.05799  0.23897  1.0000
  H   H2735     1.0  0.75002  0.09606  0.05587  1.0000
  C   C2285     1.0  0.83413  0.09103  0.22980  1.0000
  H   H2736     1.0  0.83619  0.20629  0.33344  1.0000
  H   H2737     1.0  0.87286  0.29007  0.45407  1.0000
  C   C2286     1.0  0.78187  0.99776  0.18322  1.0000
  S   S619      1.0  0.79862  0.30552  0.12163  1.0000
  C   C2287     1.0  0.83220  0.27308  0.44813  1.0000
  C   C2288     1.0  0.75455  0.23069  0.38805  1.0000
  C   C2289     1.0  0.76495  0.06194  0.31588  1.0000
  H   H2738     1.0  0.81064  0.21413  0.36775  1.0000
  H   H2739     1.0  0.81107  0.23900  0.06359  1.0000
  H   H2740     1.0  0.81987  0.12118  0.23914  1.0000
  C   C2290     1.0  0.85489  0.26597  0.47476  1.0000
  Fe  Fe305     1.0  0.85904  0.22181  0.97971  1.0000
  C   C2291     1.0  0.78420  0.24244  0.07852  1.0000
  C   C2292     1.0  0.75262  0.30190  0.42980  1.0000
  H   H2741     1.0  0.77410  0.03857  0.20471  1.0000
  C   C2293     1.0  0.76664  0.22517  0.07182  1.0000
  H   H2742     1.0  0.80734  0.27673  0.44081  1.0000
  H   H2743     1.0  0.76312  0.05119  0.01334  1.0000
  H   H2744     1.0  0.79120  0.28128  0.08037  1.0000
  H   H2745     1.0  0.83233  0.18386  0.99344  1.0000
  N   N153      1.0  0.75706  0.23709  0.44752  1.0000
  C   C2294     1.0  0.82917  0.15342  0.98872  1.0000
  H   H2746     1.0  0.82012  0.19813  0.47206  1.0000
  H   H2747     1.0  0.77440  0.25419  0.44590  1.0000
  H   H2748     1.0  0.75195  0.11587  0.39821  1.0000
  H   H2749     1.0  0.76641  0.21714  0.43227  1.0000
  H   H2750     1.0  0.74931  0.21978  0.38775  1.0000
  H   H2751     1.0  0.83852  0.17124  0.46436  1.0000
  H   H2752     1.0  0.76272  0.08075  0.08952  1.0000
  H   H2753     1.0  0.81653  0.16290  0.99059  1.0000
  H   H2754     1.0  0.90300  0.19676  0.47254  1.0000
  H   H2755     1.0  0.84167  0.27411  0.47790  1.0000
  H   H2756     1.0  0.86103  0.13983  0.99293  1.0000
  H   H2757     1.0  0.78050  0.98538  0.33025  1.0000
  C   C2295     1.0  0.76095  0.20820  0.46893  1.0000
  S   S620      1.0  0.75147  0.29860  0.12725  1.0000
  H   H2758     1.0  0.75495  0.09287  0.26828  1.0000
  H   H2759     1.0  0.80150  0.18884  0.47412  1.0000
  H   H2760     1.0  0.80628  0.99425  0.29896  1.0000
  H   H2761     1.0  0.75177  0.23559  0.42329  1.0000
  C   C2296     1.0  0.75642  0.16552  0.42348  1.0000
  H   H2762     1.0  0.83031  0.14542  0.00181  1.0000
  H   H2763     1.0  0.81173  0.12398  0.47525  1.0000
  H   H2764     1.0  0.77079  0.06116  0.20448  1.0000
  H   H2765     1.0  0.84506  0.16613  0.00590  1.0000
  C   C2297     1.0  0.75161  0.14950  0.43106  1.0000
  H   H2766     1.0  0.76010  0.20094  0.45983  1.0000
  C   C2298     1.0  0.76865  0.04852  0.21296  1.0000
  C   C2299     1.0  0.75971  0.04993  0.30958  1.0000
  C   C2300     1.0  0.74882  0.10565  0.06397  1.0000
  C   C2301     1.0  0.77351  0.17718  0.98634  1.0000
  C   C2302     1.0  0.75573  0.06675  0.33154  1.0000
  H   H2767     1.0  0.74811  0.31220  0.09154  1.0000
  H   H2768     1.0  0.74542  0.09134  0.11663  1.0000
  H   H2769     1.0  0.74652  0.11079  0.13427  1.0000
  Fe  Fe306     1.0  0.83151  0.24602  0.96131  1.0000
  C   C2303     1.0  0.85744  0.30588  0.49284  1.0000
  S   S621      1.0  0.82721  0.25799  0.93446  1.0000
  H   H2770     1.0  0.77249  0.29593  0.81930  1.0000
  C   C2304     1.0  0.97639  0.26089  0.56352  1.0000
  H   H2771     1.0  0.96120  0.24406  0.75460  1.0000
  H   H2772     1.0  0.91846  0.29683  0.82202  1.0000
  H   H2773     1.0  0.90970  0.18736  0.94537  1.0000
  Fe  Fe307     1.0  0.96423  0.13396  0.75598  1.0000
  S   S622      1.0  0.97358  0.15127  0.76761  1.0000
  S   S623      1.0  0.95172  0.14634  0.73261  1.0000
  Fe  Fe308     1.0  0.96563  0.13424  0.79324  1.0000
  S   S624      1.0  0.95090  0.14742  0.81559  1.0000
  C   C2305     1.0  0.95818  0.29933  0.68533  1.0000
  S   S625      1.0  0.95396  0.11836  0.78174  1.0000
  Fe  Fe309     1.0  0.98135  0.24148  0.86185  1.0000
  S   S626      1.0  0.97191  0.22953  0.84482  1.0000
  C   C2306     1.0  0.81951  0.30620  0.53551  1.0000
  Fe  Fe310     1.0  0.96077  0.22218  0.89483  1.0000
  S   S627      1.0  0.95002  0.20821  0.88057  1.0000
  S   S628      1.0  0.95167  0.22617  0.92241  1.0000
  Fe  Fe311     1.0  0.97713  0.20469  0.86384  1.0000
  S   S629      1.0  0.77976  0.29623  0.85319  1.0000
  Fe  Fe312     1.0  0.94574  0.23389  0.86255  1.0000
  S   S630      1.0  0.91959  0.24470  0.85533  1.0000
  C   C2307     1.0  0.76442  0.29641  0.94405  1.0000
  S   S631      1.0  0.95449  0.24808  0.87772  1.0000
  H   H2774     1.0  0.80314  0.31047  0.82306  1.0000
  S   S632      1.0  0.76369  0.16628  0.97638  1.0000
  S   S633      1.0  0.77295  0.13843  0.57829  1.0000
  C   C2308     1.0  0.85579  0.18139  0.51705  1.0000
  Fe  Fe313     1.0  0.77738  0.18447  0.55275  1.0000
  S   S634      1.0  0.79813  0.16107  0.54867  1.0000
  S   S635      1.0  0.78122  0.20986  0.53539  1.0000
  Fe  Fe314     1.0  0.77587  0.14858  0.54936  1.0000
  S   S636      1.0  0.77749  0.13990  0.52432  1.0000
  Fe  Fe315     1.0  0.79321  0.15357  0.57774  1.0000
  S   S637      1.0  0.81571  0.14325  0.59229  1.0000
  C   C2309     1.0  0.98421  0.16978  0.70204  1.0000
  S   S638      1.0  0.77416  0.17828  0.58159  1.0000
  Fe  Fe316     1.0  0.87192  0.16006  0.69238  1.0000
  S   S639      1.0  0.84421  0.17529  0.69367  1.0000
  S   S640      1.0  0.88034  0.14114  0.71606  1.0000
  Fe  Fe317     1.0  0.88392  0.17999  0.65668  1.0000
  S   S641      1.0  0.85771  0.19727  0.65522  1.0000
  S   S642      1.0  0.90618  0.18483  0.63450  1.0000
  Fe  Fe318     1.0  0.85650  0.19860  0.68264  1.0000
  S   S643      1.0  0.84541  0.22355  0.69265  1.0000
  Fe  Fe319     1.0  0.84746  0.17273  0.66594  1.0000
  S   S644      1.0  0.82416  0.17222  0.65503  1.0000
  S   S645      1.0  0.88375  0.18365  0.68310  1.0000
  S   S646      1.0  0.87407  0.15515  0.66568  1.0000
  Fe  Fe320     1.0  0.85083  0.24635  0.54781  1.0000
  S   S647      1.0  0.82535  0.24393  0.56628  1.0000
  C   C2310     1.0  0.98951  0.16382  0.82746  1.0000
  S   S648      1.0  0.86685  0.26387  0.55074  1.0000
  Fe  Fe321     1.0  0.95643  0.23816  0.65562  1.0000
  S   S649      1.0  0.95307  0.21143  0.66921  1.0000
  H   H2775     1.0  0.75813  0.11430  0.65079  1.0000
  Fe  Fe322     1.0  0.98098  0.10127  0.77867  1.0000
  C   C2311     1.0  0.82784  0.18649  0.93923  1.0000
  C   C2312     1.0  0.80321  0.13172  0.65599  1.0000
  S   S650      1.0  0.75543  0.17264  0.55222  1.0000
  C   C2313     1.0  0.96739  0.22144  0.73080  1.0000
  N   N154      1.0  0.96220  0.25419  0.72735  1.0000
  C   C2314     1.0  0.91476  0.24477  0.57652  1.0000
  C   C2315     1.0  0.90739  0.26245  0.57488  1.0000
  C   C2316     1.0  0.91216  0.27255  0.58403  1.0000
  H   H2776     1.0  0.89795  0.26834  0.56665  1.0000
  H   H2777     1.0  0.90631  0.28620  0.58276  1.0000
  C   C2317     1.0  0.92126  0.19081  0.64287  1.0000
  C   C2318     1.0  0.92491  0.18200  0.65906  1.0000
  C   C2319     1.0  0.93503  0.18820  0.66692  1.0000
  C   C2320     1.0  0.94128  0.20335  0.65872  1.0000
  C   C2321     1.0  0.93779  0.21207  0.64242  1.0000
  C   C2322     1.0  0.92806  0.20560  0.63434  1.0000
  H   H2778     1.0  0.91988  0.17041  0.66553  1.0000
  H   H2779     1.0  0.93771  0.18148  0.67951  1.0000
  H   H2780     1.0  0.94242  0.22384  0.63607  1.0000
  H   H2781     1.0  0.92522  0.21240  0.62182  1.0000
  C   C2323     1.0  0.88044  0.24468  0.71530  1.0000
  C   C2324     1.0  0.86238  0.25118  0.71804  1.0000
  C   C2325     1.0  0.85172  0.24484  0.71079  1.0000
  C   C2326     1.0  0.85904  0.23178  0.70112  1.0000
  C   C2327     1.0  0.87709  0.22538  0.69841  1.0000
  C   C2328     1.0  0.88776  0.23197  0.70527  1.0000
  H   H2782     1.0  0.85668  0.26109  0.72568  1.0000
  H   H2783     1.0  0.83775  0.24990  0.71291  1.0000
  H   H2784     1.0  0.88293  0.21534  0.69108  1.0000
  H   H2785     1.0  0.90176  0.22702  0.70297  1.0000
  C   C2329     1.0  0.81899  0.15279  0.60837  1.0000
  C   C2330     1.0  0.83387  0.14582  0.61584  1.0000
  C   C2331     1.0  0.83622  0.15227  0.62950  1.0000
  C   C2332     1.0  0.82347  0.16551  0.63608  1.0000
  C   C2333     1.0  0.80882  0.17271  0.62833  1.0000
  C   C2334     1.0  0.80674  0.16662  0.61437  1.0000
  H   H2786     1.0  0.84347  0.13517  0.61125  1.0000
  H   H2787     1.0  0.84747  0.14645  0.63544  1.0000
  H   H2788     1.0  0.79888  0.18294  0.63332  1.0000
  H   H2789     1.0  0.79550  0.17244  0.60851  1.0000
  C   C2335     1.0  0.79343  0.21909  0.54422  1.0000
  C   C2336     1.0  0.80876  0.22405  0.53405  1.0000
  C   C2337     1.0  0.81904  0.23077  0.54118  1.0000
  C   C2338     1.0  0.81341  0.23374  0.55808  1.0000
  C   C2339     1.0  0.79793  0.22895  0.56823  1.0000
  C   C2340     1.0  0.78817  0.22121  0.56143  1.0000
  H   H2790     1.0  0.81302  0.22217  0.52081  1.0000
  H   H2791     1.0  0.83127  0.23367  0.53352  1.0000
  H   H2792     1.0  0.79367  0.23093  0.58143  1.0000
  H   H2793     1.0  0.77652  0.21708  0.56946  1.0000
  C   C2341     1.0  0.76530  0.12709  0.51926  1.0000
  C   C2342     1.0  0.76087  0.13165  0.50285  1.0000
  H   H2794     1.0  0.79932  0.15976  0.49375  1.0000
  H   H2795     1.0  0.96698  0.31603  0.80265  1.0000
  H   H2796     1.0  0.74552  0.28060  0.79678  1.0000
  H   H2797     1.0  0.98435  0.23716  0.90751  1.0000
  H   H2798     1.0  0.76785  0.30409  0.54467  1.0000
  H   H2799     1.0  0.96446  0.19403  0.80666  1.0000
  S   S651      1.0  0.77952  0.30493  0.48256  1.0000
  H   H2800     1.0  0.79131  0.10430  0.49029  1.0000
  H   H2801     1.0  0.77041  0.29375  0.79836  1.0000
  H   H2802     1.0  0.79937  0.26467  0.53635  1.0000
  C   C2343     1.0  0.78523  0.18756  0.97590  1.0000
  S   S652      1.0  0.88536  0.21500  0.49888  1.0000
  S   S653      1.0  0.96231  0.28435  0.63225  1.0000
  C   C2344     1.0  0.97473  0.29855  0.67450  1.0000
  H   H2803     1.0  0.75557  0.22313  0.83840  1.0000
  C   C2345     1.0  0.84172  0.30009  0.49612  1.0000
  S   S654      1.0  0.87269  0.22320  0.54692  1.0000
  S   S655      1.0  0.90871  0.23139  0.56580  1.0000
  C   C2346     1.0  0.85713  0.18142  0.95364  1.0000
  H   H2804     1.0  0.93289  0.22370  0.58849  1.0000
  C   C2347     1.0  0.92441  0.26511  0.59479  1.0000
  H   H2805     1.0  0.94145  0.24158  0.60441  1.0000
  H   H2806     1.0  0.88711  0.25405  0.60779  1.0000
  C   C2348     1.0  0.92709  0.23737  0.58719  1.0000
  S   S656      1.0  0.96786  0.24437  0.62736  1.0000
  C   C2349     1.0  0.76799  0.14946  0.62059  1.0000
  H   H2807     1.0  0.94164  0.25212  0.70560  1.0000
  H   H2808     1.0  0.94833  0.08445  0.77513  1.0000
  N   N155      1.0  0.76175  0.14013  0.63830  1.0000
  C   C2350     1.0  0.77370  0.14008  0.64949  1.0000
  C   C2351     1.0  0.93196  0.24748  0.59624  1.0000
  H   H2809     1.0  0.98711  0.03612  0.79392  1.0000
  C   C2352     1.0  0.92215  0.25311  0.83313  1.0000
  C   C2353     1.0  0.93841  0.25616  0.82334  1.0000
  C   C2354     1.0  0.94080  0.26163  0.80537  1.0000
  H   H2810     1.0  0.91713  0.30219  0.79365  1.0000
  Fe  Fe323     1.0  0.87649  0.30420  0.75333  1.0000
  C   C2355     1.0  0.90798  0.25636  0.82504  1.0000
  H   H2811     1.0  0.94905  0.25478  0.82962  1.0000
  C   C2356     1.0  0.96343  0.30063  0.82802  1.0000
  H   H2812     1.0  0.89533  0.25416  0.83259  1.0000
  C   C2357     1.0  0.93204  0.14387  0.72852  1.0000
  C   C2358     1.0  0.92868  0.15044  0.71178  1.0000
  C   C2359     1.0  0.91307  0.14932  0.70781  1.0000
  C   C2360     1.0  0.90057  0.14162  0.72059  1.0000
  C   C2361     1.0  0.90407  0.13467  0.73732  1.0000
  C   C2362     1.0  0.91969  0.13595  0.74134  1.0000
  H   H2813     1.0  0.93827  0.15639  0.70176  1.0000
  H   H2814     1.0  0.91076  0.15436  0.69482  1.0000
  H   H2815     1.0  0.89457  0.12849  0.74723  1.0000
  H   H2816     1.0  0.92206  0.13105  0.75433  1.0000
  C   C2363     1.0  0.96266  0.15653  0.82551  1.0000
  C   C2364     1.0  0.95357  0.16546  0.83884  1.0000
  C   C2365     1.0  0.96230  0.17388  0.84619  1.0000
  C   C2366     1.0  0.98035  0.17294  0.84065  1.0000
  H   H2817     1.0  0.95133  0.19721  0.71224  1.0000
  C   C2367     1.0  0.98068  0.15581  0.81977  1.0000
  H   H2818     1.0  0.93968  0.16591  0.84349  1.0000
  H   H2819     1.0  0.95515  0.18070  0.85647  1.0000
  H   H2820     1.0  0.80395  0.24054  0.81661  1.0000
  H   H2821     1.0  0.75132  0.16389  0.94051  1.0000
  C   C2368     1.0  0.81430  0.24676  0.92879  1.0000
  C   C2369     1.0  0.81107  0.25092  0.91201  1.0000
  H   H2822     1.0  0.81685  0.26081  0.90238  1.0000
  S   S657      1.0  0.99150  0.11561  0.79273  1.0000
  C   C2370     1.0  0.90122  0.21032  0.95635  1.0000
  C   C2371     1.0  0.91239  0.19981  0.94510  1.0000
  C   C2372     1.0  0.92735  0.20507  0.93386  1.0000
  C   C2373     1.0  0.93154  0.22062  0.93422  1.0000
  C   C2374     1.0  0.92017  0.23131  0.94519  1.0000
  C   C2375     1.0  0.90488  0.22633  0.95599  1.0000
  S   S658      1.0  0.97331  0.25148  0.66366  1.0000
  H   H2823     1.0  0.93614  0.19664  0.92561  1.0000
  H   H2824     1.0  0.92340  0.24328  0.94566  1.0000
  H   H2825     1.0  0.74851  0.23663  0.53754  1.0000
  S   S659      1.0  0.92978  0.27831  0.60621  1.0000
  C   C2376     1.0  0.94514  0.22500  0.70828  1.0000
  C   C2377     1.0  0.90794  0.08618  0.73108  1.0000
  H   H2826     1.0  0.97235  0.27243  0.88752  1.0000
  H   H2827     1.0  0.96593  0.06112  0.75890  1.0000
  C   C2378     1.0  0.76479  0.20681  0.49784  1.0000
  S   S660      1.0  0.85401  0.25053  0.96971  1.0000
  S   S661      1.0  0.88350  0.20259  0.97141  1.0000
  C   C2379     1.0  0.78241  0.28996  0.94096  1.0000
  Fe  Fe324     1.0  0.87222  0.27002  0.52167  1.0000
  H   H2828     1.0  0.81878  0.27217  0.53484  1.0000
  H   H2829     1.0  0.95471  0.28250  0.56966  1.0000
  C   C2380     1.0  0.79972  0.24280  0.90782  1.0000
  S   S662      1.0  0.89448  0.25199  0.72396  1.0000
  H   H2830     1.0  0.78868  0.27360  0.56563  1.0000
  H   H2831     1.0  0.87161  0.26977  0.65083  1.0000
  H   H2832     1.0  0.86143  0.14077  0.97050  1.0000
  C   C2381     1.0  0.81099  0.19025  0.48130  1.0000
  H   H2833     1.0  0.76552  0.10764  0.54267  1.0000
  H   H2834     1.0  0.86281  0.25238  0.66605  1.0000
  H   H2835     1.0  0.86687  0.19879  0.93060  1.0000
  Fe  Fe325     1.0  0.94626  0.26789  0.62694  1.0000
  S   S663      1.0  0.85399  0.25473  0.51891  1.0000
  H   H2836     1.0  0.89934  0.26412  0.80088  1.0000
  H   H2837     1.0  0.93518  0.26153  0.73950  1.0000
  C   C2382     1.0  0.96962  0.25075  0.74315  1.0000
  C   C2383     1.0  0.92672  0.26450  0.79726  1.0000
  H   H2838     1.0  0.75925  0.15005  0.61179  1.0000
  H   H2839     1.0  0.80822  0.28110  0.56242  1.0000
  C   C2384     1.0  0.93095  0.29859  0.82315  1.0000
  H   H2840     1.0  0.82705  0.29496  0.54255  1.0000
  H   H2841     1.0  0.97181  0.08959  0.75173  1.0000
  C   C2385     1.0  0.95347  0.20856  0.71548  1.0000
  H   H2842     1.0  0.93651  0.22640  0.69948  1.0000
  H   H2843     1.0  0.94734  0.27847  0.73449  1.0000
  N   N156      1.0  0.88320  0.24057  0.90322  1.0000
  C   C2386     1.0  0.89473  0.25255  0.90218  1.0000
  C   C2387     1.0  0.87217  0.23797  0.92095  1.0000
  C   C2388     1.0  0.89455  0.22352  0.90076  1.0000
  C   C2389     1.0  0.87209  0.24821  0.89007  1.0000
  C   C2390     1.0  0.87494  0.24195  0.87455  1.0000
  C   C2391     1.0  0.85834  0.26282  0.89223  1.0000
  C   C2392     1.0  0.86420  0.24947  0.86241  1.0000
  C   C2393     1.0  0.84774  0.27028  0.87996  1.0000
  C   C2394     1.0  0.85058  0.26353  0.86515  1.0000
  H   H2844     1.0  0.88708  0.26539  0.90472  1.0000
  H   H2845     1.0  0.90347  0.24726  0.91175  1.0000
  H   H2846     1.0  0.90323  0.25484  0.88905  1.0000
  H   H2847     1.0  0.87987  0.23019  0.93090  1.0000
  H   H2848     1.0  0.86144  0.23134  0.92160  1.0000
  H   H2849     1.0  0.86593  0.25036  0.92537  1.0000
  H   H2850     1.0  0.90468  0.22474  0.88860  1.0000
  H   H2851     1.0  0.90205  0.21764  0.91131  1.0000
  H   H2852     1.0  0.88670  0.21416  0.90052  1.0000
  H   H2853     1.0  0.88554  0.23143  0.87133  1.0000
  H   H2854     1.0  0.85559  0.26862  0.90344  1.0000
  H   H2855     1.0  0.86655  0.24450  0.85067  1.0000
  H   H2856     1.0  0.83718  0.28129  0.88202  1.0000
  H   H2857     1.0  0.84228  0.26929  0.85569  1.0000
  N   N157      1.0  0.87060  0.19142  0.59790  1.0000
  C   C2395     1.0  0.86334  0.20953  0.60030  1.0000
  C   C2396     1.0  0.86948  0.18007  0.61534  1.0000
  C   C2397     1.0  0.88933  0.19042  0.58933  1.0000
  C   C2398     1.0  0.86124  0.18552  0.58765  1.0000
  C   C2399     1.0  0.84574  0.19567  0.58209  1.0000
  C   C2400     1.0  0.86711  0.16871  0.58370  1.0000
  C   C2401     1.0  0.83675  0.18923  0.57327  1.0000
  C   C2402     1.0  0.85802  0.16244  0.57484  1.0000
  C   C2403     1.0  0.84285  0.17267  0.56968  1.0000
  H   H2858     1.0  0.84959  0.21106  0.60774  1.0000
  H   H2859     1.0  0.87095  0.21360  0.60775  1.0000
  H   H2860     1.0  0.86385  0.21881  0.58762  1.0000
  H   H2861     1.0  0.85560  0.18043  0.62222  1.0000
  H   H2862     1.0  0.87625  0.18411  0.62352  1.0000
  H   H2863     1.0  0.87570  0.16633  0.61486  1.0000
  H   H2864     1.0  0.89075  0.19824  0.57588  1.0000
  H   H2865     1.0  0.89653  0.19549  0.59642  1.0000
  H   H2866     1.0  0.89648  0.17696  0.58871  1.0000
  H   H2867     1.0  0.84015  0.20855  0.58455  1.0000
  H   H2868     1.0  0.87856  0.16011  0.58781  1.0000
  H   H2869     1.0  0.82477  0.19700  0.56948  1.0000
  H   H2870     1.0  0.86244  0.14939  0.57239  1.0000
  H   H2871     1.0  0.83556  0.16754  0.56329  1.0000
  S   S664      1.0  0.99048  0.11596  0.75217  1.0000
  H   H2872     1.0  0.75213  0.12178  0.62987  1.0000
  C   C2404     1.0  0.76211  0.26483  0.82264  1.0000
  H   H2873     1.0  0.85776  0.16557  0.48196  1.0000
  C   C2405     1.0  0.86262  0.17381  0.50259  1.0000
  H   H2874     1.0  0.89622  0.08074  0.73500  1.0000
  H   H2875     1.0  0.83710  0.15076  0.47937  1.0000
  N   N158      1.0  0.79622  0.30730  0.97401  1.0000
  N   N159      1.0  0.82070  0.17315  0.48887  1.0000
  C   C2406     1.0  0.75491  0.10027  0.52425  1.0000
  C   C2407     1.0  0.76301  0.29598  0.81140  1.0000
  H   H2876     1.0  0.83894  0.28977  0.50697  1.0000
  C   C2408     1.0  0.82872  0.17545  0.95536  1.0000
  H   H2877     1.0  0.99347  0.26593  0.81515  1.0000
  H   H2878     1.0  0.87246  0.15431  0.97656  1.0000
  C   C2409     1.0  0.75677  0.30587  0.95707  1.0000
  H   H2879     1.0  0.75190  0.28548  0.84561  1.0000
  C   C2410     1.0  0.75336  0.25078  0.83024  1.0000
  C   C2411     1.0  0.83774  0.18609  0.52242  1.0000
  H   H2880     1.0  0.94529  0.31265  0.76618  1.0000
  H   H2881     1.0  0.83248  0.19204  0.53365  1.0000
  H   H2882     1.0  0.76368  0.14355  0.49426  1.0000
  C   C2412     1.0  0.95264  0.29122  0.84110  1.0000
  H   H2883     1.0  0.79673  0.12501  0.63517  1.0000
  H   H2884     1.0  0.80669  0.28034  0.51772  1.0000
  H   H2885     1.0  0.82819  0.24173  0.63562  1.0000
  H   H2886     1.0  0.90638  0.24071  0.62528  1.0000
  H   H2887     1.0  0.81922  0.28716  0.96969  1.0000
  H   H2888     1.0  0.80673  0.28805  0.94740  1.0000
  H   H2889     1.0  0.93222  0.10104  0.76550  1.0000
  H   H2890     1.0  0.90858  0.24770  0.64343  1.0000
  N   N160      1.0  0.87145  0.18534  0.74214  1.0000
  C   C2413     1.0  0.88915  0.18469  0.73092  1.0000
  C   C2414     1.0  0.87108  0.16864  0.75471  1.0000
  C   C2415     1.0  0.85885  0.18701  0.73098  1.0000
  C   C2416     1.0  0.86749  0.19970  0.75154  1.0000
  C   C2417     1.0  0.87825  0.19976  0.76290  1.0000
  C   C2418     1.0  0.85328  0.21403  0.74956  1.0000
  C   C2419     1.0  0.87489  0.21322  0.77186  1.0000
  C   C2420     1.0  0.85002  0.22738  0.75864  1.0000
  C   C2421     1.0  0.86073  0.22694  0.76981  1.0000
  H   H2891     1.0  0.89169  0.17588  0.72176  1.0000
  H   H2892     1.0  0.89065  0.19767  0.72294  1.0000
  H   H2893     1.0  0.89979  0.18006  0.73842  1.0000
  H   H2894     1.0  0.88169  0.16510  0.76219  1.0000
  H   H2895     1.0  0.87279  0.15772  0.74808  1.0000
  H   H2896     1.0  0.85836  0.16912  0.76412  1.0000
  H   H2897     1.0  0.85910  0.19875  0.72055  1.0000
  H   H2898     1.0  0.86203  0.17586  0.72432  1.0000
  H   H2899     1.0  0.84524  0.18743  0.73859  1.0000
  H   H2900     1.0  0.88944  0.18944  0.76481  1.0000
  H   H2901     1.0  0.84465  0.21542  0.74086  1.0000
  H   H2902     1.0  0.88336  0.21312  0.78036  1.0000
  H   H2903     1.0  0.83926  0.23831  0.75679  1.0000
  H   H2904     1.0  0.85810  0.23736  0.77680  1.0000
  H   H2905     1.0  0.78911  0.21647  0.94669  1.0000
  H   H2906     1.0  0.81686  0.12548  0.65280  1.0000
  H   H2907     1.0  0.77070  0.28149  0.54511  1.0000
  Fe  Fe326     1.0  0.88930  0.24136  0.54779  1.0000
  H   H2908     1.0  0.89024  0.21761  0.64392  1.0000
  H   H2909     1.0  0.86631  0.25621  0.59020  1.0000
  H   H2910     1.0  0.81257  0.18761  0.51773  1.0000
  H   H2911     1.0  0.94579  0.25514  0.53558  1.0000
  H   H2912     1.0  0.97060  0.26296  0.74634  1.0000
  C   C2422     1.0  0.94923  0.27024  0.55222  1.0000
  C   C2423     1.0  0.82921  0.30826  0.48577  1.0000
  H   H2913     1.0  0.77560  0.29575  0.52489  1.0000
  H   H2914     1.0  0.96709  0.27114  0.59473  1.0000
  H   H2915     1.0  0.89645  0.23446  0.96472  1.0000
  C   C2424     1.0  0.76188  0.11151  0.53013  1.0000
  C   C2425     1.0  0.74890  0.25139  0.95514  1.0000
  C   C2426     1.0  0.94167  0.30829  0.80948  1.0000
  S   S665      1.0  0.87972  0.29372  0.78082  1.0000
  C   C2427     1.0  0.80772  0.29657  0.82563  1.0000
  H   H2916     1.0  0.92819  0.28262  0.84881  1.0000
  H   H2917     1.0  0.81640  0.18861  0.93363  1.0000
  N   N161      1.0  0.94111  0.20434  0.79593  1.0000
  C   C2428     1.0  0.94046  0.22161  0.79930  1.0000
  C   C2429     1.0  0.92975  0.19538  0.81101  1.0000
  C   C2430     1.0  0.95948  0.19465  0.79488  1.0000
  C   C2431     1.0  0.93512  0.20513  0.77992  1.0000
  C   C2432     1.0  0.93537  0.18961  0.77477  1.0000
  C   C2433     1.0  0.92851  0.22100  0.76932  1.0000
  C   C2434     1.0  0.92944  0.18996  0.75993  1.0000
  C   C2435     1.0  0.92244  0.22117  0.75463  1.0000
  C   C2436     1.0  0.92278  0.20573  0.75000  1.0000
  H   H2918     1.0  0.92680  0.22919  0.80128  1.0000
  H   H2919     1.0  0.76050  0.31663  0.97679  1.0000
  C   C2437     1.0  0.77647  0.29315  0.53878  1.0000
  H   H2920     1.0  0.91573  0.20185  0.81172  1.0000
  H   H2921     1.0  0.93322  0.19528  0.82344  1.0000
  H   H2922     1.0  0.93084  0.18162  0.81050  1.0000
  C   C2438     1.0  0.81540  0.30150  0.96820  1.0000
  N   N162      1.0  0.75198  0.28287  0.82007  1.0000
  H   H2923     1.0  0.96096  0.18097  0.79386  1.0000
  H   H2924     1.0  0.94008  0.17705  0.78230  1.0000
  H   H2925     1.0  0.92769  0.23349  0.77216  1.0000
  H   H2926     1.0  0.93010  0.17792  0.75608  1.0000
  H   H2927     1.0  0.91744  0.23339  0.74670  1.0000
  H   H2928     1.0  0.91809  0.20611  0.73851  1.0000
  H   H2929     1.0  0.98073  0.19421  0.68500  1.0000
  C   C2439     1.0  0.95604  0.06514  0.75044  1.0000
  S   S666      1.0  0.88863  0.25540  0.77094  1.0000
  C   C2440     1.0  0.79547  0.22580  0.93694  1.0000
  C   C2441     1.0  0.93548  0.08877  0.73710  1.0000
  C   C2442     1.0  0.92033  0.08139  0.74164  1.0000
  C   C2443     1.0  0.93772  0.10080  0.72105  1.0000
  H   H2930     1.0  0.84056  0.20372  0.91799  1.0000
  C   C2444     1.0  0.92538  0.10526  0.71047  1.0000
  H   H2931     1.0  0.85019  0.22270  0.48935  1.0000
  H   H2932     1.0  0.96275  0.06196  0.73756  1.0000
  S   S667      1.0  0.94217  0.29052  0.68122  1.0000
  H   H2933     1.0  0.94615  0.05686  0.75632  1.0000
  C   C2445     1.0  0.82646  0.18341  0.51324  1.0000
  H   H2934     1.0  0.95353  0.26358  0.79785  1.0000
  H   H2935     1.0  0.92916  0.07909  0.77278  1.0000
  C   C2446     1.0  0.85980  0.21557  0.48042  1.0000
  C   C2447     1.0  0.95894  0.23841  0.72379  1.0000
  C   C2448     1.0  0.91025  0.26210  0.80708  1.0000
  H   H2936     1.0  0.97065  0.09099  0.72992  1.0000
  H   H2937     1.0  0.94863  0.10734  0.71651  1.0000
  H   H2938     1.0  0.97175  0.16736  0.70142  1.0000
  C   C2449     1.0  0.91041  0.09817  0.71558  1.0000
  H   H2939     1.0  0.94079  0.27327  0.71766  1.0000
  S   S668      1.0  0.93371  0.26054  0.65497  1.0000
  C   C2450     1.0  0.94801  0.23972  0.71209  1.0000
  C   C2451     1.0  0.96462  0.20677  0.72669  1.0000
  N   N163      1.0  0.79481  0.29057  0.54082  1.0000
  H   H2940     1.0  0.86858  0.18024  0.95882  1.0000
  C   C2452     1.0  0.80663  0.23406  0.94119  1.0000
  H   H2941     1.0  0.80868  0.23112  0.95426  1.0000
  H   H2942     1.0  0.90056  0.10225  0.70763  1.0000
  C   C2453     1.0  0.87441  0.25146  0.61452  1.0000
  C   C2454     1.0  0.86248  0.25274  0.60419  1.0000
  S   S669      1.0  0.92980  0.27041  0.77481  1.0000
  Fe  Fe327     1.0  0.88451  0.26853  0.74423  1.0000
  C   C2455     1.0  0.79156  0.23057  0.92044  1.0000
  C   C2456     1.0  0.88609  0.22644  0.65329  1.0000
  C   C2457     1.0  0.89950  0.24932  0.63461  1.0000
  H   H2943     1.0  0.89672  0.22378  0.66068  1.0000
  H   H2944     1.0  0.96272  0.30903  0.77748  1.0000
  C   C2458     1.0  0.86995  0.24679  0.63289  1.0000
  H   H2945     1.0  0.82425  0.24688  0.83465  1.0000
  H   H2946     1.0  0.87440  0.22269  0.66267  1.0000
  H   H2947     1.0  0.89787  0.26305  0.62752  1.0000
  C   C2459     1.0  0.97070  0.24592  0.54336  1.0000
  H   H2948     1.0  0.79684  0.24644  0.89495  1.0000
  N   N164      1.0  0.88246  0.24475  0.64418  1.0000
  Fe  Fe328     1.0  0.90317  0.27603  0.76874  1.0000
  H   H2949     1.0  0.88420  0.25478  0.66575  1.0000
  H   H2950     1.0  0.97626  0.28820  0.57907  1.0000
  H   H2951     1.0  0.74733  0.21674  0.57495  1.0000
  H   H2952     1.0  0.78838  0.28250  0.93086  1.0000
  S   S670      1.0  0.84627  0.26074  0.80337  1.0000
  C   C2460     1.0  0.84582  0.24936  0.61176  1.0000
  C   C2461     1.0  0.87492  0.25591  0.65722  1.0000
  H   H2953     1.0  0.86454  0.18396  0.52386  1.0000
  S   S671      1.0  0.98864  0.21631  0.87992  1.0000
  H   H2954     1.0  0.85394  0.25230  0.48083  1.0000
  H   H2955     1.0  0.98464  0.22048  0.69056  1.0000
  H   H2956     1.0  0.76847  0.16299  0.62064  1.0000
  S   S672      1.0  0.76509  0.27345  0.90278  1.0000
  C   C2462     1.0  0.84107  0.24460  0.62971  1.0000
  C   C2463     1.0  0.94569  0.26733  0.72984  1.0000
  C   C2464     1.0  0.85291  0.24333  0.64016  1.0000
  C   C2465     1.0  0.81967  0.26078  0.83208  1.0000
  H   H2957     1.0  0.95699  0.28448  0.85303  1.0000
  H   H2958     1.0  0.83667  0.25027  0.60365  1.0000
  H   H2959     1.0  0.86358  0.26978  0.48126  1.0000
  Fe  Fe329     1.0  0.95169  0.27472  0.66038  1.0000
  H   H2960     1.0  0.84871  0.23932  0.65402  1.0000
  H   H2961     1.0  0.97126  0.19393  0.73210  1.0000
  N   N165      1.0  0.74808  0.23986  0.97255  1.0000
  C   C2466     1.0  0.83296  0.17566  0.49846  1.0000
  H   H2962     1.0  0.76579  0.23082  0.50361  1.0000
  H   H2963     1.0  0.79822  0.26022  0.85428  1.0000
  Fe  Fe330     1.0  0.87721  0.23290  0.51807  1.0000
  H   H2964     1.0  0.78787  0.21664  0.82968  1.0000
  Fe  Fe331     1.0  0.76261  0.28056  0.87479  1.0000
  Fe  Fe332     1.0  0.75418  0.16379  0.58080  1.0000
  C   C2467     1.0  0.97476  0.26160  0.71238  1.0000
  Fe  Fe333     1.0  0.86440  0.27416  0.78050  1.0000
  S   S673      1.0  0.77414  0.22383  0.91662  1.0000
  C   C2468     1.0  0.76258  0.23363  0.83263  1.0000
  N   N166      1.0  0.94812  0.08386  0.74879  1.0000
  H   H2965     1.0  0.81458  0.15065  0.50795  1.0000
  S   S674      1.0  0.89609  0.24886  0.51874  1.0000
  C   C2469     1.0  0.79767  0.14074  0.66948  1.0000
  C   C2470     1.0  0.98712  0.30622  0.67767  1.0000
  H   H2966     1.0  0.96988  0.26449  0.70012  1.0000
  H   H2967     1.0  0.92709  0.11479  0.69850  1.0000
  H   H2968     1.0  0.78132  0.14315  0.61467  1.0000
  C   C2471     1.0  0.91869  0.31576  0.79196  1.0000
  C   C2472     1.0  0.82841  0.27105  0.81752  1.0000
  C   C2473     1.0  0.80491  0.26831  0.84324  1.0000
  C   C2474     1.0  0.75088  0.10467  0.50765  1.0000
  H   H2969     1.0  0.75504  0.30939  0.80959  1.0000
  C   C2475     1.0  0.76331  0.19862  0.48533  1.0000
  C   C2476     1.0  0.95991  0.27223  0.56243  1.0000
  C   C2477     1.0  0.96262  0.09353  0.74264  1.0000
  H   H2970     1.0  0.94523  0.22058  0.81131  1.0000
  H   H2971     1.0  0.94873  0.22923  0.78853  1.0000
  H   H2972     1.0  0.93656  0.27881  0.55183  1.0000
  S   S675      1.0  0.98280  0.07236  0.78327  1.0000
  H   H2973     1.0  0.77457  0.11537  0.63119  1.0000
  H   H2974     1.0  0.99419  0.23918  0.55304  1.0000
  H   H2975     1.0  0.98032  0.27205  0.93111  1.0000
  H   H2976     1.0  0.98764  0.25248  0.71056  1.0000
  S   S676      1.0  0.90097  0.28784  0.74148  1.0000
  H   H2977     1.0  0.87671  0.17059  0.49820  1.0000
  H   H2978     1.0  0.97367  0.25210  0.93250  1.0000
  Fe  Fe334     1.0  0.98281  0.25993  0.63522  1.0000
  C   C2478     1.0  0.78075  0.22995  0.82769  1.0000
  H   H2979     1.0  0.75641  0.29418  0.93624  1.0000
  H   H2980     1.0  0.78805  0.18857  0.96202  1.0000
  C   C2479     1.0  0.78069  0.26062  0.81782  1.0000
  H   H2981     1.0  0.77618  0.23569  0.96892  1.0000
  C   C2480     1.0  0.97939  0.27464  0.58631  1.0000
  C   C2481     1.0  0.78555  0.30327  0.96371  1.0000
  H   H2982     1.0  0.96833  0.20076  0.78343  1.0000
  C   C2482     1.0  0.80789  0.16306  0.50078  1.0000
  H   H2983     1.0  0.99097  0.27521  0.79324  1.0000
  C   C2483     1.0  0.85148  0.17101  0.49332  1.0000
  H   H2984     1.0  0.95761  0.10774  0.74154  1.0000
  H   H2985     1.0  0.82299  0.30489  0.97616  1.0000
  C   C2484     1.0  0.79289  0.29330  0.95060  1.0000
  S   S677      1.0  0.85919  0.28605  0.75356  1.0000
  C   C2485     1.0  0.82244  0.28902  0.81441  1.0000
  H   H2986     1.0  0.98785  0.14898  0.80950  1.0000
  C   C2486     1.0  0.79880  0.28626  0.84001  1.0000
  H   H2987     1.0  0.91785  0.07200  0.75350  1.0000
  C   C2487     1.0  0.76842  0.14907  0.66344  1.0000
  C   C2488     1.0  0.76709  0.30919  0.96685  1.0000
  C   C2489     1.0  0.93902  0.08726  0.76625  1.0000
  S   S678      1.0  0.83753  0.21731  0.96962  1.0000
  C   C2490     1.0  0.98954  0.18508  0.69256  1.0000
  H   H2988     1.0  0.97612  0.30125  0.82987  1.0000
  H   H2989     1.0  0.97793  0.29233  0.66350  1.0000
  H   H2990     1.0  0.82908  0.29708  0.80329  1.0000
  C   C2491     1.0  0.87733  0.21048  0.48244  1.0000
  H   H2991     1.0  0.79881  0.17025  0.51052  1.0000
  S   S679      1.0  0.87304  0.29674  0.50594  1.0000
  H   H2992     1.0  0.97647  0.21919  0.73922  1.0000
  H   H2993     1.0  0.98184  0.23914  0.59234  1.0000
  C   C2492     1.0  0.79151  0.13148  0.64602  1.0000
  S   S680      1.0  0.75966  0.25428  0.87319  1.0000
  C   C2493     1.0  0.84148  0.19497  0.93035  1.0000
  H   H2994     1.0  0.97474  0.23564  0.53605  1.0000
  C   C2494     1.0  0.95427  0.30726  0.69965  1.0000
  C   C2495     1.0  0.99338  0.24509  0.58548  1.0000
  Fe  Fe335     1.0  0.76007  0.24791  0.90158  1.0000
  C   C2496     1.0  0.95445  0.25695  0.54297  1.0000
  H   H2995     1.0  0.74815  0.20798  0.55647  1.0000
  H   H2996     1.0  0.94896  0.29349  0.78233  1.0000
  H   H2997     1.0  0.75310  0.08787  0.53242  1.0000
  H   H2998     1.0  0.75908  0.21791  0.96003  1.0000
  H   H2999     1.0  0.78861  0.27035  0.81230  1.0000
  H   H3000     1.0  0.76662  0.19931  0.51054  1.0000
  H   H3001     1.0  0.74856  0.24453  0.55605  1.0000
  C   C2497     1.0  0.85621  0.19224  0.93745  1.0000
  C   C2498     1.0  0.80538  0.27633  0.53204  1.0000
  C   C2499     1.0  0.98432  0.25958  0.92652  1.0000
  H   H3002     1.0  0.97713  0.27396  0.71402  1.0000
  C   C2500     1.0  0.93641  0.29027  0.83872  1.0000
  H   H3003     1.0  0.99043  0.14593  0.71999  1.0000
  C   C2501     1.0  0.75327  0.12072  0.49726  1.0000
  C   C2502     1.0  0.94900  0.30758  0.77905  1.0000
  C   C2503     1.0  0.97085  0.27059  0.90182  1.0000
  H   H3004     1.0  0.76421  0.18468  0.48830  1.0000
  H   H3005     1.0  0.80340  0.19784  0.49134  1.0000
  C   C2504     1.0  0.78033  0.14938  0.67320  1.0000
  C   C2505     1.0  0.79481  0.28511  0.55965  1.0000
  H   H3006     1.0  0.75856  0.17725  0.91995  1.0000
  S   S681      1.0  0.99189  0.18268  0.85017  1.0000
  H   H3007     1.0  0.81693  0.30403  0.48850  1.0000
  H   H3008     1.0  0.81773  0.16924  0.96143  1.0000
  H   H3009     1.0  0.75737  0.18360  0.93990  1.0000
  H   H3010     1.0  0.96098  0.26220  0.90776  1.0000
  C   C2506     1.0  0.84329  0.17288  0.96325  1.0000
  H   H3011     1.0  0.91384  0.31002  0.70124  1.0000
  H   H3012     1.0  0.80698  0.14148  0.67671  1.0000
  C   C2507     1.0  0.75066  0.17751  0.93328  1.0000
  H   H3013     1.0  0.76082  0.24685  0.94569  1.0000
  C   C2508     1.0  0.78977  0.24341  0.82032  1.0000
  C   C2509     1.0  0.76166  0.12212  0.63756  1.0000
  N   N167      1.0  0.98781  0.26263  0.90733  1.0000
  C   C2510     1.0  0.76424  0.22459  0.49392  1.0000
  H   H3014     1.0  0.74997  0.12433  0.48460  1.0000
  H   H3015     1.0  0.81996  0.30757  0.95446  1.0000
  H   H3016     1.0  0.77624  0.15667  0.68349  1.0000
  H   H3017     1.0  0.78758  0.29578  0.56659  1.0000
  C   C2511     1.0  0.95806  0.30907  0.81246  1.0000
  C   C2512     1.0  0.74814  0.22223  0.97049  1.0000
  H   H3018     1.0  0.75528  0.15625  0.66689  1.0000
  H   H3019     1.0  0.96510  0.28330  0.90576  1.0000
  H   H3020     1.0  0.98320  0.24294  0.74151  1.0000
  H   H3021     1.0  0.98640  0.29459  0.88332  1.0000
  C   C2513     1.0  0.98165  0.24796  0.55329  1.0000
  H   H3022     1.0  0.89051  0.31664  0.70711  1.0000
  C   C2514     1.0  0.76416  0.23937  0.97858  1.0000
  N   N168      1.0  0.98790  0.26228  0.57452  1.0000
  H   H3023     1.0  0.98798  0.27480  0.59507  1.0000
  H   H3024     1.0  0.74930  0.26483  0.95558  1.0000
  C   C2515     1.0  0.98300  0.31468  0.69165  1.0000
  C   C2516     1.0  0.80255  0.30619  0.53337  1.0000
  H   H3025     1.0  0.94156  0.30784  0.70817  1.0000
  H   H3026     1.0  0.80272  0.20411  0.97514  1.0000
  N   N169      1.0  0.93679  0.31654  0.79248  1.0000
  C   C2517     1.0  0.96663  0.31494  0.70278  1.0000
  H   H3027     1.0  0.99458  0.19813  0.75739  1.0000
  C   C2518     1.0  0.99410  0.24568  0.90193  1.0000
  S   S682      1.0  0.99474  0.26438  0.85030  1.0000
  C   C2519     1.0  0.99471  0.15769  0.71251  1.0000
  Fe  Fe336     1.0  0.77665  0.55030  0.14633  1.0000
  H   H3028     1.0  0.85917  0.36269  0.16527  1.0000
  H   H3029     1.0  0.79714  0.48228  0.27620  1.0000
  Fe  Fe337     1.0  0.79512  0.57994  0.14608  1.0000
  S   S683      1.0  0.77514  0.58823  0.16856  1.0000
  Fe  Fe338     1.0  0.77739  0.56008  0.17970  1.0000
  S   S684      1.0  0.78047  0.54998  0.20706  1.0000
  H   H3030     1.0  0.76178  0.47356  0.26440  1.0000
  S   S685      1.0  0.79872  0.55150  0.15826  1.0000
  S   S686      1.0  0.77616  0.52411  0.14115  1.0000
  C   C2520     1.0  0.85932  0.64026  0.24040  1.0000
  C   C2521     1.0  0.78258  0.36707  0.25204  1.0000
  S   S687      1.0  0.97223  0.62457  0.28227  1.0000
  C   C2522     1.0  0.78405  0.34115  0.04537  1.0000
  Fe  Fe339     1.0  0.75707  0.44200  0.35740  1.0000
  H   H3031     1.0  0.81183  0.38476  0.09466  1.0000
  H   H3032     1.0  0.79367  0.32991  0.19189  1.0000
  H   H3033     1.0  0.88875  0.61307  0.20311  1.0000
  Fe  Fe340     1.0  0.95416  0.62084  0.26669  1.0000
  S   S688      1.0  0.93358  0.60383  0.27518  1.0000
  Fe  Fe341     1.0  0.75506  0.34838  0.45794  1.0000
  S   S689      1.0  0.97289  0.62613  0.24114  1.0000
  Fe  Fe342     1.0  0.77168  0.44878  0.38530  1.0000
  S   S690      1.0  0.78380  0.43475  0.36344  1.0000
  S   S691      1.0  0.77644  0.43612  0.41213  1.0000
  H   H3034     1.0  0.78877  0.37190  0.09434  1.0000
  S   S692      1.0  0.76136  0.46715  0.33949  1.0000
  H   H3035     1.0  0.80376  0.32974  0.21787  1.0000
  C   C2523     1.0  0.83268  0.32192  0.47190  1.0000
  C   C2524     1.0  0.75748  0.41906  0.16660  1.0000
  Fe  Fe343     1.0  0.78730  0.46092  0.34744  1.0000
  S   S693      1.0  0.81212  0.46098  0.32710  1.0000
  H   H3036     1.0  0.91349  0.64598  0.24653  1.0000
  S   S694      1.0  0.77752  0.47459  0.36993  1.0000
  Fe  Fe344     1.0  0.86462  0.54216  0.23407  1.0000
  S   S695      1.0  0.89135  0.52599  0.22760  1.0000
  S   S696      1.0  0.85349  0.56072  0.21228  1.0000
  Fe  Fe345     1.0  0.86105  0.52755  0.27225  1.0000
  S   S697      1.0  0.88749  0.50985  0.26903  1.0000
  S   S698      1.0  0.84193  0.52974  0.29733  1.0000
  Fe  Fe346     1.0  0.89633  0.53330  0.25057  1.0000
  S   S699      1.0  0.92205  0.54134  0.24826  1.0000
  Fe  Fe347     1.0  0.87981  0.50443  0.24637  1.0000
  S   S700      1.0  0.88200  0.47787  0.24095  1.0000
  S   S701      1.0  0.87034  0.55126  0.25540  1.0000
  S   S702      1.0  0.85281  0.52017  0.25135  1.0000
  Fe  Fe348     1.0  0.79015  0.32847  0.46719  1.0000
  S   S703      1.0  0.77786  0.33097  0.44484  1.0000
  H   H3037     1.0  0.79690  0.55637  0.28990  1.0000
  H   H3038     1.0  0.82161  0.45088  0.13027  1.0000
  C   C2525     1.0  0.85672  0.60822  0.19589  1.0000
  C   C2526     1.0  0.76509  0.39015  0.32124  1.0000
  N   N170      1.0  0.77178  0.64460  0.14131  1.0000
  C   C2527     1.0  0.78268  0.56927  0.26947  1.0000
  H   H3039     1.0  0.76350  0.43255  0.04529  1.0000
  Fe  Fe349     1.0  0.83275  0.44545  0.18656  1.0000
  S   S704      1.0  0.81140  0.43845  0.20899  1.0000
  S   S705      1.0  0.84208  0.46983  0.18606  1.0000
  Fe  Fe350     1.0  0.82789  0.41920  0.16690  1.0000
  S   S706      1.0  0.80641  0.41056  0.18810  1.0000
  S   S707      1.0  0.83487  0.40812  0.14231  1.0000
  Fe  Fe351     1.0  0.79667  0.43856  0.18913  1.0000
  S   S708      1.0  0.76888  0.45239  0.18940  1.0000
  Fe  Fe352     1.0  0.82324  0.41112  0.20597  1.0000
  S   S709      1.0  0.82426  0.38968  0.22935  1.0000
  S   S710      1.0  0.81694  0.44754  0.16665  1.0000
  S   S711      1.0  0.84597  0.41773  0.18476  1.0000
  H   H3040     1.0  0.78227  0.40235  0.29947  1.0000
  C   C2528     1.0  0.82439  0.39189  0.14080  1.0000
  C   C2529     1.0  0.80774  0.39023  0.15066  1.0000
  C   C2530     1.0  0.79974  0.37726  0.14928  1.0000
  C   C2531     1.0  0.80831  0.36560  0.13822  1.0000
  C   C2532     1.0  0.82470  0.36761  0.12785  1.0000
  C   C2533     1.0  0.83261  0.38082  0.12904  1.0000
  H   H3041     1.0  0.80097  0.39893  0.15938  1.0000
  H   H3042     1.0  0.78693  0.37608  0.15707  1.0000
  H   H3043     1.0  0.83155  0.35861  0.11941  1.0000
  H   H3044     1.0  0.84543  0.38206  0.12124  1.0000
  C   C2534     1.0  0.79960  0.37042  0.24768  1.0000
  C   C2535     1.0  0.80282  0.38625  0.23722  1.0000
  C   C2536     1.0  0.78894  0.39896  0.23187  1.0000
  C   C2537     1.0  0.77202  0.39565  0.23625  1.0000
  H   H3045     1.0  0.81033  0.36057  0.25189  1.0000
  H   H3046     1.0  0.79119  0.41131  0.22406  1.0000
  C   C2538     1.0  0.82264  0.48025  0.24855  1.0000
  H   H3047     1.0  0.85258  0.59685  0.20545  1.0000
  H   H3048     1.0  0.76844  0.45528  0.24262  1.0000
  C   C2539     1.0  0.76342  0.42581  0.17779  1.0000
  C   C2540     1.0  0.76050  0.44375  0.17640  1.0000
  C   C2541     1.0  0.94121  0.64381  0.21130  1.0000
  H   H3049     1.0  0.76232  0.50953  0.19123  1.0000
  Fe  Fe353     1.0  0.75567  0.58460  0.15526  1.0000
  H   H3050     1.0  0.76987  0.41715  0.18776  1.0000
  H   H3051     1.0  0.83151  0.47450  0.23772  1.0000
  C   C2542     1.0  0.87015  0.47560  0.22635  1.0000
  C   C2543     1.0  0.87125  0.45913  0.22317  1.0000
  C   C2544     1.0  0.86219  0.45705  0.21133  1.0000
  C   C2545     1.0  0.85225  0.47152  0.20230  1.0000
  C   C2546     1.0  0.85094  0.48795  0.20571  1.0000
  C   C2547     1.0  0.85961  0.48994  0.21787  1.0000
  H   H3052     1.0  0.87930  0.44793  0.22976  1.0000
  H   H3053     1.0  0.86337  0.44434  0.20878  1.0000
  H   H3054     1.0  0.84311  0.49920  0.19900  1.0000
  H   H3055     1.0  0.85814  0.50255  0.22072  1.0000
  C   C2548     1.0  0.83360  0.61996  0.13773  1.0000
  C   C2549     1.0  0.76591  0.41844  0.42038  1.0000
  C   C2550     1.0  0.76424  0.41029  0.43790  1.0000
  H   H3056     1.0  0.83535  0.63468  0.23806  1.0000
  C   C2551     1.0  0.78006  0.33275  0.03424  1.0000
  H   H3057     1.0  0.85128  0.33794  0.45769  1.0000
  C   C2552     1.0  0.75699  0.63540  0.17229  1.0000
  H   H3058     1.0  0.76885  0.41536  0.44663  1.0000
  C   C2553     1.0  0.75672  0.37566  0.29745  1.0000
  C   C2554     1.0  0.79874  0.39540  0.06371  1.0000
  H   H3059     1.0  0.78226  0.34162  0.22584  1.0000
  C   C2555     1.0  0.82025  0.48020  0.31960  1.0000
  C   C2556     1.0  0.81125  0.49555  0.32518  1.0000
  C   C2557     1.0  0.81801  0.51077  0.31846  1.0000
  C   C2558     1.0  0.83357  0.51071  0.30594  1.0000
  C   C2559     1.0  0.84246  0.49538  0.30030  1.0000
  C   C2560     1.0  0.83595  0.48013  0.30732  1.0000
  H   H3060     1.0  0.79912  0.49570  0.33467  1.0000
  H   H3061     1.0  0.81108  0.52261  0.32286  1.0000
  H   H3062     1.0  0.85454  0.49517  0.29076  1.0000
  H   H3063     1.0  0.84312  0.46819  0.30328  1.0000
  C   C2561     1.0  0.93026  0.58807  0.26537  1.0000
  C   C2562     1.0  0.94395  0.57860  0.25498  1.0000
  C   C2563     1.0  0.94111  0.56463  0.24942  1.0000
  C   C2564     1.0  0.92449  0.56030  0.25374  1.0000
  C   C2565     1.0  0.91056  0.57051  0.26317  1.0000
  C   C2566     1.0  0.91354  0.58401  0.26932  1.0000
  H   H3064     1.0  0.95691  0.58149  0.25195  1.0000
  H   H3065     1.0  0.95198  0.55687  0.24207  1.0000
  H   H3066     1.0  0.89764  0.56762  0.26627  1.0000
  H   H3067     1.0  0.90289  0.59118  0.27744  1.0000
  C   C2567     1.0  0.91414  0.57303  0.20902  1.0000
  C   C2568     1.0  0.78700  0.45951  0.06900  1.0000
  Fe  Fe354     1.0  0.98939  0.63277  0.25622  1.0000
  H   H3068     1.0  0.76676  0.50365  0.25559  1.0000
  C   C2569     1.0  0.88288  0.61546  0.24479  1.0000
  H   H3069     1.0  0.77257  0.55716  0.24036  1.0000
  C   C2570     1.0  0.74938  0.53072  0.31691  1.0000
  C   C2571     1.0  0.93277  0.63597  0.20317  1.0000
  H   H3070     1.0  0.77493  0.46580  0.13204  1.0000
  C   C2572     1.0  0.78661  0.41332  0.03926  1.0000
  H   H3071     1.0  0.79940  0.64468  0.13409  1.0000
  H   H3072     1.0  0.76563  0.44113  0.32239  1.0000
  H   H3073     1.0  0.75164  0.56949  0.23698  1.0000
  C   C2573     1.0  0.77432  0.62705  0.13770  1.0000
  H   H3074     1.0  0.84445  0.47344  0.27104  1.0000
  C   C2574     1.0  0.77359  0.42239  0.05041  1.0000
  H   H3075     1.0  0.78670  0.41644  0.02550  1.0000
  H   H3076     1.0  0.75737  0.60635  0.25497  1.0000
  H   H3077     1.0  0.77471  0.38972  0.27829  1.0000
  H   H3078     1.0  0.80432  0.60117  0.17016  1.0000
  H   H3079     1.0  0.80905  0.62230  0.18471  1.0000
  C   C2575     1.0  0.80084  0.55274  0.20840  1.0000
  C   C2576     1.0  0.81031  0.56308  0.19472  1.0000
  C   C2577     1.0  0.82637  0.56571  0.19607  1.0000
  C   C2578     1.0  0.83312  0.55776  0.21099  1.0000
  C   C2579     1.0  0.82353  0.54759  0.22469  1.0000
  C   C2580     1.0  0.80747  0.54497  0.22338  1.0000
  H   H3080     1.0  0.80522  0.56925  0.18315  1.0000
  H   H3081     1.0  0.83349  0.57391  0.18554  1.0000
  H   H3082     1.0  0.82800  0.54238  0.23663  1.0000
  H   H3083     1.0  0.80012  0.53712  0.23410  1.0000
  S   S712      1.0  0.81215  0.33642  0.09045  1.0000
  H   H3084     1.0  0.78740  0.37729  0.20873  1.0000
  H   H3085     1.0  0.77596  0.42477  0.09981  1.0000
  N   N171      1.0  0.78519  0.39904  0.09432  1.0000
  C   C2581     1.0  0.75282  0.37943  0.32687  1.0000
  H   H3086     1.0  0.76186  0.53062  0.30798  1.0000
  C   C2582     1.0  0.82666  0.44149  0.25203  1.0000
  C   C2583     1.0  0.81614  0.45233  0.26357  1.0000
  N   N172      1.0  0.78771  0.49947  0.19747  1.0000
  C   C2584     1.0  0.77434  0.51403  0.19077  1.0000
  C   C2585     1.0  0.80371  0.50592  0.19629  1.0000
  C   C2586     1.0  0.79249  0.48694  0.18575  1.0000
  C   C2587     1.0  0.78072  0.49206  0.21576  1.0000
  C   C2588     1.0  0.77747  0.47496  0.22130  1.0000
  C   C2589     1.0  0.77660  0.50221  0.22868  1.0000
  S   S713      1.0  0.91053  0.63724  0.18240  1.0000
  C   C2590     1.0  0.74761  0.31996  0.42755  1.0000
  C   C2591     1.0  0.85494  0.61144  0.24219  1.0000
  H   H3087     1.0  0.77917  0.52015  0.17710  1.0000
  H   H3088     1.0  0.78756  0.32008  0.03243  1.0000
  H   H3089     1.0  0.77030  0.52437  0.19841  1.0000
  H   H3090     1.0  0.80109  0.51686  0.20301  1.0000
  H   H3091     1.0  0.80983  0.51078  0.18260  1.0000
  H   H3092     1.0  0.81362  0.49538  0.20205  1.0000
  H   H3093     1.0  0.78085  0.48248  0.18490  1.0000
  H   H3094     1.0  0.79812  0.49285  0.17222  1.0000
  H   H3095     1.0  0.80251  0.47555  0.19001  1.0000
  H   H3096     1.0  0.77981  0.46639  0.21243  1.0000
  H   H3097     1.0  0.77829  0.51548  0.22539  1.0000
  H   H3098     1.0  0.76288  0.49385  0.14430  1.0000
  C   C2592     1.0  0.76880  0.37969  0.24618  1.0000
  H   H3099     1.0  0.77857  0.37769  0.11490  1.0000
  H   H3100     1.0  0.80073  0.41275  0.25701  1.0000
  H   H3101     1.0  0.84514  0.64080  0.13921  1.0000
  H   H3102     1.0  0.78045  0.34346  0.39506  1.0000
  C   C2593     1.0  0.76878  0.38662  0.29193  1.0000
  H   H3103     1.0  0.77468  0.60483  0.22470  1.0000
  H   H3104     1.0  0.76218  0.42521  0.07613  1.0000
  S   S714      1.0  0.77584  0.36538  0.06543  1.0000
  H   H3105     1.0  0.92479  0.56576  0.21544  1.0000
  S   S715      1.0  0.77523  0.57808  0.13159  1.0000
  C   C2594     1.0  0.76997  0.49556  0.24603  1.0000
  H   H3106     1.0  0.80391  0.42421  0.12364  1.0000
  H   H3107     1.0  0.93175  0.62253  0.20801  1.0000
  H   H3108     1.0  0.86215  0.51051  0.17273  1.0000
  H   H3109     1.0  0.85549  0.58251  0.13240  1.0000
  C   C2595     1.0  0.88658  0.59223  0.19178  1.0000
  H   H3110     1.0  0.80947  0.48476  0.24516  1.0000
  H   H3111     1.0  0.88262  0.51291  0.19975  1.0000
  H   H3112     1.0  0.82747  0.57821  0.24195  1.0000
  C   C2596     1.0  0.75661  0.39553  0.44413  1.0000
  H   H3113     1.0  0.88870  0.56747  0.18446  1.0000
  C   C2597     1.0  0.87665  0.50866  0.16967  1.0000
  N   N173      1.0  0.76745  0.58317  0.24448  1.0000
  H   H3114     1.0  0.77380  0.47793  0.10402  1.0000
  H   H3115     1.0  0.88764  0.57259  0.12810  1.0000
  C   C2598     1.0  0.74620  0.44817  0.15240  1.0000
  H   H3116     1.0  0.87617  0.53317  0.29448  1.0000
  C   C2599     1.0  0.87672  0.52460  0.19099  1.0000
  H   H3117     1.0  0.79159  0.47873  0.12263  1.0000
  H   H3118     1.0  0.87709  0.59072  0.24584  1.0000
  H   H3119     1.0  0.83916  0.44398  0.24437  1.0000
  C   C2600     1.0  0.78635  0.34345  0.19204  1.0000
  C   C2601     1.0  0.76507  0.64204  0.19621  1.0000
  H   H3120     1.0  0.80786  0.43757  0.06539  1.0000
  C   C2602     1.0  0.90721  0.56508  0.19975  1.0000
  C   C2603     1.0  0.80495  0.42368  0.25888  1.0000
  H   H3121     1.0  0.91322  0.62864  0.23720  1.0000
  H   H3122     1.0  0.91568  0.57270  0.32768  1.0000
  H   H3123     1.0  0.77827  0.39642  0.36865  1.0000
  H   H3124     1.0  0.78549  0.35010  0.17846  1.0000
  H   H3125     1.0  0.85916  0.61693  0.20317  1.0000
  C   C2604     1.0  0.87908  0.53389  0.32555  1.0000
  C   C2605     1.0  0.92470  0.64580  0.18955  1.0000
  Fe  Fe355     1.0  0.78506  0.34266  0.08518  1.0000
  S   S716      1.0  0.81799  0.33200  0.45808  1.0000
  N   N174      1.0  0.79473  0.35282  0.20015  1.0000
  H   H3126     1.0  0.76260  0.62114  0.14336  1.0000
  C   C2606     1.0  0.79553  0.34294  0.21799  1.0000
  C   C2607     1.0  0.81259  0.35491  0.19065  1.0000
  C   C2608     1.0  0.82151  0.34721  0.17614  1.0000
  C   C2609     1.0  0.82175  0.36476  0.19603  1.0000
  C   C2610     1.0  0.83816  0.34995  0.16721  1.0000
  C   C2611     1.0  0.83834  0.36749  0.18699  1.0000
  C   C2612     1.0  0.84647  0.36024  0.17249  1.0000
  H   H3127     1.0  0.84030  0.61949  0.12450  1.0000
  S   S717      1.0  0.93953  0.64848  0.26456  1.0000
  C   C2613     1.0  0.77300  0.41802  0.06826  1.0000
  H   H3128     1.0  0.80132  0.34937  0.22506  1.0000
  N   N175      1.0  0.88287  0.52320  0.17254  1.0000
  H   H3129     1.0  0.75301  0.33929  0.33391  1.0000
  H   H3130     1.0  0.84663  0.60294  0.24193  1.0000
  H   H3131     1.0  0.81610  0.37058  0.20725  1.0000
  C   C2614     1.0  0.90538  0.63667  0.24678  1.0000
  H   H3132     1.0  0.84484  0.37538  0.19123  1.0000
  H   H3133     1.0  0.79483  0.33514  0.05189  1.0000
  N   N176      1.0  0.87232  0.60270  0.18282  1.0000
  C   C2615     1.0  0.87792  0.61834  0.17105  1.0000
  C   C2616     1.0  0.86701  0.59333  0.17212  1.0000
  H   H3134     1.0  0.89017  0.61482  0.16154  1.0000
  H   H3135     1.0  0.86765  0.62632  0.16376  1.0000
  H   H3136     1.0  0.87816  0.58905  0.16188  1.0000
  H   H3137     1.0  0.85639  0.60164  0.16548  1.0000
  H   H3138     1.0  0.86171  0.58189  0.18013  1.0000
  C   C2617     1.0  0.75984  0.41193  0.40919  1.0000
  N   N177      1.0  0.81087  0.37557  0.41282  1.0000
  C   C2618     1.0  0.82776  0.36299  0.41061  1.0000
  C   C2619     1.0  0.81485  0.39316  0.40925  1.0000
  C   C2620     1.0  0.80180  0.37186  0.43119  1.0000
  C   C2621     1.0  0.79986  0.37380  0.40151  1.0000
  C   C2622     1.0  0.79497  0.35775  0.40333  1.0000
  C   C2623     1.0  0.79366  0.38768  0.38854  1.0000
  C   C2624     1.0  0.78430  0.35578  0.39310  1.0000
  C   C2625     1.0  0.78311  0.38554  0.37824  1.0000
  C   C2626     1.0  0.77846  0.36964  0.38052  1.0000
  H   H3139     1.0  0.83666  0.36453  0.41836  1.0000
  H   H3140     1.0  0.82599  0.34934  0.41516  1.0000
  H   H3141     1.0  0.83460  0.36464  0.39678  1.0000
  H   H3142     1.0  0.82299  0.39413  0.41804  1.0000
  H   H3143     1.0  0.80267  0.40320  0.41136  1.0000
  H   H3144     1.0  0.82215  0.39673  0.39575  1.0000
  H   H3145     1.0  0.80963  0.37298  0.44019  1.0000
  H   H3146     1.0  0.78908  0.38093  0.43337  1.0000
  H   H3147     1.0  0.79903  0.35860  0.43533  1.0000
  H   H3148     1.0  0.79925  0.34662  0.41285  1.0000
  H   H3149     1.0  0.79641  0.40046  0.38634  1.0000
  H   H3150     1.0  0.94662  0.63634  0.22235  1.0000
  C   C2627     1.0  0.76999  0.64352  0.16010  1.0000
  H   H3151     1.0  0.76815  0.39606  0.33038  1.0000
  C   C2628     1.0  0.76716  0.47865  0.25102  1.0000
  C   C2629     1.0  0.77951  0.38223  0.10064  1.0000
  C   C2630     1.0  0.75614  0.35680  0.02855  1.0000
  C   C2631     1.0  0.75481  0.43887  0.31829  1.0000
  H   H3152     1.0  0.82698  0.44060  0.11251  1.0000
  H   H3153     1.0  0.74901  0.32659  0.43680  1.0000
  Fe  Fe356     1.0  0.75114  0.47868  0.36316  1.0000
  H   H3154     1.0  0.78300  0.37834  0.18798  1.0000
  S   S718      1.0  0.79897  0.34761  0.13956  1.0000
  H   H3155     1.0  0.78144  0.43137  0.27687  1.0000
  H   H3156     1.0  0.76656  0.38305  0.09763  1.0000
  H   H3157     1.0  0.88157  0.49609  0.17797  1.0000
  C   C2632     1.0  0.75842  0.50320  0.13351  1.0000
  C   C2633     1.0  0.79520  0.45516  0.10199  1.0000
  C   C2634     1.0  0.79992  0.58172  0.24237  1.0000
  C   C2635     1.0  0.77024  0.59258  0.22614  1.0000
  H   H3158     1.0  0.78012  0.35471  0.25981  1.0000
  C   C2636     1.0  0.76151  0.56714  0.24515  1.0000
  C   C2637     1.0  0.80287  0.39684  0.09797  1.0000
  C   C2638     1.0  0.82733  0.63317  0.16296  1.0000
  H   H3159     1.0  0.76166  0.40522  0.23120  1.0000
  H   H3160     1.0  0.80886  0.39232  0.03729  1.0000
  H   H3161     1.0  0.77277  0.34256  0.19919  1.0000
  C   C2639     1.0  0.84860  0.62926  0.24010  1.0000
  C   C2640     1.0  0.80464  0.44408  0.09032  1.0000
  S   S719      1.0  0.75929  0.32886  0.01437  1.0000
  C   C2641     1.0  0.80053  0.44622  0.07410  1.0000
  H   H3162     1.0  0.91282  0.59645  0.21726  1.0000
  C   C2642     1.0  0.78318  0.37009  0.20112  1.0000
  H   H3163     1.0  0.77712  0.62714  0.12358  1.0000
  C   C2643     1.0  0.85737  0.54579  0.16357  1.0000
  C   C2644     1.0  0.75322  0.59443  0.25458  1.0000
  C   C2645     1.0  0.77301  0.39378  0.30380  1.0000
  S   S720      1.0  0.77096  0.34163  0.11266  1.0000
  H   H3164     1.0  0.82538  0.56220  0.27236  1.0000
  H   H3165     1.0  0.76715  0.48123  0.07601  1.0000
  H   H3166     1.0  0.75908  0.41240  0.10398  1.0000
  H   H3167     1.0  0.84010  0.45221  0.28136  1.0000
  H   H3168     1.0  0.78374  0.46114  0.05647  1.0000
  C   C2646     1.0  0.78333  0.57842  0.25207  1.0000
  C   C2647     1.0  0.87676  0.63369  0.24291  1.0000
  C   C2648     1.0  0.83642  0.63202  0.14606  1.0000
  H   H3169     1.0  0.90407  0.62822  0.25994  1.0000
  H   H3170     1.0  0.77059  0.56608  0.27757  1.0000
  H   H3171     1.0  0.74856  0.39191  0.40638  1.0000
  H   H3172     1.0  0.88063  0.62706  0.17810  1.0000
  H   H3173     1.0  0.82747  0.49180  0.24898  1.0000
  H   H3174     1.0  0.89604  0.60927  0.24638  1.0000
  H   H3175     1.0  0.88102  0.55375  0.29347  1.0000
  C   C2649     1.0  0.79916  0.39984  0.04590  1.0000
  C   C2650     1.0  0.81322  0.60970  0.16329  1.0000
  H   H3176     1.0  0.81528  0.43367  0.09375  1.0000
  C   C2651     1.0  0.89364  0.59973  0.20178  1.0000
  C   C2652     1.0  0.88672  0.53966  0.29458  1.0000
  H   H3177     1.0  0.86932  0.52620  0.32570  1.0000
  H   H3178     1.0  0.79082  0.45561  0.28171  1.0000
  H   H3179     1.0  0.81565  0.48750  0.28040  1.0000
  C   C2653     1.0  0.81600  0.62170  0.17158  1.0000
  H   H3180     1.0  0.84829  0.53883  0.17323  1.0000
  H   H3181     1.0  0.89690  0.53799  0.28269  1.0000
  H   H3182     1.0  0.94772  0.54904  0.28593  1.0000
  S   S721      1.0  0.81739  0.59486  0.13489  1.0000
  H   H3183     1.0  0.89132  0.50622  0.31254  1.0000
  H   H3184     1.0  0.87160  0.54745  0.32507  1.0000
  C   C2654     1.0  0.82171  0.60895  0.14619  1.0000
  C   C2655     1.0  0.77768  0.47080  0.08000  1.0000
  H   H3185     1.0  0.84998  0.45710  0.25875  1.0000
  H   H3186     1.0  0.84539  0.61547  0.18984  1.0000
  N   N178      1.0  0.89394  0.53250  0.31049  1.0000
  C   C2656     1.0  0.90156  0.51378  0.31113  1.0000
  C   C2657     1.0  0.77088  0.46839  0.23869  1.0000
  H   H3187     1.0  0.91110  0.51128  0.29908  1.0000
  H   H3188     1.0  0.88366  0.52902  0.33803  1.0000
  H   H3189     1.0  0.92583  0.53242  0.28795  1.0000
  C   C2658     1.0  0.89362  0.57446  0.19121  1.0000
  C   C2659     1.0  0.93599  0.55006  0.29600  1.0000
  H   H3190     1.0  0.75524  0.38930  0.45767  1.0000
  C   C2660     1.0  0.90758  0.54199  0.31002  1.0000
  C   C2661     1.0  0.92337  0.54048  0.29739  1.0000
  H   H3191     1.0  0.90837  0.50819  0.32220  1.0000
  C   C2662     1.0  0.75090  0.38886  0.43274  1.0000
  H   H3192     1.0  0.75386  0.37083  0.28747  1.0000
  C   C2663     1.0  0.79967  0.44820  0.27262  1.0000
  H   H3193     1.0  0.76045  0.54427  0.11147  1.0000
  H   H3194     1.0  0.77024  0.36807  0.37257  1.0000
  C   C2664     1.0  0.90734  0.59030  0.21008  1.0000
  H   H3195     1.0  0.91241  0.55153  0.19928  1.0000
  C   C2665     1.0  0.87206  0.60457  0.24446  1.0000
  C   C2666     1.0  0.78571  0.40442  0.07545  1.0000
  H   H3196     1.0  0.75958  0.40518  0.16780  1.0000
  C   C2667     1.0  0.90520  0.55378  0.32110  1.0000
  H   H3197     1.0  0.89357  0.55602  0.33094  1.0000
  S   S722      1.0  0.75565  0.55710  0.16896  1.0000
  H   H3198     1.0  0.76095  0.45393  0.29262  1.0000
  C   C2668     1.0  0.76265  0.51969  0.12925  1.0000
  H   H3199     1.0  0.79802  0.43266  0.14291  1.0000
  H   H3200     1.0  0.75264  0.37779  0.04160  1.0000
  C   C2669     1.0  0.77294  0.41159  0.10447  1.0000
  C   C2670     1.0  0.78162  0.46870  0.09626  1.0000
  C   C2671     1.0  0.76578  0.34037  0.02624  1.0000
  C   C2672     1.0  0.93318  0.56165  0.30687  1.0000
  H   H3201     1.0  0.82196  0.46395  0.10889  1.0000
  H   H3202     1.0  0.90790  0.52887  0.17163  1.0000
  C   C2673     1.0  0.74882  0.43027  0.15393  1.0000
  H   H3203     1.0  0.88102  0.50717  0.15592  1.0000
  H   H3204     1.0  0.82956  0.41906  0.24120  1.0000
  C   C2674     1.0  0.79416  0.43416  0.27011  1.0000
  C   C2675     1.0  0.91786  0.56346  0.31943  1.0000
  C   C2676     1.0  0.79768  0.56362  0.27666  1.0000
  H   H3205     1.0  0.80924  0.46759  0.29184  1.0000
  C   C2677     1.0  0.83985  0.46229  0.26925  1.0000
  C   C2678     1.0  0.79556  0.43520  0.12953  1.0000
  H   H3206     1.0  0.90714  0.50637  0.17788  1.0000
  C   C2679     1.0  0.81825  0.45194  0.11758  1.0000
  Fe  Fe357     1.0  0.79804  0.33409  0.11841  1.0000
  H   H3207     1.0  0.80817  0.38424  0.06831  1.0000
  H   H3208     1.0  0.86230  0.52603  0.19529  1.0000
  H   H3209     1.0  0.76119  0.41801  0.39565  1.0000
  H   H3210     1.0  0.77991  0.58439  0.21755  1.0000
  C   C2680     1.0  0.78919  0.46558  0.12944  1.0000
  C   C2681     1.0  0.90231  0.51870  0.16920  1.0000
  H   H3211     1.0  0.90792  0.51672  0.15570  1.0000
  C   C2682     1.0  0.77381  0.35712  0.04840  1.0000
  C   C2683     1.0  0.81045  0.47658  0.27898  1.0000
  N   N179      1.0  0.79940  0.45216  0.11933  1.0000
  H   H3212     1.0  0.79260  0.46308  0.14239  1.0000
  C   C2684     1.0  0.84853  0.32741  0.46843  1.0000
  H   H3213     1.0  0.78164  0.43463  0.13071  1.0000
  H   H3214     1.0  0.94269  0.56960  0.30522  1.0000
  C   C2685     1.0  0.87924  0.56509  0.13813  1.0000
  H   H3215     1.0  0.88019  0.53608  0.19339  1.0000
  H   H3216     1.0  0.90064  0.54611  0.14580  1.0000
  N   N180      1.0  0.82205  0.46758  0.26519  1.0000
  H   H3217     1.0  0.81575  0.33938  0.17108  1.0000
  C   C2686     1.0  0.87574  0.53958  0.16147  1.0000
  C   C2687     1.0  0.88654  0.54976  0.14842  1.0000
  C   C2688     1.0  0.85025  0.56110  0.15322  1.0000
  C   C2689     1.0  0.86114  0.57073  0.14051  1.0000
  H   H3218     1.0  0.83616  0.56549  0.15501  1.0000
  C   C2690     1.0  0.82121  0.42727  0.24996  1.0000
  C   C2691     1.0  0.81484  0.57606  0.24973  1.0000
  H   H3219     1.0  0.80240  0.39586  0.11195  1.0000
  H   H3220     1.0  0.87287  0.32411  0.47643  1.0000
  H   H3221     1.0  0.80918  0.40784  0.09057  1.0000
  H   H3222     1.0  0.84447  0.34440  0.15585  1.0000
  C   C2692     1.0  0.81374  0.56694  0.26679  1.0000
  H   H3223     1.0  0.76944  0.36906  0.20766  1.0000
  C   C2693     1.0  0.76042  0.36535  0.03935  1.0000
  H   H3224     1.0  0.75558  0.56123  0.25851  1.0000
  H   H3225     1.0  0.80187  0.58814  0.22892  1.0000
  H   H3226     1.0  0.75932  0.50847  0.33525  1.0000
  H   H3227     1.0  0.77347  0.40762  0.11850  1.0000
  C   C2694     1.0  0.75711  0.53160  0.11505  1.0000
  H   H3228     1.0  0.75794  0.59619  0.22099  1.0000
  C   C2695     1.0  0.75461  0.63467  0.19005  1.0000
  S   S723      1.0  0.74771  0.37536  0.25080  1.0000
  N   N181      1.0  0.88802  0.64568  0.24258  1.0000
  H   H3229     1.0  0.78549  0.61820  0.14301  1.0000
  C   C2696     1.0  0.75251  0.39714  0.41533  1.0000
  H   H3230     1.0  0.74845  0.62967  0.16812  1.0000
  H   H3231     1.0  0.74710  0.34351  0.30321  1.0000
  C   C2697     1.0  0.75241  0.44579  0.30132  1.0000
  C   C2698     1.0  0.74847  0.37158  0.31520  1.0000
  H   H3232     1.0  0.80125  0.32980  0.98000  1.0000
  C   C2699     1.0  0.74798  0.51823  0.33235  1.0000
  H   H3233     1.0  0.74961  0.46876  0.16264  1.0000
  H   H3234     1.0  0.74908  0.58781  0.26821  1.0000
  C   C2700     1.0  0.75172  0.45491  0.16384  1.0000
  C   C2701     1.0  0.74792  0.52680  0.10493  1.0000
  H   H3235     1.0  0.76308  0.64159  0.20997  1.0000
  C   C2702     1.0  0.74880  0.49858  0.12371  1.0000
  H   H3236     1.0  0.74514  0.36279  0.02240  1.0000
  H   H3237     1.0  0.74857  0.41537  0.98496  1.0000
  H   H3238     1.0  0.74649  0.37765  0.34038  1.0000
  H   H3239     1.0  0.74563  0.48586  0.12713  1.0000
  H   H3240     1.0  0.89586  0.64857  0.21501  1.0000
  C   C2703     1.0  0.77799  0.65008  0.18464  1.0000
  S   S724      1.0  0.82852  0.64930  0.17362  1.0000
  H   H3241     1.0  0.87577  0.64925  0.26850  1.0000
  C   C2704     1.0  0.86077  0.31956  0.47900  1.0000
  S   S725      1.0  0.76839  0.34789  0.47923  1.0000
  Fe  Fe358     1.0  0.99012  0.33640  0.75452  1.0000
  H   H3242     1.0  0.98699  0.43229  0.73895  1.0000
  C   C2705     1.0  0.99282  0.42976  0.71240  1.0000
  N   N182      1.0  0.90362  0.33607  0.68909  1.0000
  C   C2706     1.0  0.93434  0.33973  0.67263  1.0000
  H   H3243     1.0  0.88625  0.35286  0.70593  1.0000
  C   C2707     1.0  0.99465  0.43603  0.72612  1.0000
  H   H3244     1.0  0.90450  0.32456  0.71581  1.0000
  S   S726      1.0  0.87289  0.33291  0.74288  1.0000
  H   H3245     1.0  0.79517  0.33339  0.95932  1.0000
  C   C2708     1.0  0.93743  0.35716  0.69689  1.0000
  H   H3246     1.0  0.93009  0.34208  0.79833  1.0000
  C   C2709     1.0  0.92205  0.35130  0.69873  1.0000
  C   C2710     1.0  0.94969  0.34566  0.67090  1.0000
  H   H3247     1.0  0.93438  0.33247  0.66320  1.0000
  H   H3248     1.0  0.96074  0.34292  0.66049  1.0000
  C   C2711     1.0  0.93809  0.33511  0.78793  1.0000
  Fe  Fe359     1.0  0.96102  0.36061  0.73854  1.0000
  S   S727      1.0  0.97114  0.33206  0.74097  1.0000
  S   S728      1.0  0.93204  0.37186  0.74297  1.0000
  H   H3249     1.0  0.96323  0.32155  0.71346  1.0000
  H   H3250     1.0  0.82548  0.34569  0.51132  1.0000
  C   C2712     1.0  0.88799  0.34986  0.69293  1.0000
  H   H3251     1.0  0.88946  0.32615  0.67569  1.0000
  S   S729      1.0  0.97839  0.36447  0.75448  1.0000
  S   S730      1.0  0.97914  0.36821  0.71318  1.0000
  H   H3252     1.0  0.95177  0.33695  0.78565  1.0000
  H   H3253     1.0  0.90885  0.32201  0.80202  1.0000
  C   C2713     1.0  0.95122  0.35436  0.68299  1.0000
  C   C2714     1.0  0.79415  0.32128  0.52303  1.0000
  H   H3254     1.0  0.91194  0.35347  0.70994  1.0000
  C   C2715     1.0  0.90309  0.32120  0.70393  1.0000
  Fe  Fe360     1.0  0.75662  0.32447  0.49306  1.0000
  C   C2716     1.0  0.81900  0.33493  0.51768  1.0000
  C   C2717     1.0  0.79280  0.32629  0.97302  1.0000
  H   H3255     1.0  0.98382  0.42115  0.71461  1.0000
  H   H3256     1.0  0.87561  0.34590  0.69329  1.0000
  H   H3257     1.0  0.96335  0.35844  0.68189  1.0000
  H   H3258     1.0  0.88880  0.36205  0.68309  1.0000
  C   C2718     1.0  0.88959  0.34288  0.74401  1.0000
  C   C2719     1.0  0.90654  0.33347  0.74543  1.0000
  C   C2720     1.0  0.91990  0.34219  0.74468  1.0000
  C   C2721     1.0  0.91614  0.36021  0.74330  1.0000
  C   C2722     1.0  0.89913  0.36943  0.74228  1.0000
  C   C2723     1.0  0.88603  0.36087  0.74235  1.0000
  H   H3259     1.0  0.91240  0.31847  0.67126  1.0000
  H   H3260     1.0  0.93304  0.33502  0.74511  1.0000
  H   H3261     1.0  0.89611  0.38334  0.74121  1.0000
  H   H3262     1.0  0.87303  0.36825  0.74122  1.0000
  H   H3263     1.0  0.93345  0.34193  0.77571  1.0000
  H   H3264     1.0  0.78132  0.32250  0.52047  1.0000
  H   H3265     1.0  0.90325  0.34057  0.66194  1.0000
  C   C2724     1.0  0.91992  0.34252  0.68658  1.0000
  H   H3266     1.0  0.91515  0.32263  0.77928  1.0000
  C   C2725     1.0  0.90217  0.33015  0.67375  1.0000
  H   H3267     1.0  0.93876  0.36365  0.70649  1.0000
  H   H3268     1.0  0.90950  0.31958  0.74661  1.0000
  C   C2726     1.0  0.82751  0.32042  0.52784  1.0000
  H   H3269     1.0  0.79586  0.34660  0.50719  1.0000
  C   C2727     1.0  0.80235  0.33537  0.51531  1.0000
  Fe  Fe361     1.0  0.99021  0.33966  0.71659  1.0000
  H   H3270     1.0  0.84074  0.31987  0.52916  1.0000
  H   H3271     1.0  0.77915  0.33149  0.97918  1.0000
  S   S731      1.0  0.96304  0.76541  0.11464  1.0000
  S   S732      1.0  0.95755  0.79176  0.15086  1.0000
  Fe  Fe362     1.0  0.97312  0.73836  0.12773  1.0000
  S   S733      1.0  0.96020  0.71516  0.13646  1.0000
  Fe  Fe363     1.0  0.96270  0.84984  0.23759  1.0000
  S   S734      1.0  0.96504  0.87688  0.23684  1.0000
  S   S735      1.0  0.94875  0.83347  0.26048  1.0000
  Fe  Fe364     1.0  0.98310  0.84876  0.20090  1.0000
  H   H3272     1.0  0.75673  0.88189  0.30593  1.0000
  S   S736      1.0  0.98246  0.74632  0.14773  1.0000
  H   H3273     1.0  0.81135  0.96625  0.18892  1.0000
  Fe  Fe365     1.0  0.95884  0.88235  0.21019  1.0000
  S   S737      1.0  0.93790  0.90244  0.19776  1.0000
  H   H3274     1.0  0.80503  0.97211  0.30907  1.0000
  S   S738      1.0  0.95460  0.85560  0.21210  1.0000
  Fe  Fe366     1.0  0.82916  0.96868  0.23302  1.0000
  H   H3275     1.0  0.95915  0.70673  0.21411  1.0000
  S   S739      1.0  0.81894  0.94408  0.24010  1.0000
  H   H3276     1.0  0.96914  0.75815  0.19444  1.0000
  H   H3277     1.0  0.90177  0.86644  0.20292  1.0000
  H   H3278     1.0  0.83089  0.79155  0.21750  1.0000
  S   S740      1.0  0.84841  0.97349  0.20807  1.0000
  Fe  Fe367     1.0  0.87264  0.80863  0.24778  1.0000
  S   S741      1.0  0.84951  0.80304  0.24146  1.0000
  S   S742      1.0  0.88008  0.83443  0.23673  1.0000
  Fe  Fe368     1.0  0.88033  0.77401  0.27177  1.0000
  S   S743      1.0  0.85719  0.76541  0.26800  1.0000
  S   S744      1.0  0.90175  0.75541  0.28449  1.0000
  Fe  Fe369     1.0  0.86565  0.77653  0.23979  1.0000
  S   S745      1.0  0.86634  0.76590  0.21635  1.0000
  Fe  Fe370     1.0  0.84267  0.79272  0.26996  1.0000
  S   S746      1.0  0.81429  0.80034  0.28287  1.0000
  S   S747      1.0  0.88973  0.78323  0.24324  1.0000
  S   S748      1.0  0.86492  0.80013  0.27653  1.0000
  H   H3279     1.0  0.87889  0.66566  0.22189  1.0000
  H   H3280     1.0  0.93207  0.88546  0.13930  1.0000
  C   C2728     1.0  0.93420  0.86014  0.16720  1.0000
  Fe  Fe371     1.0  0.85754  0.68311  0.19675  1.0000
  S   S749      1.0  0.88433  0.68494  0.18143  1.0000
  S   S750      1.0  0.84888  0.69262  0.22196  1.0000
  Fe  Fe372     1.0  0.87193  0.69232  0.15825  1.0000
  S   S751      1.0  0.88069  0.71536  0.13899  1.0000
  H   H3281     1.0  0.81538  0.76200  0.25826  1.0000
  H   H3282     1.0  0.96163  0.82527  0.19150  1.0000
  S   S752      1.0  0.84445  0.69234  0.17391  1.0000
  H   H3283     1.0  0.78262  0.89733  0.32621  1.0000
  H   H3284     1.0  0.80832  0.85429  0.31108  1.0000
  Fe  Fe373     1.0  0.75212  0.89154  0.26331  1.0000
  N   N183      1.0  0.81020  0.77915  0.23419  1.0000
  H   H3285     1.0  0.78601  0.77429  0.25167  1.0000
  S   S753      1.0  0.77869  0.87699  0.25189  1.0000
  C   C2729     1.0  0.79449  0.93109  0.19125  1.0000
  Fe  Fe374     1.0  0.95867  0.74614  0.35075  1.0000
  S   S754      1.0  0.97871  0.74147  0.32694  1.0000
  S   S755      1.0  0.93135  0.76079  0.34793  1.0000
  H   H3286     1.0  0.79235  0.95932  0.20338  1.0000
  S   S756      1.0  0.94797  0.66922  0.29847  1.0000
  N   N184      1.0  0.80312  0.94589  0.18222  1.0000
  H   H3287     1.0  0.98649  0.65146  0.41522  1.0000
  C   C2730     1.0  0.99170  0.67391  0.31171  1.0000
  C   C2731     1.0  0.79718  0.88999  0.28487  1.0000
  S   S757      1.0  0.97488  0.75880  0.36075  1.0000
  S   S758      1.0  0.96734  0.71981  0.36668  1.0000
  H   H3288     1.0  0.95130  0.85717  0.13340  1.0000
  H   H3289     1.0  0.77077  0.94667  0.27795  1.0000
  H   H3290     1.0  0.97687  0.72847  0.21149  1.0000
  H   H3291     1.0  0.92031  0.67058  0.17250  1.0000
  C   C2732     1.0  0.80425  0.82171  0.27457  1.0000
  C   C2733     1.0  0.78610  0.82742  0.27955  1.0000
  C   C2734     1.0  0.77795  0.84434  0.27267  1.0000
  C   C2735     1.0  0.78796  0.85557  0.26076  1.0000
  C   C2736     1.0  0.80606  0.84986  0.25586  1.0000
  C   C2737     1.0  0.81420  0.83309  0.26288  1.0000
  H   H3292     1.0  0.77833  0.81868  0.28862  1.0000
  H   H3293     1.0  0.76394  0.84860  0.27642  1.0000
  H   H3294     1.0  0.81387  0.85849  0.24667  1.0000
  H   H3295     1.0  0.82822  0.82906  0.25931  1.0000
  C   C2738     1.0  0.86153  0.74541  0.21839  1.0000
  C   C2739     1.0  0.85526  0.73558  0.23451  1.0000
  C   C2740     1.0  0.85148  0.71934  0.23554  1.0000
  C   C2741     1.0  0.85413  0.71277  0.22050  1.0000
  C   C2742     1.0  0.86072  0.72246  0.20445  1.0000
  C   C2743     1.0  0.86434  0.73874  0.20340  1.0000
  H   H3296     1.0  0.85337  0.74039  0.24620  1.0000
  H   H3297     1.0  0.84645  0.71188  0.24800  1.0000
  H   H3298     1.0  0.86263  0.71763  0.19274  1.0000
  H   H3299     1.0  0.86913  0.74626  0.19088  1.0000
  C   C2744     1.0  0.91022  0.75814  0.30146  1.0000
  C   C2745     1.0  0.92562  0.74680  0.30542  1.0000
  C   C2746     1.0  0.93234  0.74769  0.31944  1.0000
  C   C2747     1.0  0.92360  0.75988  0.32975  1.0000
  C   C2748     1.0  0.90839  0.77149  0.32560  1.0000
  C   C2749     1.0  0.90175  0.77071  0.31142  1.0000
  H   H3300     1.0  0.93226  0.73705  0.29783  1.0000
  H   H3301     1.0  0.94394  0.73857  0.32259  1.0000
  H   H3302     1.0  0.90153  0.78092  0.33355  1.0000
  H   H3303     1.0  0.88985  0.77947  0.30851  1.0000
  C   C2750     1.0  0.98588  0.82069  0.17307  1.0000
  H   H3304     1.0  0.96620  0.74572  0.28146  1.0000
  Fe  Fe375     1.0  0.97421  0.77345  0.13351  1.0000
  C   C2751     1.0  0.92608  0.66314  0.18334  1.0000
  C   C2752     1.0  0.79629  0.85480  0.30646  1.0000
  S   S759      1.0  0.87614  0.66504  0.15401  1.0000
  C   C2753     1.0  0.95933  0.85802  0.14233  1.0000
  H   H3305     1.0  0.96585  0.69080  0.16690  1.0000
  C   C2754     1.0  0.79646  0.94804  0.24064  1.0000
  C   C2755     1.0  0.78904  0.93481  0.23929  1.0000
  C   C2756     1.0  0.77106  0.93771  0.23990  1.0000
  C   C2757     1.0  0.90639  0.84529  0.19003  1.0000
  C   C2758     1.0  0.76787  0.96718  0.24305  1.0000
  C   C2759     1.0  0.78588  0.96424  0.24243  1.0000
  H   H3306     1.0  0.79711  0.92224  0.23792  1.0000
  H   H3307     1.0  0.76540  0.92733  0.23899  1.0000
  C   C2760     1.0  0.79315  0.95896  0.17002  1.0000
  C   C2761     1.0  0.96087  0.66658  0.36301  1.0000
  C   C2762     1.0  0.97972  0.74186  0.28292  1.0000
  C   C2763     1.0  0.92849  0.83435  0.25583  1.0000
  C   C2764     1.0  0.92107  0.81962  0.26090  1.0000
  C   C2765     1.0  0.90597  0.81972  0.25528  1.0000
  C   C2766     1.0  0.89822  0.83461  0.24477  1.0000
  C   C2767     1.0  0.90511  0.84962  0.24052  1.0000
  C   C2768     1.0  0.92030  0.84947  0.24598  1.0000
  H   H3308     1.0  0.92738  0.80790  0.26850  1.0000
  H   H3309     1.0  0.90064  0.80812  0.25873  1.0000
  H   H3310     1.0  0.89885  0.86128  0.23286  1.0000
  H   H3311     1.0  0.92584  0.86099  0.24235  1.0000
  C   C2769     1.0  0.92529  0.92095  0.20587  1.0000
  C   C2770     1.0  0.90969  0.92944  0.20008  1.0000
  C   C2771     1.0  0.89923  0.94420  0.20623  1.0000
  C   C2772     1.0  0.90447  0.95081  0.21796  1.0000
  C   C2773     1.0  0.92011  0.94236  0.22368  1.0000
  C   C2774     1.0  0.93042  0.92740  0.21780  1.0000
  H   H3312     1.0  0.90570  0.92460  0.19077  1.0000
  H   H3313     1.0  0.88732  0.95068  0.20160  1.0000
  H   H3314     1.0  0.92431  0.94744  0.23270  1.0000
  H   H3315     1.0  0.94245  0.92105  0.22226  1.0000
  C   C2775     1.0  0.93824  0.71576  0.13612  1.0000
  C   C2776     1.0  0.92708  0.73095  0.12973  1.0000
  C   C2777     1.0  0.90943  0.73082  0.13047  1.0000
  C   C2778     1.0  0.90292  0.71550  0.13751  1.0000
  C   C2779     1.0  0.91423  0.70033  0.14352  1.0000
  C   C2780     1.0  0.93175  0.70047  0.14293  1.0000
  H   H3316     1.0  0.93204  0.74273  0.12417  1.0000
  H   H3317     1.0  0.90080  0.74256  0.12557  1.0000
  H   H3318     1.0  0.90952  0.68837  0.14830  1.0000
  H   H3319     1.0  0.94033  0.68861  0.14766  1.0000
  C   C2781     1.0  0.96896  0.80187  0.15999  1.0000
  C   C2782     1.0  0.96019  0.80965  0.17420  1.0000
  C   C2783     1.0  0.96861  0.81908  0.18073  1.0000
  H   H3320     1.0  0.78928  0.79578  0.24838  1.0000
  H   H3321     1.0  0.94679  0.80855  0.18005  1.0000
  H   H3322     1.0  0.80926  0.90782  0.26363  1.0000
  H   H3323     1.0  0.80117  0.74733  0.24758  1.0000
  C   C2784     1.0  0.96051  0.67877  0.38740  1.0000
  C   C2785     1.0  0.82005  0.77291  0.24841  1.0000
  H   H3324     1.0  0.79982  0.97004  0.16350  1.0000
  H   H3325     1.0  0.97086  0.70999  0.17008  1.0000
  H   H3326     1.0  0.91522  0.72084  0.28311  1.0000
  H   H3327     1.0  0.92560  0.87943  0.18363  1.0000
  C   C2786     1.0  0.80698  0.74925  0.23393  1.0000
  H   H3328     1.0  0.90876  0.74014  0.25453  1.0000
  C   C2787     1.0  0.98047  0.66873  0.30414  1.0000
  H   H3329     1.0  0.76509  0.87776  0.33331  1.0000
  C   C2788     1.0  0.96088  0.86932  0.16624  1.0000
  H   H3330     1.0  0.96727  0.67998  0.41939  1.0000
  H   H3331     1.0  0.81892  0.78330  0.25550  1.0000
  H   H3332     1.0  0.78342  0.78900  0.23152  1.0000
  H   H3333     1.0  0.80013  0.85471  0.29239  1.0000
  N   N185      1.0  0.93664  0.71407  0.26233  1.0000
  C   C2789     1.0  0.82239  0.75230  0.19883  1.0000
  C   C2790     1.0  0.99385  0.66854  0.17558  1.0000
  Fe  Fe376     1.0  0.98581  0.73215  0.37425  1.0000
  H   H3334     1.0  0.95994  0.70155  0.24679  1.0000
  C   C2791     1.0  0.94210  0.66132  0.20544  1.0000
  C   C2792     1.0  0.82030  0.76607  0.20705  1.0000
  C   C2793     1.0  0.98760  0.72436  0.28613  1.0000
  C   C2794     1.0  0.92568  0.70082  0.24290  1.0000
  C   C2795     1.0  0.91095  0.72934  0.24825  1.0000
  C   C2796     1.0  0.91380  0.70161  0.23269  1.0000
  C   C2797     1.0  0.89921  0.73003  0.23798  1.0000
  C   C2798     1.0  0.90062  0.71620  0.23019  1.0000
  H   H3335     1.0  0.93535  0.68900  0.24453  1.0000
  H   H3336     1.0  0.91485  0.69078  0.22672  1.0000
  H   H3337     1.0  0.88878  0.74127  0.23641  1.0000
  H   H3338     1.0  0.89133  0.71667  0.22243  1.0000
  C   C2799     1.0  0.77775  0.93011  0.18915  1.0000
  H   H3339     1.0  0.80944  0.80040  0.21213  1.0000
  H   H3340     1.0  0.96160  0.70016  0.26878  1.0000
  C   C2800     1.0  0.77645  0.86739  0.32950  1.0000
  Fe  Fe377     1.0  0.88674  0.65789  0.17834  1.0000
  C   C2801     1.0  0.81245  0.76497  0.22492  1.0000
  H   H3341     1.0  0.96688  0.69252  0.18796  1.0000
  H   H3342     1.0  0.98301  0.76797  0.27935  1.0000
  C   C2802     1.0  0.90972  0.86046  0.19230  1.0000
  C   C2803     1.0  0.79141  0.78476  0.24173  1.0000
  C   C2804     1.0  0.97770  0.68646  0.41044  1.0000
  H   H3343     1.0  0.75652  0.65685  0.12159  1.0000
  H   H3344     1.0  0.98591  0.65339  0.35120  1.0000
  H   H3345     1.0  0.95264  0.68625  0.39689  1.0000
  S   S760      1.0  0.97663  0.66079  0.25324  1.0000
  H   H3346     1.0  0.82712  0.95061  0.16449  1.0000
  H   H3347     1.0  0.81526  0.91716  0.20537  1.0000
  C   C2805     1.0  0.96261  0.67612  0.30688  1.0000
  H   H3348     1.0  0.79441  0.92321  0.31268  1.0000
  H   H3349     1.0  0.96529  0.84465  0.14833  1.0000
  H   H3350     1.0  0.81974  0.93207  0.16282  1.0000
  C   C2806     1.0  0.80931  0.73551  0.22560  1.0000
  H   H3351     1.0  0.94918  0.68721  0.26476  1.0000
  N   N186      1.0  0.98873  0.67579  0.39775  1.0000
  H   H3352     1.0  0.81466  0.80510  0.23033  1.0000
  H   H3353     1.0  0.94818  0.73469  0.24480  1.0000
  H   H3354     1.0  0.78818  0.65247  0.11645  1.0000
  C   C2807     1.0  0.78956  0.88622  0.30280  1.0000
  C   C2808     1.0  0.78864  0.89874  0.31263  1.0000
  N   N187      1.0  0.78260  0.87014  0.31039  1.0000
  C   C2809     1.0  0.79535  0.91379  0.30498  1.0000
  H   H3355     1.0  0.96513  0.85654  0.17441  1.0000
  C   C2810     1.0  0.80370  0.90513  0.27737  1.0000
  H   H3356     1.0  0.75716  0.91551  0.19646  1.0000
  H   H3357     1.0  0.75286  0.93358  0.30516  1.0000
  C   C2811     1.0  0.89104  0.65666  0.22503  1.0000
  H   H3358     1.0  0.93511  0.89452  0.15606  1.0000
  H   H3359     1.0  0.78406  0.97091  0.27702  1.0000
  C   C2812     1.0  0.97888  0.67264  0.38610  1.0000
  S   S761      1.0  0.98717  0.87585  0.19699  1.0000
  H   H3360     1.0  0.78000  0.96472  0.17685  1.0000
  C   C2813     1.0  0.77841  0.90260  0.20938  1.0000
  H   H3361     1.0  0.78713  0.86685  0.33614  1.0000
  C   C2814     1.0  0.97878  0.66015  0.36158  1.0000
  H   H3362     1.0  0.78633  0.65564  0.18942  1.0000
  H   H3363     1.0  0.83418  0.76844  0.24323  1.0000
  H   H3364     1.0  0.79783  0.88142  0.27642  1.0000
  C   C2815     1.0  0.93019  0.84487  0.16498  1.0000
  H   H3365     1.0  0.77222  0.89179  0.21649  1.0000
  S   S762      1.0  0.86105  0.65509  0.19611  1.0000
  S   S763      1.0  0.89188  0.96947  0.22585  1.0000
  C   C2816     1.0  0.92701  0.71057  0.28050  1.0000
  C   C2817     1.0  0.75558  0.65533  0.13576  1.0000
  H   H3366     1.0  0.95283  0.72972  0.26624  1.0000
  H   H3367     1.0  0.75961  0.97950  0.24514  1.0000
  C   C2818     1.0  0.95256  0.70022  0.26041  1.0000
  C   C2819     1.0  0.81698  0.73704  0.20809  1.0000
  H   H3368     1.0  0.80558  0.72341  0.23283  1.0000
  C   C2820     1.0  0.98517  0.68669  0.32180  1.0000
  C   C2821     1.0  0.98770  0.66311  0.37290  1.0000
  H   H3369     1.0  0.81922  0.72617  0.20180  1.0000
  C   C2822     1.0  0.98917  0.75438  0.28188  1.0000
  N   N188      1.0  0.95332  0.80303  0.31561  1.0000
  C   C2823     1.0  0.93942  0.80389  0.33146  1.0000
  C   C2824     1.0  0.94458  0.80804  0.30057  1.0000
  C   C2825     1.0  0.96287  0.78486  0.31619  1.0000
  C   C2826     1.0  0.96575  0.81402  0.31479  1.0000
  C   C2827     1.0  0.97473  0.81100  0.32854  1.0000
  C   C2828     1.0  0.96956  0.82766  0.30050  1.0000
  H   H3370     1.0  0.77095  0.87285  0.28849  1.0000
  H   H3371     1.0  0.80775  0.92879  0.28137  1.0000
  H   H3372     1.0  0.76212  0.85884  0.30763  1.0000
  H   H3373     1.0  0.94452  0.79780  0.34353  1.0000
  H   H3374     1.0  0.93289  0.81753  0.33219  1.0000
  H   H3375     1.0  0.92912  0.79678  0.33186  1.0000
  H   H3376     1.0  0.93713  0.82167  0.29914  1.0000
  H   H3377     1.0  0.93501  0.79977  0.30183  1.0000
  H   H3378     1.0  0.95422  0.80646  0.28834  1.0000
  H   H3379     1.0  0.96823  0.77945  0.32813  1.0000
  H   H3380     1.0  0.95422  0.77622  0.31599  1.0000
  H   H3381     1.0  0.97417  0.78383  0.30509  1.0000
  H   H3382     1.0  0.97285  0.80058  0.33963  1.0000
  H   H3383     1.0  0.96345  0.83093  0.28943  1.0000
  C   C2829     1.0  0.79479  0.90314  0.21167  1.0000
  H   H3384     1.0  0.88798  0.66552  0.25594  1.0000
  S   S764      1.0  0.84483  0.97378  0.24953  1.0000
  C   C2830     1.0  0.80285  0.91697  0.28738  1.0000
  H   H3385     1.0  0.77171  0.85500  0.33478  1.0000
  H   H3386     1.0  0.95234  0.89193  0.13769  1.0000
  Fe  Fe378     1.0  0.84984  0.66409  0.17196  1.0000
  C   C2831     1.0  0.80523  0.95478  0.19518  1.0000
  N   N189      1.0  0.87581  0.90910  0.25060  1.0000
  C   C2832     1.0  0.87684  0.91112  0.26791  1.0000
  C   C2833     1.0  0.89385  0.90404  0.24077  1.0000
  C   C2834     1.0  0.86797  0.92639  0.24131  1.0000
  C   C2835     1.0  0.86582  0.89549  0.25258  1.0000
  C   C2836     1.0  0.87166  0.87832  0.26128  1.0000
  C   C2837     1.0  0.85035  0.89863  0.24589  1.0000
  C   C2838     1.0  0.86276  0.86511  0.26298  1.0000
  C   C2839     1.0  0.84158  0.88527  0.24762  1.0000
  C   C2840     1.0  0.84784  0.86854  0.25606  1.0000
  H   H3387     1.0  0.88422  0.89924  0.27512  1.0000
  H   H3388     1.0  0.88370  0.92177  0.26688  1.0000
  H   H3389     1.0  0.86352  0.91422  0.27598  1.0000
  H   H3390     1.0  0.90124  0.89175  0.24734  1.0000
  H   H3391     1.0  0.90170  0.91403  0.23901  1.0000
  H   H3392     1.0  0.89376  0.90230  0.22765  1.0000
  H   H3393     1.0  0.85449  0.93124  0.24819  1.0000
  H   H3394     1.0  0.87568  0.93637  0.24026  1.0000
  H   H3395     1.0  0.86759  0.92615  0.22780  1.0000
  H   H3396     1.0  0.88345  0.87481  0.26649  1.0000
  H   H3397     1.0  0.84485  0.91125  0.23911  1.0000
  H   H3398     1.0  0.86783  0.85195  0.26913  1.0000
  H   H3399     1.0  0.82997  0.88783  0.24221  1.0000
  H   H3400     1.0  0.84138  0.85806  0.25696  1.0000
  N   N190      1.0  0.92297  0.74549  0.17801  1.0000
  C   C2841     1.0  0.90859  0.75794  0.18640  1.0000
  C   C2842     1.0  0.92904  0.75385  0.15973  1.0000
  C   C2843     1.0  0.91573  0.73051  0.17762  1.0000
  C   C2844     1.0  0.93751  0.74060  0.18751  1.0000
  C   C2845     1.0  0.94742  0.75294  0.18706  1.0000
  C   C2846     1.0  0.94196  0.72385  0.19782  1.0000
  C   C2847     1.0  0.96150  0.74854  0.19551  1.0000
  C   C2848     1.0  0.95588  0.71967  0.20651  1.0000
  C   C2849     1.0  0.96581  0.73188  0.20512  1.0000
  H   H3401     1.0  0.90386  0.75230  0.20026  1.0000
  H   H3402     1.0  0.91274  0.77009  0.18605  1.0000
  H   H3403     1.0  0.89712  0.76173  0.17998  1.0000
  H   H3404     1.0  0.93254  0.76654  0.15844  1.0000
  H   H3405     1.0  0.91875  0.75659  0.15193  1.0000
  H   H3406     1.0  0.94075  0.74538  0.15337  1.0000
  H   H3407     1.0  0.90554  0.73440  0.16953  1.0000
  H   H3408     1.0  0.92612  0.72042  0.17191  1.0000
  H   H3409     1.0  0.90920  0.72457  0.19073  1.0000
  H   H3410     1.0  0.94444  0.76614  0.18006  1.0000
  H   H3411     1.0  0.93503  0.71366  0.19925  1.0000
  H   H3412     1.0  0.90082  0.66477  0.22344  1.0000
  H   H3413     1.0  0.98423  0.84797  0.28913  1.0000
  H   H3414     1.0  0.79171  0.84242  0.31260  1.0000
  H   H3415     1.0  0.91398  0.82570  0.17465  1.0000
  C   C2850     1.0  0.80274  0.91715  0.20281  1.0000
  Fe  Fe379     1.0  0.95907  0.65373  0.24014  1.0000
  H   H3416     1.0  0.93550  0.68444  0.18653  1.0000
  S   S765      1.0  0.95159  0.67155  0.21618  1.0000
  Fe  Fe380     1.0  0.98873  0.71622  0.34331  1.0000
  H   H3417     1.0  0.82535  0.77724  0.19919  1.0000
  C   C2851     1.0  0.95613  0.68906  0.31678  1.0000
  C   C2852     1.0  0.92340  0.86780  0.18112  1.0000
  C   C2853     1.0  0.94267  0.73067  0.25882  1.0000
  H   H3418     1.0  0.76013  0.96946  0.33151  1.0000
  C   C2854     1.0  0.91653  0.83758  0.17633  1.0000
  H   H3419     1.0  0.80119  0.89273  0.22065  1.0000
  H   H3420     1.0  0.98589  0.66403  0.18851  1.0000
  H   H3421     1.0  0.82978  0.93126  0.18046  1.0000
  H   H3422     1.0  0.95479  0.87860  0.17505  1.0000
  H   H3423     1.0  0.98908  0.66357  0.16641  1.0000
  C   C2855     1.0  0.97307  0.69562  0.17412  1.0000
  H   H3424     1.0  0.93202  0.74142  0.26280  1.0000
  H   H3425     1.0  0.98554  0.65867  0.29662  1.0000
  H   H3426     1.0  0.86723  0.66603  0.25186  1.0000
  H   H3427     1.0  0.97290  0.87374  0.15809  1.0000
  C   C2856     1.0  0.95175  0.67583  0.37591  1.0000
  H   H3428     1.0  0.94230  0.69474  0.31908  1.0000
  H   H3429     1.0  0.92240  0.69813  0.28366  1.0000
  C   C2857     1.0  0.76043  0.95377  0.24218  1.0000
  H   H3430     1.0  0.79085  0.65718  0.15872  1.0000
  C   C2858     1.0  0.81656  0.79470  0.22296  1.0000
  H   H3431     1.0  0.89600  0.83946  0.19899  1.0000
  H   H3432     1.0  0.82880  0.75322  0.18530  1.0000
  H   H3433     1.0  0.79131  0.97423  0.24427  1.0000
  H   H3434     1.0  0.97041  0.86407  0.13417  1.0000
  C   C2859     1.0  0.76869  0.95182  0.28955  1.0000
  H   H3435     1.0  0.98555  0.68907  0.41865  1.0000
  H   H3436     1.0  0.96225  0.70428  0.33190  1.0000
  C   C2860     1.0  0.96741  0.69448  0.32407  1.0000
  C   C2861     1.0  0.99008  0.83432  0.31391  1.0000
  C   C2862     1.0  0.93481  0.67091  0.19122  1.0000
  H   H3437     1.0  0.93534  0.70958  0.28985  1.0000
  C   C2863     1.0  0.76993  0.91602  0.19813  1.0000
  N   N191      1.0  0.94881  0.86805  0.15575  1.0000
  H   H3438     1.0  0.75282  0.66849  0.13876  1.0000
  C   C2864     1.0  0.92479  0.71485  0.25079  1.0000
  H   H3439     1.0  0.79145  0.95332  0.15958  1.0000
  H   H3440     1.0  0.93763  0.83801  0.15483  1.0000
  C   C2865     1.0  0.82068  0.93964  0.17209  1.0000
  H   H3441     1.0  0.81374  0.94623  0.20407  1.0000
  H   H3442     1.0  0.77035  0.94008  0.18075  1.0000
  H   H3443     1.0  0.93785  0.68104  0.37679  1.0000
  C   C2866     1.0  0.76750  0.87090  0.30279  1.0000
  C   C2867     1.0  0.94176  0.88574  0.14679  1.0000
  H   H3444     1.0  0.78530  0.66598  0.13155  1.0000
  H   H3445     1.0  0.97153  0.69945  0.40379  1.0000
  H   H3446     1.0  0.85395  0.65404  0.23826  1.0000
  C   C2868     1.0  0.75599  0.95083  0.31983  1.0000
  H   H3447     1.0  0.98331  0.80772  0.25726  1.0000
  H   H3448     1.0  0.80540  0.97971  0.28628  1.0000
  Fe  Fe381     1.0  0.99307  0.86783  0.22389  1.0000
  C   C2869     1.0  0.98157  0.83760  0.30015  1.0000
  S   S766      1.0  0.75266  0.91283  0.27598  1.0000
  C   C2870     1.0  0.98661  0.82108  0.32809  1.0000
  H   H3449     1.0  0.99304  0.68697  0.14434  1.0000
  H   H3450     1.0  0.98027  0.71454  0.28710  1.0000
  C   C2871     1.0  0.75860  0.94440  0.30486  1.0000
  C   C2872     1.0  0.77615  0.96574  0.28914  1.0000
  C   C2873     1.0  0.77329  0.97298  0.30403  1.0000
  C   C2874     1.0  0.98641  0.80298  0.15276  1.0000
  S   S767      1.0  0.99160  0.72550  0.40132  1.0000
  Fe  Fe382     1.0  0.86337  0.98048  0.22430  1.0000
  C   C2875     1.0  0.76307  0.96497  0.31950  1.0000
  H   H3451     1.0  0.74820  0.94495  0.33176  1.0000
  Fe  Fe383     1.0  0.99032  0.76398  0.09816  1.0000
  H   H3452     1.0  0.95414  0.66468  0.35386  1.0000
  S   S768      1.0  0.99086  0.84037  0.22671  1.0000
  C   C2876     1.0  0.87933  0.65706  0.25527  1.0000
  Fe  Fe384     1.0  0.95866  0.65253  0.27820  1.0000
  H   H3453     1.0  0.98992  0.67796  0.20642  1.0000
  N   N192      1.0  0.99193  0.68772  0.17100  1.0000
  H   H3454     1.0  0.99332  0.79696  0.14189  1.0000
  C   C2877     1.0  0.78682  0.65230  0.13044  1.0000
  H   H3455     1.0  0.99289  0.77532  0.02621  1.0000
  H   H3456     1.0  0.99339  0.81839  0.33871  1.0000
  C   C2878     1.0  0.80019  0.98327  0.29920  1.0000
  C   C2879     1.0  0.99481  0.81240  0.15927  1.0000
  C   C2880     1.0  0.78046  0.65090  0.16684  1.0000
