data_image0
_chemical_formula_structural       HFeS2FeS2FeSFeS3FeS2FeS2FeSFeHS3C7H4C6H4C7H10CHC2H3CHC6H2NC8H4SH6CHC2H2SH3CH2CH4CHCH2CNH2CHCH5CHCHCFeH7CHC2SCH2NCHCH3CNH2C4H3NCHCH3CH4C5HC3SH2C4H2CHNHCHCHSCH2CHFeC3HC3H4SHSFeSCSFeHFeS2FeSFeS3FeS2FeHFeSFeCS2FeS2HFeSFeHS2CH2C3H2C2H4C6H5CH2C7H4C2NC2HCHCHNH2S2HNHC2HNC4H3CH3C2H3CHCHCHCH4CHCSCHC3HC2HCH2C2HSC2H3SH3FeCHCH2C2H4CHCHCH2FeHCH2CH2CHNSH4S2FeS2FeS2FeSFeS3FeS2H2CSH2CHC2HCH2C6H4C6H2CHC6H8C6H3CHCHCHNC2H8CHCH2CHCHC2SHNC9H15CH3C2HCH2CNCH3CH2CH2CH2CH4CH4CHSCHCHC2HCH3CHCHC2H2CHNCHC2SCH2CNH3C2H2CHCHC2HFe2H2CNH3FeS3CFeHCFeS2FeSHFeHFeSHS3HCFeS2FeSFeS3FeH7CHSCSC6H4C6FeH3C6H4FeC6H2CSHC2HCNC6H15CHCH2SC3HSNC9H4CH9NC9H14NCH2C4SCHSC2HCH5SH2C2HCHC2HSH2FeSH3SFeS2FeHSFeSHS2FeHSFeS2FeSH2S2C6H2CHCHC3H2C5H4C3H3C6H3C7H5C2H2NH2CHC2H3C2HCFeHC2H3CH4CHC3NHC2HCSH2CH3CFeCHCH2CH5C2H3C2HC2SCH2NHNC2HCH2SCHNHCH3C3H2CHCH2SFeS2FeSFeHSHSFeS2FeCFeSHSFeCSHFeC2HSCFeS2H4CS2C2FeHSHFeC2HC6NH3C6H3C7H5C2HCHCH2CH6NSCHC2S2C2NC4HC2H4CH6CH2NCH2FeHC2H2FeHCH4C2HCH2CSH9CNH2C2HSH3FeSFeS2FeS2FeSFeS3FeS2FeS2FeSFeS3HSCHSNHC8H4C6H3FeC6H4C6H5C5H3C2HC2H2C4H5CHNCH4C2H5CHCHC4H2C3H7NC8H5NHC3H4CHC2H2C4H3CH2NH2NCH4CSCHCHNH4CH5CHCHCH2C5HSH3C2H2C2HCH2CHC2H2CNH3C2H2CHC2HC3H2C2HCH4CHC2H4C2HCHCH4CH2SC2H3CH2C3H2CH3C3FeS2FeS2FeS2HFeS2FeSHCS2FeS2FeS2FeCFeS3FeS2FeS2Fe2S3CHC4H2C6H4C3HC2H3C2H2C6H4CFeH3SCSHC6H4C6H2C6HC3N2H2C2H2CH3NC10H13CHCH4SNH3C2H5C2HC2HCSH7CH6CH2CH4CSHNC9H14CNC3H2C2H5CHCH3C2H2NCHCH2CFeHCHC2HCHC5H2C5H2SCH5CH2C2HCH3CH4SFeCSFeS2HFeSNSFeS2FeS2FeS2CH2C4HCHCH2C6H3C6H4C4HCH2C3HC4H2CSHNH6CH2NHCH2CH5CHCH2NHC2SC2H3CHCHC4HC4H2CH2SCH6CHCH2C4HCHC2H5CH2C3H4FeC2HCFeS2Fe2SCSHFeS2H2Fe2HSFeSCFeSCFeSHSFeS3HFeCH3C6H5CHC2H4C5H2C4HCH4FeC2H2CH2S2CHCH4CHCHCSCHFeCN2C9H5CS3H2CHSH3SH4FeHCSC3H2CHC3H2CH2CH4C2HCH4NC6H3NCH8CHCH4CH3CHCH3CHCH3NHC2H2CH2C2SCHNH4CHC2H3C2HCNCSNHC3H2FeS2H2C6H6C3SC2HCH3CSH7CSH4C2HCH2C4HC2H3NHSHC3HCHFeHCHFeH2S2H3CSFeS2NC2HSH2CHSHC4SCHSC2H3FeC6H4FeH3C2H3SH8C3HCSH2NHSHC4H3FeCSHC2H3C2HC2HSCHCH2CHS2HFeS2FeSCFeSFeS3CFeS2FeS2FeSFeS3HC6H4C6H4C6H4C6H4C4H2NH2C2H4CHC3H2C7H2NCH4C4H2C2H2C2H3C4HCH2NCH5CHC6H8C3SCH2C2NSHSCNC2H3SC2HCH4C3HC3HC4SHCH2C2H3C3HNH3CH6CH4C2H2C2HCH5CHCNCH3CH2SCNHCHC5H7C2H2CH2CH2C2H4C2HCNH2CH2CH6CH2SC4H2CHCHCH3CNH4CH2CH2CHFeCNC2H7C2HC2H6SCHFeS2FeS2FeSFeSFeS2FeS2FeSFeS2HFeS2HSFeSFeHS2C2SFeS2FeSFeS3C7H4C6H3SC6HCHSCHC2SH4C8H3C7H3C7H2C3HCH2C7H3C7H3SNC9H17FeCH2CHCNCHSH3FeSHCHCHNH4C5HCHCH2SFeC2SH3C2H2SH2CHC3H2C2NH2NC2H2SHCH3CSH3C3H5FeH2CHCH2C3H2SNH6C3SHCHFeSCHFeHCHC2HCH3C4H5C2HNHNC2SH3SH2C2H3C2H7CH2C2HCHCHCH7CHSH2CH4FeHCH4C3H4CH3CHCHCFeS2FeS2FeCFeS3FeS2FeSHFeSFeS4HC6H4C6H7C6H4C3HCH2C4H5C5H8C2HC3H2CHC4HNH3C3HCH2CHCNH2CH4C2H2C2H5CH2CHCHNHC2H2CSNCH3CHC3H2C2H2CH2CH5SCH2C2H2CFeS2FeSFeHS2FeS2FeCFeSH2S2FeSHFeS2FeSFeS2FeS2Fe2CS2H3C2HCH3NC6H5C6H4C7H4CHC4H7C2HCHCH3CSCHSHNCHC2H3CNC6SH15CFeCHC4H3SH2C3HCH3SFeHSC2H3C4SFeNC2HFeS2H2CFeS2HSCFeS2FeS2FeSFeS3CSCH2FeC6H4C6H4C6H4C4HCH3C6H4NH2CHCH2CHCHCH2FeH3NC9H15CHCH2CH5SH2C3H2NC2SC3NHCH2CH3C2HC3SC2HCHC3HCH2NCH5NHCH3CHCH2CH4CH4C3HC7HCH4C2H3CH3CH2NHCNCHC2FeH3CH5CHCHCSCH2CH2SCFeS2HFeSNS2FeSHFeS2Fe2SHSHCH2FeS2FeS2H2FeSFeS3HC2HC3HFeH2C6H3C7H5C3HSCHCSC6H4FeC3H2NC10H15C2H3CHCH2CH4NC9H4CH2CH6CHC2H2CH5CHNC3SH2S2H3FeH2C2HCH2CH2CH2CH2CSHCH4CSCHNCHFe2HC2HSHFeS2FeSHFeSFeS2HS2NSCFeSFeSH2C3H2CH3C6H5C8HC6H3CHNHC6HCH4CH2C2HCS2HCHCHFeH3CNSH2CH2CH3CHCHC4HCHCH3CHCH6SHCHCH7C2H5CFeCH2CH2CHCNCHFeCFe2CSHFeSCSFeSFeSHFeSFeHSH2SC2NC2SCFeHSCNCHCS2H6CHC7H3C2HC4H2C2H2SC2H6SH2CH4CH4C2H2SHNC4HC2SFeC2HC3HCS2FeHSFeHSH2C
_chemical_formula_sum              "H1944 Fe216 S432 C1620 N108"
_cell_length_a       51.5107
_cell_length_b       54.3671
_cell_length_c       105.254
_cell_angle_alpha    86.9589
_cell_angle_beta     90.0453
_cell_angle_gamma    110.001

_space_group_name_H-M_alt    "P 1"
_space_group_IT_number       1

loop_
  _space_group_symop_operation_xyz
  'x, y, z'

loop_
  _atom_site_type_symbol
  _atom_site_label
  _atom_site_symmetry_multiplicity
  _atom_site_fract_x
  _atom_site_fract_y
  _atom_site_fract_z
  _atom_site_occupancy
  H   H1        1.0  0.33808  0.34898  0.02631  1.0000
  Fe  Fe1       1.0  0.06229  0.37502  0.04061  1.0000
  S   S1        1.0  0.08766  0.41813  0.04021  1.0000
  S   S2        1.0  0.04910  0.35928  0.02081  1.0000
  Fe  Fe2       1.0  0.07120  0.36962  0.06958  1.0000
  S   S3        1.0  0.09655  0.41192  0.07100  1.0000
  S   S4        1.0  0.06304  0.34039  0.08648  1.0000
  Fe  Fe3       1.0  0.06472  0.41898  0.05815  1.0000
  S   S5        1.0  0.04530  0.44941  0.06196  1.0000
  Fe  Fe4       1.0  0.11738  0.40701  0.05304  1.0000
  S   S6        1.0  0.16362  0.42774  0.04988  1.0000
  S   S7        1.0  0.03738  0.37671  0.05792  1.0000
  S   S8        1.0  0.09397  0.36395  0.05232  1.0000
  Fe  Fe5       1.0  0.35420  0.37947  0.05432  1.0000
  S   S9        1.0  0.33161  0.39999  0.04198  1.0000
  S   S10       1.0  0.37834  0.35491  0.04668  1.0000
  Fe  Fe6       1.0  0.34779  0.40876  0.07822  1.0000
  S   S11       1.0  0.32558  0.43181  0.06714  1.0000
  S   S12       1.0  0.36011  0.42228  0.09822  1.0000
  Fe  Fe7       1.0  0.30218  0.39339  0.05875  1.0000
  S   S13       1.0  0.25524  0.37443  0.05868  1.0000
  Fe  Fe8       1.0  0.35710  0.43627  0.05161  1.0000
  H   H2        1.0  0.03297  0.47755  0.10223  1.0000
  S   S14       1.0  0.32310  0.36994  0.07064  1.0000
  S   S15       1.0  0.38091  0.41610  0.06317  1.0000
  S   S16       1.0  0.06356  0.35841  0.14574  1.0000
  C   C1        1.0  0.18099  0.32766  0.11934  1.0000
  C   C2        1.0  0.34782  0.40731  0.11347  1.0000
  C   C3        1.0  0.35649  0.42226  0.12416  1.0000
  C   C4        1.0  0.34740  0.41150  0.13650  1.0000
  C   C5        1.0  0.32952  0.38557  0.13833  1.0000
  C   C6        1.0  0.32071  0.37060  0.12762  1.0000
  C   C7        1.0  0.32990  0.38135  0.11523  1.0000
  H   H3        1.0  0.37037  0.44229  0.12289  1.0000
  H   H4        1.0  0.35432  0.42322  0.14462  1.0000
  H   H5        1.0  0.30708  0.35045  0.12894  1.0000
  H   H6        1.0  0.32346  0.36947  0.10711  1.0000
  C   C8        1.0  0.18883  0.41282  0.05290  1.0000
  C   C9        1.0  0.21697  0.42813  0.05153  1.0000
  C   C10       1.0  0.23763  0.41678  0.05334  1.0000
  C   C11       1.0  0.23025  0.38991  0.05646  1.0000
  C   C12       1.0  0.20211  0.37465  0.05793  1.0000
  C   C13       1.0  0.18147  0.38603  0.05621  1.0000
  H   H7        1.0  0.22283  0.44885  0.04890  1.0000
  H   H8        1.0  0.25920  0.42872  0.05210  1.0000
  H   H9        1.0  0.19622  0.35382  0.06029  1.0000
  H   H10       1.0  0.15989  0.37400  0.05723  1.0000
  C   C14       1.0  0.44371  0.48114  0.07381  1.0000
  C   C15       1.0  0.06386  0.34753  0.10271  1.0000
  C   C16       1.0  0.07853  0.37227  0.10721  1.0000
  C   C17       1.0  0.07916  0.37609  0.12044  1.0000
  C   C18       1.0  0.06469  0.35532  0.12911  1.0000
  C   C19       1.0  0.05015  0.33085  0.12450  1.0000
  C   C20       1.0  0.05000  0.32692  0.11146  1.0000
  H   H11       1.0  0.08931  0.38832  0.10053  1.0000
  H   H12       1.0  0.09007  0.39522  0.12385  1.0000
  H   H13       1.0  0.03890  0.31470  0.13106  1.0000
  H   H14       1.0  0.03874  0.30776  0.10810  1.0000
  H   H15       1.0  0.21763  0.42313  0.10327  1.0000
  H   H16       1.0  0.10066  0.48193  0.08754  1.0000
  H   H17       1.0  0.01092  0.37772  0.10010  1.0000
  H   H18       1.0  0.22851  0.40276  0.02742  1.0000
  H   H19       1.0  0.12344  0.31505  0.12202  1.0000
  H   H20       1.0  0.13916  0.37573  0.99796  1.0000
  C   C21       1.0  0.13037  0.38659  0.02193  1.0000
  H   H21       1.0  0.11960  0.35015  0.14197  1.0000
  C   C22       1.0  0.21869  0.36361  0.02137  1.0000
  C   C23       1.0  0.01377  0.33923  0.00115  1.0000
  H   H22       1.0  0.23952  0.36344  0.02272  1.0000
  H   H23       1.0  0.03628  0.42091  0.09023  1.0000
  H   H24       1.0  0.46296  0.47690  0.07192  1.0000
  C   C24       1.0  0.40787  0.41608  0.01742  1.0000
  H   H25       1.0  0.11551  0.32084  0.02218  1.0000
  C   C25       1.0  0.37285  0.32145  0.00692  1.0000
  C   C26       1.0  0.39479  0.32234  0.01494  1.0000
  C   C27       1.0  0.39611  0.33259  0.02707  1.0000
  C   C28       1.0  0.37575  0.34235  0.03128  1.0000
  C   C29       1.0  0.35396  0.34168  0.02320  1.0000
  C   C30       1.0  0.35241  0.33106  0.01116  1.0000
  H   H26       1.0  0.41054  0.31482  0.01188  1.0000
  H   H27       1.0  0.41295  0.33284  0.03328  1.0000
  N   N1        1.0  0.25594  0.40180  0.09575  1.0000
  C   C31       1.0  0.22942  0.38165  0.09240  1.0000
  C   C32       1.0  0.26303  0.42379  0.08595  1.0000
  C   C33       1.0  0.27770  0.38962  0.09521  1.0000
  C   C34       1.0  0.25325  0.41179  0.10832  1.0000
  C   C35       1.0  0.27174  0.41224  0.11844  1.0000
  C   C36       1.0  0.23200  0.42223  0.11061  1.0000
  C   C37       1.0  0.26882  0.42228  0.13011  1.0000
  C   C38       1.0  0.13974  0.34681  0.14115  1.0000
  H   H28       1.0  0.15587  0.32417  0.01237  1.0000
  H   H29       1.0  0.21284  0.39001  0.09042  1.0000
  H   H30       1.0  0.23150  0.37196  0.08358  1.0000
  H   H31       1.0  0.22206  0.36605  0.10014  1.0000
  S   S17       1.0  0.11314  0.48578  0.14209  1.0000
  H   H32       1.0  0.28244  0.43972  0.08833  1.0000
  H   H33       1.0  0.24648  0.43250  0.08483  1.0000
  H   H34       1.0  0.27389  0.37306  0.10246  1.0000
  H   H35       1.0  0.27857  0.38154  0.08576  1.0000
  H   H36       1.0  0.29866  0.40419  0.09658  1.0000
  H   H37       1.0  0.28878  0.40512  0.11759  1.0000
  C   C39       1.0  0.38202  0.12765  0.01624  1.0000
  H   H38       1.0  0.28314  0.42236  0.13771  1.0000
  C   C40       1.0  0.41056  0.12221  0.99943  1.0000
  C   C41       1.0  0.41927  0.44324  0.01570  1.0000
  H   H39       1.0  0.45030  0.44444  0.09087  1.0000
  H   H40       1.0  0.42641  0.36175  0.99810  1.0000
  S   S18       1.0  0.12709  0.42055  0.14441  1.0000
  H   H41       1.0  0.20830  0.30795  0.11310  1.0000
  H   H42       1.0  0.24719  0.33269  0.12641  1.0000
  H   H43       1.0  0.03827  0.40446  0.13695  1.0000
  C   C42       1.0  0.20599  0.32278  0.11906  1.0000
  H   H44       1.0  0.17001  0.39365  0.13107  1.0000
  H   H45       1.0  0.13623  0.32613  0.14448  1.0000
  C   C43       1.0  0.22793  0.33667  0.12653  1.0000
  H   H46       1.0  0.24203  0.36608  0.14023  1.0000
  H   H47       1.0  0.44165  0.47585  0.00304  1.0000
  H   H48       1.0  0.40051  0.47675  0.09876  1.0000
  H   H49       1.0  0.24564  0.44033  0.14102  1.0000
  C   C44       1.0  0.01598  0.34224  0.01438  1.0000
  H   H50       1.0  0.40472  0.45465  0.14636  1.0000
  C   C45       1.0  0.43079  0.44891  0.09121  1.0000
  H   H51       1.0  0.26631  0.41725  0.07644  1.0000
  H   H52       1.0  0.13579  0.34033  0.10926  1.0000
  C   C46       1.0  0.16381  0.36366  0.01869  1.0000
  N   N2        1.0  0.06835  0.46513  0.10179  1.0000
  H   H53       1.0  0.03729  0.46354  0.08768  1.0000
  H   H54       1.0  0.10992  0.34095  0.12030  1.0000
  C   C47       1.0  0.02221  0.39349  0.10603  1.0000
  H   H55       1.0  0.14238  0.40435  0.01596  1.0000
  C   C48       1.0  0.19813  0.34168  0.01708  1.0000
  H   H56       1.0  0.42735  0.46828  0.06779  1.0000
  H   H57       1.0  0.38789  0.48587  0.13387  1.0000
  H   H58       1.0  0.36072  0.12383  0.02001  1.0000
  H   H59       1.0  0.16484  0.31607  0.11337  1.0000
  H   H60       1.0  0.41738  0.45547  0.02320  1.0000
  C   C49       1.0  0.40990  0.40026  0.00771  1.0000
  H   H61       1.0  0.03198  0.34761  0.99511  1.0000
  C   C50       1.0  0.05286  0.43342  0.12132  1.0000
  H   H62       1.0  0.43435  0.47711  0.11363  1.0000
  C   C51       1.0  0.34372  0.04483  0.01488  1.0000
  Fe  Fe9       1.0  0.11717  0.45189  0.15404  1.0000
  H   H63       1.0  0.01126  0.36933  0.12342  1.0000
  H   H64       1.0  0.38987  0.00831  0.00782  1.0000
  H   H65       1.0  0.21297  0.44017  0.12392  1.0000
  H   H66       1.0  0.13683  0.38489  0.12413  1.0000
  H   H67       1.0  0.10401  0.35889  0.00334  1.0000
  H   H68       1.0  0.15370  0.35965  0.14803  1.0000
  H   H69       1.0  0.39709  0.40718  0.02630  1.0000
  C   C52       1.0  0.12933  0.33641  0.11948  1.0000
  H   H70       1.0  0.41587  0.43564  0.08481  1.0000
  C   C53       1.0  0.41581  0.47559  0.14646  1.0000
  C   C54       1.0  0.22500  0.35550  0.13430  1.0000
  S   S19       1.0  0.38436  0.47175  0.03992  1.0000
  C   C55       1.0  0.36661  0.08781  0.00373  1.0000
  H   H71       1.0  0.99342  0.33300  0.03220  1.0000
  H   H72       1.0  0.33528  0.33038  0.00506  1.0000
  N   N3        1.0  0.13476  0.36263  0.01772  1.0000
  C   C56       1.0  0.08817  0.46260  0.09216  1.0000
  H   H73       1.0  0.12408  0.34064  0.03570  1.0000
  C   C57       1.0  0.11661  0.34001  0.02575  1.0000
  H   H74       1.0  0.06459  0.44769  0.12780  1.0000
  H   H75       1.0  0.10830  0.38512  0.02130  1.0000
  H   H76       1.0  0.42130  0.11215  0.00593  1.0000
  C   C58       1.0  0.21242  0.38576  0.02405  1.0000
  N   N4        1.0  0.38151  0.11649  0.00361  1.0000
  H   H77       1.0  0.12638  0.34072  0.00071  1.0000
  H   H78       1.0  0.16609  0.38567  0.11462  1.0000
  C   C59       1.0  0.15633  0.38033  0.12426  1.0000
  C   C60       1.0  0.43295  0.45466  0.00431  1.0000
  C   C61       1.0  0.24767  0.43229  0.13202  1.0000
  C   C62       1.0  0.18546  0.38593  0.02279  1.0000
  H   H79       1.0  0.19896  0.37526  0.14087  1.0000
  H   H80       1.0  0.42255  0.14364  0.99897  1.0000
  H   H81       1.0  0.46129  0.41005  0.02458  1.0000
  N   N5        1.0  0.15108  0.35230  0.12793  1.0000
  C   C63       1.0  0.22925  0.43219  0.12233  1.0000
  H   H82       1.0  0.37861  0.15217  0.99459  1.0000
  C   C64       1.0  0.20017  0.36056  0.13464  1.0000
  H   H83       1.0  0.09486  0.33974  0.02609  1.0000
  H   H84       1.0  0.07762  0.45039  0.08430  1.0000
  H   H85       1.0  0.48073  0.45828  0.02094  1.0000
  C   C65       1.0  0.03762  0.40862  0.12677  1.0000
  H   H86       1.0  0.39263  0.14934  0.01569  1.0000
  H   H87       1.0  0.13626  0.38998  0.03202  1.0000
  H   H88       1.0  0.10252  0.45333  0.09651  1.0000
  H   H89       1.0  0.42152  0.44306  0.10092  1.0000
  C   C66       1.0  0.05292  0.43903  0.10794  1.0000
  C   C67       1.0  0.17729  0.34674  0.12722  1.0000
  C   C68       1.0  0.43518  0.43896  0.99453  1.0000
  C   C69       1.0  0.02231  0.38873  0.11916  1.0000
  C   C70       1.0  0.03712  0.41825  0.10048  1.0000
  H   H90       1.0  0.20315  0.32450  0.01497  1.0000
  C   C71       1.0  0.35691  0.07200  0.01514  1.0000
  C   C72       1.0  0.08438  0.48452  0.11082  1.0000
  C   C73       1.0  0.48182  0.41922  0.02039  1.0000
  S   S20       1.0  0.18956  0.40918  0.15765  1.0000
  H   H91       1.0  0.35942  0.08004  0.02439  1.0000
  H   H92       1.0  0.18210  0.40362  0.02535  1.0000
  C   C74       1.0  0.06795  0.48193  0.06050  1.0000
  C   C75       1.0  0.17112  0.34168  0.01567  1.0000
  C   C76       1.0  0.99217  0.33109  0.02201  1.0000
  C   C77       1.0  0.04867  0.47598  0.09535  1.0000
  H   H93       1.0  0.40049  0.37933  0.00946  1.0000
  H   H94       1.0  0.33668  0.03298  0.02365  1.0000
  C   C78       1.0  0.12576  0.35933  0.00435  1.0000
  H   H95       1.0  0.39361  0.11964  0.02329  1.0000
  N   N6        1.0  0.43577  0.47692  0.08754  1.0000
  H   H96       1.0  0.10028  0.47795  0.11568  1.0000
  C   C79       1.0  0.43925  0.48490  0.15383  1.0000
  H   H97       1.0  0.45920  0.38572  0.99322  1.0000
  C   C80       1.0  0.33983  0.03266  0.00337  1.0000
  H   H98       1.0  0.10381  0.47188  0.05613  1.0000
  S   S21       1.0  0.31767  0.37133  0.15377  1.0000
  C   C81       1.0  0.37472  0.98878  0.00902  1.0000
  H   H99       1.0  0.39350  0.47085  0.08243  1.0000
  H   H100      1.0  0.46626  0.00643  0.99731  1.0000
  C   C82       1.0  0.98826  0.32523  0.99563  1.0000
  H   H101      1.0  0.32993  0.01156  0.00319  1.0000
  Fe  Fe10      1.0  0.09159  0.39302  0.15568  1.0000
  C   C83       1.0  0.40960  0.48226  0.08901  1.0000
  C   C84       1.0  0.42334  0.41116  0.99590  1.0000
  C   C85       1.0  0.36832  0.13048  0.99464  1.0000
  H   H102      1.0  0.34608  0.12575  0.99713  1.0000
  C   C86       1.0  0.45566  0.98730  0.00201  1.0000
  C   C87       1.0  0.34915  0.04753  0.99206  1.0000
  C   C88       1.0  0.36233  0.07465  0.99219  1.0000
  H   H103      1.0  0.39853  0.43927  0.24233  1.0000
  H   H104      1.0  0.00596  0.46140  0.27640  1.0000
  H   H105      1.0  0.40053  0.44732  0.22099  1.0000
  H   H106      1.0  0.34574  0.27493  0.32433  1.0000
  S   S22       1.0  0.11652  0.38823  0.17268  1.0000
  H   H107      1.0  0.26049  0.46172  0.21138  1.0000
  S   S23       1.0  0.07930  0.42455  0.16422  1.0000
  Fe  Fe11      1.0  0.10800  0.42283  0.18019  1.0000
  S   S24       1.0  0.10188  0.43391  0.20032  1.0000
  C   C89       1.0  0.29781  0.28749  0.29489  1.0000
  S   S25       1.0  0.14535  0.45268  0.17037  1.0000
  Fe  Fe12      1.0  0.33254  0.39311  0.17185  1.0000
  H   H108      1.0  0.38701  0.48354  0.18118  1.0000
  Fe  Fe13      1.0  0.33506  0.38960  0.20163  1.0000
  S   S26       1.0  0.35277  0.43319  0.20238  1.0000
  S   S27       1.0  0.31936  0.36639  0.22039  1.0000
  Fe  Fe14      1.0  0.32184  0.43412  0.18764  1.0000
  S   S28       1.0  0.29551  0.45908  0.19008  1.0000
  Fe  Fe15      1.0  0.37892  0.43116  0.18573  1.0000
  S   S29       1.0  0.42413  0.45454  0.18556  1.0000
  S   S30       1.0  0.30224  0.39050  0.18771  1.0000
  S   S31       1.0  0.36361  0.38717  0.18582  1.0000
  Fe  Fe16      1.0  0.09464  0.38564  0.27289  1.0000
  S   S32       1.0  0.11591  0.42820  0.27601  1.0000
  S   S33       1.0  0.09376  0.36888  0.25335  1.0000
  Fe  Fe17      1.0  0.07886  0.37142  0.30175  1.0000
  H   H109      1.0  0.14274  0.34913  0.21362  1.0000
  Fe  Fe18      1.0  0.07933  0.42418  0.28855  1.0000
  S   S34       1.0  0.06285  0.45743  0.28388  1.0000
  Fe  Fe19      1.0  0.13306  0.41482  0.29349  1.0000
  C   C90       1.0  0.24517  0.39322  0.20728  1.0000
  S   S35       1.0  0.05663  0.38157  0.28465  1.0000
  S   S36       1.0  0.11529  0.37238  0.28950  1.0000
  Fe  Fe20      1.0  0.35859  0.38733  0.28981  1.0000
  S   S37       1.0  0.34311  0.42036  0.28590  1.0000
  S   S38       1.0  0.38232  0.38044  0.27309  1.0000
  H   H110      1.0  0.15418  0.37922  0.23014  1.0000
  Fe  Fe21      1.0  0.30444  0.39473  0.29587  1.0000
  S   S39       1.0  0.26510  0.38641  0.28485  1.0000
  Fe  Fe22      1.0  0.35943  0.43415  0.30501  1.0000
  H   H111      1.0  0.42403  0.46721  0.32002  1.0000
  S   S40       1.0  0.31882  0.36027  0.29874  1.0000
  S   S41       1.0  0.37726  0.40210  0.30850  1.0000
  C   C91       1.0  0.20114  0.42292  0.29566  1.0000
  H   H112      1.0  0.18759  0.43021  0.20404  1.0000
  H   H113      1.0  0.17752  0.40715  0.19157  1.0000
  C   C92       1.0  0.24105  0.40105  0.28904  1.0000
  C   C93       1.0  0.21562  0.39393  0.28289  1.0000
  C   C94       1.0  0.19563  0.40476  0.28623  1.0000
  H   H114      1.0  0.21117  0.37973  0.27565  1.0000
  H   H115      1.0  0.17598  0.39906  0.28149  1.0000
  C   C95       1.0  0.24166  0.41622  0.16522  1.0000
  C   C96       1.0  0.21891  0.42438  0.16648  1.0000
  H   H116      1.0  0.15466  0.35925  0.19748  1.0000
  H   H117      1.0  0.14437  0.40419  0.22218  1.0000
  H   H118      1.0  0.14141  0.30961  0.31896  1.0000
  H   H119      1.0  0.15205  0.41504  0.20034  1.0000
  C   C97       1.0  0.33765  0.37137  0.23483  1.0000
  C   C98       1.0  0.36647  0.38263  0.23514  1.0000
  C   C99       1.0  0.38009  0.38502  0.24690  1.0000
  C   C100      1.0  0.36494  0.37748  0.25841  1.0000
  C   C101      1.0  0.33610  0.36709  0.25808  1.0000
  C   C102      1.0  0.32264  0.36329  0.24634  1.0000
  H   H120      1.0  0.37828  0.38850  0.22632  1.0000
  H   H121      1.0  0.40242  0.39276  0.24706  1.0000
  H   H122      1.0  0.32418  0.36108  0.26687  1.0000
  H   H123      1.0  0.30042  0.35408  0.24616  1.0000
  H   H124      1.0  0.27607  0.27716  0.29701  1.0000
  C   C103      1.0  0.25585  0.45420  0.22120  1.0000
  H   H125      1.0  0.36392  0.34625  0.31619  1.0000
  H   H126      1.0  0.25260  0.39136  0.25727  1.0000
  C   C104      1.0  0.14814  0.36585  0.20640  1.0000
  C   C105      1.0  0.09727  0.41500  0.21495  1.0000
  C   C106      1.0  0.08994  0.38769  0.21551  1.0000
  C   C107      1.0  0.08838  0.37374  0.22736  1.0000
  C   C108      1.0  0.09366  0.38688  0.23877  1.0000
  C   C109      1.0  0.10011  0.41409  0.23821  1.0000
  C   C110      1.0  0.10189  0.42803  0.22637  1.0000
  H   H127      1.0  0.08547  0.37734  0.20683  1.0000
  H   H128      1.0  0.08302  0.35265  0.22771  1.0000
  H   H129      1.0  0.10407  0.42444  0.24689  1.0000
  H   H130      1.0  0.10727  0.44911  0.22607  1.0000
  C   C111      1.0  0.27327  0.44296  0.22755  1.0000
  C   C112      1.0  0.31182  0.42367  0.24047  1.0000
  N   N7        1.0  0.15423  0.34934  0.32475  1.0000
  C   C113      1.0  0.26669  0.44724  0.18041  1.0000
  C   C114      1.0  0.24415  0.45594  0.18150  1.0000
  H   H131      1.0  0.32564  0.41593  0.24632  1.0000
  C   C115      1.0  0.44759  0.46845  0.28436  1.0000
  H   H132      1.0  0.43003  0.46479  0.29079  1.0000
  C   C116      1.0  0.15415  0.37513  0.31940  1.0000
  H   H133      1.0  0.26500  0.38243  0.24287  1.0000
  N   N8        1.0  0.17003  0.38951  0.21072  1.0000
  H   H134      1.0  0.17888  0.41171  0.22749  1.0000
  H   H135      1.0  0.31044  0.42947  0.26481  1.0000
  S   S42       1.0  0.09825  0.41395  0.30645  1.0000
  S   S43       1.0  0.31842  0.41118  0.31488  1.0000
  H   H136      1.0  0.22225  0.34203  0.22909  1.0000
  N   N9        1.0  0.36693  0.30916  0.31208  1.0000
  H   H137      1.0  0.99713  0.48184  0.29447  1.0000
  C   C117      1.0  0.30625  0.29751  0.28253  1.0000
  C   C118      1.0  0.22659  0.44605  0.23993  1.0000
  H   H138      1.0  0.13274  0.37558  0.31843  1.0000
  N   N10       1.0  0.28649  0.42216  0.24770  1.0000
  C   C119      1.0  0.29550  0.43653  0.25944  1.0000
  C   C120      1.0  0.22182  0.35802  0.22258  1.0000
  C   C121      1.0  0.24566  0.37278  0.21571  1.0000
  C   C122      1.0  0.22987  0.35830  0.31852  1.0000
  H   H139      1.0  0.20276  0.45112  0.17533  1.0000
  H   H140      1.0  0.38144  0.48321  0.22033  1.0000
  H   H141      1.0  0.15291  0.47681  0.28799  1.0000
  C   C123      1.0  0.24667  0.41931  0.29843  1.0000
  H   H142      1.0  0.43492  0.45268  0.22700  1.0000
  H   H143      1.0  0.06121  0.47870  0.19731  1.0000
  H   H144      1.0  0.37477  0.32615  0.28680  1.0000
  C   C124      1.0  0.46998  0.45442  0.26751  1.0000
  C   C125      1.0  0.16156  0.39636  0.22315  1.0000
  H   H145      1.0  0.15167  0.33409  0.30601  1.0000
  H   H146      1.0  0.14488  0.46955  0.31020  1.0000
  H   H147      1.0  0.37943  0.27745  0.30635  1.0000
  C   C126      1.0  0.22081  0.39868  0.20546  1.0000
  H   H148      1.0  0.26628  0.42488  0.30321  1.0000
  C   C127      1.0  0.42174  0.46190  0.22159  1.0000
  H   H149      1.0  0.40035  0.30908  0.29961  1.0000
  C   C128      1.0  0.19612  0.38402  0.21227  1.0000
  H   H150      1.0  0.17942  0.35175  0.22655  1.0000
  C   C129      1.0  0.19740  0.36362  0.22098  1.0000
  H   H151      1.0  0.32418  0.44425  0.23738  1.0000
  H   H152      1.0  0.39063  0.34858  0.30483  1.0000
  H   H153      1.0  0.22195  0.41447  0.19862  1.0000
  H   H154      1.0  0.38674  0.47320  0.27641  1.0000
  C   C130      1.0  0.38864  0.29860  0.30830  1.0000
  H   H155      1.0  0.29118  0.29501  0.27507  1.0000
  C   C131      1.0  0.33408  0.31110  0.27980  1.0000
  S   S44       1.0  0.34989  0.43703  0.17093  1.0000
  C   C132      1.0  0.26799  0.43324  0.24046  1.0000
  H   H156      1.0  0.23102  0.44429  0.30904  1.0000
  C   C133      1.0  0.37985  0.33769  0.31364  1.0000
  C   C134      1.0  0.24384  0.43475  0.24638  1.0000
  C   C135      1.0  0.39170  0.45390  0.25971  1.0000
  H   H157      1.0  0.30551  0.45796  0.25720  1.0000
  C   C136      1.0  0.31717  0.29098  0.30458  1.0000
  C   C137      1.0  0.34578  0.30475  0.30209  1.0000
  H   H158      1.0  0.46979  0.43974  0.26089  1.0000
  C   C138      1.0  0.44763  0.44969  0.27587  1.0000
  H   H159      1.0  0.30911  0.28298  0.31396  1.0000
  H   H160      1.0  0.30678  0.41168  0.23194  1.0000
  C   C139      1.0  0.27142  0.39418  0.25139  1.0000
  C   C140      1.0  0.22016  0.44445  0.17451  1.0000
  H   H161      1.0  0.12861  0.36966  0.20439  1.0000
  S   S45       1.0  0.38283  0.47849  0.30349  1.0000
  C   C141      1.0  0.22673  0.43030  0.30170  1.0000
  C   C142      1.0  0.39359  0.47569  0.26653  1.0000
  H   H162      1.0  0.26451  0.36826  0.21681  1.0000
  H   H163      1.0  0.27812  0.43369  0.26627  1.0000
  H   H164      1.0  0.24450  0.36388  0.31057  1.0000
  S   S46       1.0  0.17599  0.43590  0.30033  1.0000
  H   H165      1.0  0.29070  0.44219  0.22208  1.0000
  H   H166      1.0  0.26374  0.40494  0.20202  1.0000
  H   H167      1.0  0.05997  0.47041  0.31006  1.0000
  Fe  Fe23      1.0  0.33522  0.37778  0.31725  1.0000
  C   C143      1.0  0.26559  0.42785  0.17204  1.0000
  H   H168      1.0  0.28440  0.38548  0.25730  1.0000
  C   C144      1.0  0.17208  0.41146  0.20126  1.0000
  H   H169      1.0  0.43023  0.43147  0.27575  1.0000
  H   H170      1.0  0.01063  0.32558  0.32180  1.0000
  C   C145      1.0  0.40073  0.45702  0.24702  1.0000
  C   C146      1.0  0.01093  0.47979  0.27023  1.0000
  H   H171      1.0  0.38343  0.43441  0.26432  1.0000
  H   H172      1.0  0.43003  0.46572  0.21164  1.0000
  H   H173      1.0  0.34063  0.31924  0.27021  1.0000
  H   H174      1.0  0.11925  0.32734  0.31384  1.0000
  C   C147      1.0  0.35357  0.31482  0.28940  1.0000
  H   H175      1.0  0.23822  0.42735  0.25612  1.0000
  C   C148      1.0  0.23267  0.45589  0.22738  1.0000
  H   H176      1.0  0.24513  0.47125  0.18783  1.0000
  C   C149      1.0  0.20262  0.35734  0.31674  1.0000
  H   H177      1.0  0.21945  0.46487  0.22242  1.0000
  H   H178      1.0  0.28322  0.42174  0.17077  1.0000
  Fe  Fe24      1.0  0.15139  0.41825  0.16173  1.0000
  H   H179      1.0  0.19708  0.36225  0.30727  1.0000
  C   C150      1.0  0.41215  0.48231  0.24076  1.0000
  H   H180      1.0  0.16357  0.37999  0.30971  1.0000
  H   H181      1.0  0.24086  0.40085  0.15894  1.0000
  C   C151      1.0  0.35566  0.29655  0.32472  1.0000
  H   H182      1.0  0.40421  0.30050  0.31588  1.0000
  H   H183      1.0  0.39526  0.34201  0.32137  1.0000
  C   C152      1.0  0.14119  0.32922  0.31551  1.0000
  H   H184      1.0  0.20850  0.44731  0.24475  1.0000
  N   N11       1.0  0.42170  0.48634  0.22730  1.0000
  S   S47       1.0  0.07099  0.33864  0.31779  1.0000
  H   H185      1.0  0.00404  0.47389  0.26050  1.0000
  H   H186      1.0  0.44617  0.47107  0.15946  1.0000
  H   H187      1.0  0.08958  0.47490  0.17824  1.0000
  H   H188      1.0  0.12011  0.48632  0.18748  1.0000
  S   S48       1.0  0.22202  0.21329  0.48297  1.0000
  S   S49       1.0  0.25559  0.03039  0.39107  1.0000
  Fe  Fe25      1.0  0.24866  0.20506  0.41023  1.0000
  S   S50       1.0  0.20656  0.17465  0.41132  1.0000
  S   S51       1.0  0.27296  0.20790  0.42850  1.0000
  Fe  Fe26      1.0  0.24386  0.22079  0.38185  1.0000
  S   S52       1.0  0.20114  0.19025  0.38140  1.0000
  S   S53       1.0  0.25368  0.24359  0.36218  1.0000
  Fe  Fe27      1.0  0.19368  0.20444  0.40011  1.0000
  S   S54       1.0  0.15623  0.21371  0.40622  1.0000
  Fe  Fe28      1.0  0.21773  0.16266  0.39258  1.0000
  S   S55       1.0  0.19971  0.11874  0.38977  1.0000
  S   S56       1.0  0.23513  0.23634  0.40026  1.0000
  S   S57       1.0  0.26115  0.19165  0.39184  1.0000
  Fe  Fe29      1.0  0.01639  0.18747  0.37828  1.0000
  S   S58       1.0  0.05032  0.17303  0.37242  1.0000
  S   S59       1.0  0.02277  0.22906  0.38243  1.0000
  H   H189      1.0  0.19979  0.21106  0.45787  1.0000
  H   H190      1.0  0.15213  0.24098  0.42967  1.0000
  C   C153      1.0  0.99437  0.22534  0.44446  1.0000
  S   S60       1.0  0.00557  0.22721  0.41887  1.0000
  H   H191      1.0  0.07526  0.29996  0.33671  1.0000
  H   H192      1.0  0.20635  0.25057  0.37357  1.0000
  C   C154      1.0  0.25749  0.08268  0.43696  1.0000
  H   H193      1.0  0.27092  0.13121  0.44839  1.0000
  C   C155      1.0  0.16600  0.25294  0.44848  1.0000
  C   C156      1.0  0.10087  0.23893  0.34829  1.0000
  H   H194      1.0  0.23975  0.26855  0.43436  1.0000
  C   C157      1.0  0.05387  0.29864  0.33666  1.0000
  H   H195      1.0  0.22177  0.02067  0.42854  1.0000
  H   H196      1.0  0.20610  0.27972  0.48749  1.0000
  C   C158      1.0  0.07900  0.18297  0.38233  1.0000
  C   C159      1.0  0.07906  0.19790  0.39276  1.0000
  C   C160      1.0  0.10278  0.20697  0.40016  1.0000
  C   C161      1.0  0.12625  0.20068  0.39731  1.0000
  C   C162      1.0  0.12578  0.18493  0.38718  1.0000
  C   C163      1.0  0.10228  0.17629  0.37963  1.0000
  H   H197      1.0  0.06108  0.20300  0.39494  1.0000
  H   H198      1.0  0.10308  0.21928  0.40794  1.0000
  H   H199      1.0  0.14352  0.17949  0.38510  1.0000
  H   H200      1.0  0.10218  0.16456  0.37162  1.0000
  C   C164      1.0  0.27477  0.27508  0.35546  1.0000
  C   C165      1.0  0.29518  0.29308  0.36234  1.0000
  C   C166      1.0  0.31195  0.31728  0.35641  1.0000
  C   C167      1.0  0.30839  0.32413  0.34359  1.0000
  C   C168      1.0  0.28758  0.30636  0.33676  1.0000
  C   C169      1.0  0.27110  0.28197  0.34263  1.0000
  H   H201      1.0  0.29842  0.28820  0.37217  1.0000
  H   H202      1.0  0.32799  0.33075  0.36181  1.0000
  C   C170      1.0  0.02897  0.10639  0.38243  1.0000
  H   H203      1.0  0.25550  0.26823  0.33715  1.0000
  C   C171      1.0  0.23970  0.05469  0.39064  1.0000
  C   C172      1.0  0.21099  0.04814  0.39044  1.0000
  C   C173      1.0  0.19919  0.06805  0.39002  1.0000
  C   C174      1.0  0.21589  0.09466  0.38985  1.0000
  C   C175      1.0  0.24462  0.10122  0.38992  1.0000
  C   C176      1.0  0.25643  0.08131  0.39034  1.0000
  H   H204      1.0  0.19788  0.02777  0.39056  1.0000
  H   H205      1.0  0.17695  0.06278  0.38988  1.0000
  H   H206      1.0  0.25773  0.12160  0.38949  1.0000
  H   H207      1.0  0.27866  0.08656  0.39037  1.0000
  H   H208      1.0  0.28455  0.31118  0.32689  1.0000
  H   H209      1.0  0.20777  0.09169  0.41757  1.0000
  H   H210      1.0  0.26158  0.04489  0.44138  1.0000
  H   H211      1.0  0.13821  0.23802  0.34012  1.0000
  C   C177      1.0  0.23449  0.20716  0.46816  1.0000
  C   C178      1.0  0.26034  0.20427  0.46694  1.0000
  C   C179      1.0  0.27170  0.20411  0.45475  1.0000
  C   C180      1.0  0.25717  0.20637  0.44368  1.0000
  C   C181      1.0  0.23072  0.20783  0.44493  1.0000
  C   C182      1.0  0.21966  0.20863  0.45708  1.0000
  H   H212      1.0  0.27224  0.20361  0.47534  1.0000
  H   H213      1.0  0.29220  0.20302  0.45391  1.0000
  H   H214      1.0  0.21921  0.20940  0.43650  1.0000
  C   C183      1.0  0.05766  0.08228  0.37560  1.0000
  H   H215      1.0  0.13811  0.25194  0.38050  1.0000
  C   C184      1.0  0.10126  0.24717  0.37056  1.0000
  H   H216      1.0  0.19491  0.04428  0.41695  1.0000
  C   C185      1.0  0.16979  0.24892  0.43571  1.0000
  H   H217      1.0  0.06539  0.23937  0.35890  1.0000
  N   N12       1.0  0.25058  0.12584  0.43028  1.0000
  C   C186      1.0  0.27488  0.13838  0.43824  1.0000
  C   C187      1.0  0.25747  0.13737  0.41710  1.0000
  H   H218      1.0  0.20877  0.12634  0.42900  1.0000
  H   H219      1.0  0.28010  0.16007  0.43809  1.0000
  H   H220      1.0  0.29370  0.13509  0.43468  1.0000
  H   H221      1.0  0.27356  0.13096  0.41268  1.0000
  H   H222      1.0  0.23921  0.13173  0.41085  1.0000
  H   H223      1.0  0.26538  0.15919  0.41678  1.0000
  H   H224      1.0  0.27537  0.09210  0.44254  1.0000
  H   H225      1.0  0.14501  0.24784  0.45199  1.0000
  C   C188      1.0  0.03458  0.06377  0.37057  1.0000
  H   H226      1.0  0.31796  0.99465  0.39058  1.0000
  C   C189      1.0  0.21977  0.34544  0.34073  1.0000
  H   H227      1.0  0.18890  0.28657  0.35432  1.0000
  H   H228      1.0  0.07284  0.11819  0.38528  1.0000
  C   C190      1.0  0.00503  0.08806  0.37734  1.0000
  H   H229      1.0  0.07782  0.08023  0.37486  1.0000
  C   C191      1.0  0.03477  0.28010  0.34512  1.0000
  H   H230      1.0  0.08962  0.23459  0.33949  1.0000
  C   C192      1.0  0.01757  0.31303  0.32823  1.0000
  C   C193      1.0  0.19630  0.25474  0.43064  1.0000
  S   S61       1.0  0.99116  0.17041  0.39586  1.0000
  H   H231      1.0  0.33066  0.03397  0.37797  1.0000
  N   N13       1.0  0.06031  0.19597  0.44865  1.0000
  C   C194      1.0  0.03926  0.17520  0.44190  1.0000
  C   C195      1.0  0.04823  0.19774  0.46125  1.0000
  C   C196      1.0  0.06557  0.22143  0.44139  1.0000
  C   C197      1.0  0.08629  0.19003  0.44951  1.0000
  C   C198      1.0  0.10081  0.18854  0.43827  1.0000
  C   C199      1.0  0.09800  0.18567  0.46131  1.0000
  C   C200      1.0  0.12563  0.18344  0.43880  1.0000
  C   C201      1.0  0.12282  0.18048  0.46172  1.0000
  C   C202      1.0  0.13667  0.17952  0.45050  1.0000
  H   H232      1.0  0.03531  0.15558  0.44681  1.0000
  H   H233      1.0  0.01914  0.17869  0.44145  1.0000
  H   H234      1.0  0.04546  0.17425  0.43187  1.0000
  H   H235      1.0  0.04258  0.17888  0.46707  1.0000
  H   H236      1.0  0.02881  0.20227  0.46031  1.0000
  H   H237      1.0  0.06254  0.21351  0.46679  1.0000
  H   H238      1.0  0.07157  0.22093  0.43128  1.0000
  H   H239      1.0  0.04677  0.22705  0.44094  1.0000
  H   H240      1.0  0.08207  0.23749  0.44580  1.0000
  H   H241      1.0  0.09304  0.19124  0.42894  1.0000
  H   H242      1.0  0.08826  0.18590  0.47037  1.0000
  H   H243      1.0  0.13637  0.18251  0.43005  1.0000
  H   H244      1.0  0.13120  0.17688  0.47082  1.0000
  H   H245      1.0  0.15588  0.17548  0.45084  1.0000
  H   H246      1.0  0.21208  0.26866  0.35232  1.0000
  C   C203      1.0  0.20363  0.05126  0.47763  1.0000
  H   H247      1.0  0.33129  0.98915  0.32644  1.0000
  H   H248      1.0  0.28258  0.00143  0.37720  1.0000
  H   H249      1.0  0.33125  0.03526  0.36110  1.0000
  C   C204      1.0  0.21566  0.26884  0.45108  1.0000
  C   C205      1.0  0.05484  0.10355  0.38151  1.0000
  H   H250      1.0  0.23432  0.27598  0.45649  1.0000
  C   C206      1.0  0.12892  0.24878  0.37123  1.0000
  H   H251      1.0  0.13406  0.32279  0.34063  1.0000
  H   H252      1.0  0.25972  0.35348  0.33184  1.0000
  C   C207      1.0  0.23845  0.35242  0.33049  1.0000
  N   N14       1.0  0.18421  0.26714  0.47009  1.0000
  C   C208      1.0  0.99846  0.29439  0.33668  1.0000
  H   H253      1.0  0.18516  0.26938  0.37708  1.0000
  H   H254      1.0  0.09030  0.24911  0.37904  1.0000
  H   H255      1.0  0.98601  0.11732  0.36129  1.0000
  C   C209      1.0  0.13657  0.34273  0.33648  1.0000
  H   H256      1.0  0.22999  0.09786  0.48619  1.0000
  H   H257      1.0  0.16506  0.24356  0.48700  1.0000
  C   C210      1.0  0.18997  0.26727  0.35189  1.0000
  H   H258      1.0  0.03692  0.04727  0.36595  1.0000
  H   H259      1.0  0.31894  0.00972  0.34448  1.0000
  C   C211      1.0  0.19240  0.34434  0.33906  1.0000
  H   H260      1.0  0.22674  0.34117  0.35005  1.0000
  H   H261      1.0  0.98510  0.11091  0.39622  1.0000
  C   C212      1.0  0.17358  0.22055  0.35676  1.0000
  H   H262      1.0  0.16724  0.21673  0.34677  1.0000
  H   H263      1.0  0.15980  0.20390  0.36291  1.0000
  H   H264      1.0  0.19492  0.21984  0.35736  1.0000
  H   H265      1.0  0.17611  0.22638  0.47528  1.0000
  C   C213      1.0  0.14341  0.24538  0.36033  1.0000
  H   H266      1.0  0.22370  0.29690  0.47330  1.0000
  H   H267      1.0  0.18388  0.26418  0.34182  1.0000
  H   H268      1.0  0.17306  0.23432  0.38060  1.0000
  H   H269      1.0  0.19913  0.25126  0.42077  1.0000
  C   C214      1.0  0.24979  0.05544  0.43640  1.0000
  H   H270      1.0  0.23266  0.15442  0.43560  1.0000
  S   S62       1.0  0.33169  0.35421  0.33644  1.0000
  C   C215      1.0  0.08717  0.24183  0.35919  1.0000
  H   H271      1.0  0.98728  0.22391  0.46479  1.0000
  C   C216      1.0  0.21973  0.08221  0.42312  1.0000
  H   H272      1.0  0.35820  0.02783  0.36961  1.0000
  C   C217      1.0  0.24268  0.09695  0.43024  1.0000
  C   C218      1.0  0.22713  0.13280  0.43518  1.0000
  H   H273      1.0  0.22268  0.04742  0.47478  1.0000
  C   C219      1.0  0.00683  0.27774  0.34521  1.0000
  H   H274      1.0  0.02796  0.12342  0.38699  1.0000
  H   H275      1.0  0.22068  0.12386  0.44492  1.0000
  H   H276      1.0  0.99165  0.05156  0.36721  1.0000
  C   C220      1.0  0.22729  0.04168  0.42921  1.0000
  H   H277      1.0  0.14870  0.27910  0.46657  1.0000
  C   C221      1.0  0.12863  0.24083  0.34879  1.0000
  H   H278      1.0  0.99498  0.13415  0.37561  1.0000
  C   C222      1.0  0.33562  0.02446  0.36962  1.0000
  C   C223      1.0  0.21218  0.05501  0.42268  1.0000
  H   H279      1.0  0.04160  0.26765  0.35162  1.0000
  H   H280      1.0  0.11528  0.34267  0.33450  1.0000
  C   C224      1.0  0.18463  0.25029  0.37356  1.0000
  H   H281      1.0  0.17911  0.33898  0.34742  1.0000
  N   N15       1.0  0.17236  0.24593  0.36073  1.0000
  C   C225      1.0  0.21018  0.27736  0.47731  1.0000
  H   H282      1.0  0.37203  0.30012  0.33202  1.0000
  C   C226      1.0  0.16955  0.28626  0.47080  1.0000
  C   C227      1.0  0.18302  0.35040  0.32695  1.0000
  S   S63       1.0  0.99534  0.15229  0.48890  1.0000
  C   C228      1.0  0.21916  0.26466  0.43829  1.0000
  H   H283      1.0  0.22207  0.26369  0.47737  1.0000
  H   H284      1.0  0.18144  0.30522  0.46564  1.0000
  C   C229      1.0  0.00857  0.06650  0.37138  1.0000
  N   N16       1.0  0.31934  0.99600  0.36999  1.0000
  H   H285      1.0  0.00986  0.24473  0.44423  1.0000
  H   H286      1.0  0.18579  0.03323  0.47585  1.0000
  H   H287      1.0  0.22156  0.99942  0.45854  1.0000
  C   C230      1.0  0.16696  0.24192  0.47657  1.0000
  C   C231      1.0  0.18884  0.26308  0.45658  1.0000
  H   H288      1.0  0.20172  0.06742  0.47120  1.0000
  H   H289      1.0  0.16642  0.29039  0.48084  1.0000
  C   C232      1.0  0.32609  0.99344  0.34647  1.0000
  H   H290      1.0  0.14490  0.35744  0.34374  1.0000
  C   C233      1.0  0.28964  0.99270  0.36913  1.0000
  H   H291      1.0  0.34031  0.30472  0.32848  1.0000
  C   C234      1.0  0.98710  0.21237  0.43310  1.0000
  C   C235      1.0  0.04551  0.31534  0.32814  1.0000
  H   H292      1.0  0.14559  0.23467  0.47291  1.0000
  Fe  Fe30      1.0  0.98466  0.22332  0.37088  1.0000
  Fe  Fe31      1.0  0.99387  0.21139  0.39923  1.0000
  H   H293      1.0  0.28481  0.00220  0.36027  1.0000
  H   H294      1.0  0.18839  0.09992  0.48417  1.0000
  C   C236      1.0  0.17341  0.08496  0.49009  1.0000
  N   N17       1.0  0.20422  0.05751  0.49117  1.0000
  H   H295      1.0  0.12294  0.20323  0.49165  1.0000
  H   H296      1.0  0.14662  0.10804  0.49053  1.0000
  H   H297      1.0  0.16573  0.39131  0.32548  1.0000
  Fe  Fe32      1.0  0.01463  0.17204  0.63711  1.0000
  S   S64       1.0  0.02288  0.21198  0.62781  1.0000
  S   S65       1.0  0.04911  0.15865  0.64498  1.0000
  S   S66       1.0  0.20531  0.14844  0.50361  1.0000
  C   C237      1.0  0.14934  0.08966  0.49349  1.0000
  Fe  Fe33      1.0  0.23253  0.99076  0.62639  1.0000
  H   H298      1.0  0.20780  0.03863  0.50922  1.0000
  C   C238      1.0  0.27399  0.05588  0.58413  1.0000
  Fe  Fe34      1.0  0.21299  0.20176  0.64004  1.0000
  S   S67       1.0  0.25550  0.22529  0.63173  1.0000
  S   S68       1.0  0.17915  0.22021  0.63998  1.0000
  Fe  Fe35      1.0  0.22813  0.15312  0.64467  1.0000
  S   S69       1.0  0.27062  0.17239  0.63649  1.0000
  H   H299      1.0  0.27663  0.11776  0.65624  1.0000
  Fe  Fe36      1.0  0.27267  0.20680  0.64806  1.0000
  H   H300      1.0  0.14671  0.16538  0.64699  1.0000
  Fe  Fe37      1.0  0.25034  0.18919  0.62103  1.0000
  S   S70       1.0  0.26326  0.18615  0.60058  1.0000
  H   H301      1.0  0.27309  0.01883  0.60121  1.0000
  S   S71       1.0  0.20739  0.16688  0.62841  1.0000
  S   S72       1.0  0.23141  0.02852  0.61676  1.0000
  S   S73       1.0  0.31497  0.22207  0.65804  1.0000
  H   H302      1.0  0.03050  0.18592  0.56715  1.0000
  C   C239      1.0  0.28643  0.02875  0.56952  1.0000
  Fe  Fe38      1.0  0.21654  0.19526  0.53180  1.0000
  S   S74       1.0  0.19903  0.15174  0.53470  1.0000
  S   S75       1.0  0.21328  0.21685  0.54927  1.0000
  Fe  Fe39      1.0  0.23189  0.15199  0.52077  1.0000
  S   S76       1.0  0.25340  0.12324  0.52547  1.0000
  Fe  Fe40      1.0  0.17431  0.15248  0.51738  1.0000
  S   S77       1.0  0.12963  0.12771  0.51668  1.0000
  S   S78       1.0  0.25154  0.19601  0.51868  1.0000
  S   S79       1.0  0.18886  0.19620  0.51549  1.0000
  Fe  Fe41      1.0  0.02230  0.18342  0.50086  1.0000
  H   H303      1.0  0.07200  0.19773  0.59991  1.0000
  H   H304      1.0  0.14737  0.17330  0.49923  1.0000
  H   H305      1.0  0.03898  0.25855  0.65083  1.0000
  H   H306      1.0  0.24842  0.07775  0.49227  1.0000
  H   H307      1.0  0.28265  0.04100  0.56145  1.0000
  H   H308      1.0  0.26713  0.06644  0.57622  1.0000
  H   H309      1.0  0.22778  0.08846  0.50285  1.0000
  C   C240      1.0  0.11171  0.18491  0.49674  1.0000
  H   H310      1.0  0.18919  0.01122  0.55769  1.0000
  S   S80       1.0  0.01388  0.19540  0.59187  1.0000
  C   C241      1.0  0.08337  0.17811  0.49907  1.0000
  S   S81       1.0  0.22730  0.99535  0.51999  1.0000
  C   C242      1.0  0.22854  0.09228  0.52897  1.0000
  C   C243      1.0  0.20044  0.08845  0.52757  1.0000
  C   C244      1.0  0.18062  0.06358  0.53003  1.0000
  C   C245      1.0  0.18888  0.04221  0.53335  1.0000
  C   C246      1.0  0.21690  0.04613  0.53518  1.0000
  C   C247      1.0  0.23674  0.07117  0.53301  1.0000
  H   H311      1.0  0.19382  0.10435  0.52416  1.0000
  H   H312      1.0  0.15897  0.06071  0.52871  1.0000
  H   H313      1.0  0.22334  0.02979  0.53807  1.0000
  H   H314      1.0  0.25846  0.07405  0.53413  1.0000
  C   C248      1.0  0.21833  0.08843  0.64249  1.0000
  C   C249      1.0  0.20886  0.06175  0.64642  1.0000
  C   C250      1.0  0.21300  0.04322  0.63862  1.0000
  C   C251      1.0  0.22637  0.05131  0.62680  1.0000
  C   C252      1.0  0.23568  0.07796  0.62282  1.0000
  C   C253      1.0  0.23172  0.09653  0.63066  1.0000
  Fe  Fe42      1.0  0.22173  0.19237  0.50238  1.0000
  H   H315      1.0  0.20546  0.02266  0.64168  1.0000
  H   H316      1.0  0.24595  0.08429  0.61365  1.0000
  H   H317      1.0  0.23906  0.11708  0.62756  1.0000
  C   C254      1.0  0.25045  0.19715  0.58659  1.0000
  C   C255      1.0  0.26153  0.19442  0.57477  1.0000
  C   C256      1.0  0.25022  0.20027  0.56331  1.0000
  C   C257      1.0  0.22820  0.20974  0.56356  1.0000
  C   C258      1.0  0.21787  0.21360  0.57537  1.0000
  C   C259      1.0  0.22874  0.20707  0.58686  1.0000
  H   H318      1.0  0.27896  0.18765  0.57448  1.0000
  H   H319      1.0  0.25880  0.19780  0.55428  1.0000
  H   H320      1.0  0.20126  0.22146  0.57566  1.0000
  H   H321      1.0  0.22036  0.20967  0.59591  1.0000
  Fe  Fe43      1.0  0.99558  0.19076  0.61212  1.0000
  C   C260      1.0  0.08519  0.17604  0.64325  1.0000
  C   C261      1.0  0.09567  0.20262  0.63927  1.0000
  C   C262      1.0  0.12446  0.21576  0.63818  1.0000
  C   C263      1.0  0.14311  0.20248  0.64096  1.0000
  C   C264      1.0  0.13261  0.17581  0.64476  1.0000
  C   C265      1.0  0.10382  0.16276  0.64600  1.0000
  H   H322      1.0  0.08166  0.21314  0.63717  1.0000
  H   H323      1.0  0.13239  0.23643  0.63532  1.0000
  C   C266      1.0  0.99708  0.19273  0.57694  1.0000
  S   S82       1.0  0.23051  0.18618  0.65712  1.0000
  H   H324      1.0  0.22884  0.03359  0.49678  1.0000
  C   C267      1.0  0.12899  0.07112  0.50101  1.0000
  C   C268      1.0  0.17817  0.06174  0.49451  1.0000
  H   H325      1.0  0.28174  0.00858  0.56626  1.0000
  C   C269      1.0  0.19875  0.00725  0.56636  1.0000
  N   N18       1.0  0.12204  0.20078  0.54163  1.0000
  C   C270      1.0  0.09605  0.19294  0.53431  1.0000
  C   C271      1.0  0.14266  0.22291  0.53428  1.0000
  C   C272      1.0  0.13203  0.17817  0.54237  1.0000
  C   C273      1.0  0.11874  0.20878  0.55460  1.0000
  C   C274      1.0  0.14169  0.21650  0.56281  1.0000
  C   C275      1.0  0.09331  0.20989  0.55937  1.0000
  H   H326      1.0  0.07970  0.17587  0.53908  1.0000
  H   H327      1.0  0.08802  0.20943  0.53271  1.0000
  H   H328      1.0  0.09928  0.18684  0.52468  1.0000
  H   H329      1.0  0.13677  0.24081  0.53410  1.0000
  H   H330      1.0  0.14464  0.21813  0.52424  1.0000
  H   H331      1.0  0.16373  0.22807  0.53833  1.0000
  H   H332      1.0  0.11762  0.16130  0.54814  1.0000
  H   H333      1.0  0.13386  0.17117  0.53276  1.0000
  H   H334      1.0  0.15293  0.18312  0.54653  1.0000
  H   H335      1.0  0.16175  0.21650  0.55980  1.0000
  H   H336      1.0  0.07476  0.20477  0.55381  1.0000
  H   H337      1.0  0.19834  0.05542  0.65554  1.0000
  H   H338      1.0  0.04665  0.14819  0.50679  1.0000
  H   H339      1.0  0.11280  0.23275  0.58867  1.0000
  H   H340      1.0  0.07161  0.11980  0.51573  1.0000
  C   C276      1.0  0.06871  0.15405  0.50539  1.0000
  H   H341      1.0  0.06634  0.24839  0.64507  1.0000
  C   C277      1.0  0.09130  0.21835  0.57156  1.0000
  H   H342      1.0  0.19287  0.01629  0.49693  1.0000
  H   H343      1.0  0.26181  0.05639  0.59283  1.0000
  S   S83       1.0  0.16445  0.01049  0.53377  1.0000
  C   C278      1.0  0.28157  0.01653  0.59181  1.0000
  C   C279      1.0  0.13942  0.22485  0.57496  1.0000
  C   C280      1.0  0.08279  0.13781  0.51030  1.0000
  H   H344      1.0  0.23092  0.99205  0.59766  1.0000
  S   S84       1.0  0.00574  0.16149  0.51953  1.0000
  N   N19       1.0  0.06967  0.15765  0.60349  1.0000
  C   C281      1.0  0.06217  0.13766  0.61427  1.0000
  C   C282      1.0  0.06777  0.18248  0.60785  1.0000
  C   C283      1.0  0.04855  0.14844  0.59355  1.0000
  C   C284      1.0  0.09827  0.16195  0.59908  1.0000
  C   C285      1.0  0.10483  0.15703  0.58655  1.0000
  C   C286      1.0  0.12065  0.17091  0.60755  1.0000
  C   C287      1.0  0.13205  0.16051  0.58290  1.0000
  C   C288      1.0  0.14775  0.17452  0.60378  1.0000
  C   C289      1.0  0.15341  0.16912  0.59151  1.0000
  H   H345      1.0  0.07574  0.14385  0.62256  1.0000
  H   H346      1.0  0.04075  0.13381  0.61791  1.0000
  H   H347      1.0  0.06369  0.11875  0.61147  1.0000
  H   H348      1.0  0.04682  0.17967  0.61172  1.0000
  C   C290      1.0  0.28367  0.06938  0.64746  1.0000
  H   H349      1.0  0.08235  0.19064  0.61551  1.0000
  H   H350      1.0  0.04777  0.12918  0.59016  1.0000
  H   H351      1.0  0.02740  0.14581  0.59724  1.0000
  H   H352      1.0  0.05229  0.16302  0.58531  1.0000
  H   H353      1.0  0.08931  0.15048  0.57940  1.0000
  H   H354      1.0  0.11738  0.17505  0.61724  1.0000
  H   H355      1.0  0.13670  0.15662  0.57333  1.0000
  H   H356      1.0  0.16444  0.18146  0.61047  1.0000
  H   H357      1.0  0.17441  0.17163  0.58870  1.0000
  N   N20       1.0  0.22062  0.11530  0.57271  1.0000
  C   C291      1.0  0.20730  0.13524  0.56991  1.0000
  C   C292      1.0  0.24984  0.12882  0.57600  1.0000
  C   C293      1.0  0.22035  0.10172  0.56079  1.0000
  C   C294      1.0  0.20638  0.09750  0.58363  1.0000
  C   C295      1.0  0.19761  0.06972  0.58333  1.0000
  C   C296      1.0  0.20218  0.10789  0.59525  1.0000
  C   C297      1.0  0.18518  0.05354  0.59401  1.0000
  C   C298      1.0  0.18901  0.09152  0.60572  1.0000
  C   C299      1.0  0.18067  0.06440  0.60513  1.0000
  H   H358      1.0  0.20973  0.14884  0.57769  1.0000
  H   H359      1.0  0.21670  0.14804  0.56133  1.0000
  H   H360      1.0  0.18484  0.12578  0.56819  1.0000
  H   H361      1.0  0.25175  0.14098  0.58438  1.0000
  H   H362      1.0  0.26159  0.14218  0.56798  1.0000
  H   H363      1.0  0.26044  0.11455  0.57845  1.0000
  H   H364      1.0  0.19888  0.09068  0.55788  1.0000
  H   H365      1.0  0.23026  0.11590  0.55268  1.0000
  H   H366      1.0  0.23222  0.08807  0.56164  1.0000
  H   H367      1.0  0.20036  0.05997  0.57504  1.0000
  H   H368      1.0  0.20966  0.12880  0.59648  1.0000
  H   H369      1.0  0.17941  0.03243  0.59379  1.0000
  H   H370      1.0  0.18628  0.09990  0.61456  1.0000
  H   H371      1.0  0.17158  0.05180  0.61348  1.0000
  N   N21       1.0  0.27004  0.02851  0.58118  1.0000
  C   C300      1.0  0.11431  0.22585  0.57931  1.0000
  H   H372      1.0  0.09599  0.14222  0.64914  1.0000
  H   H373      1.0  0.11070  0.07518  0.50388  1.0000
  C   C301      1.0  0.24019  0.01456  0.57930  1.0000
  C   C302      1.0  0.01082  0.18868  0.56611  1.0000
  C   C303      1.0  0.22703  0.01983  0.56814  1.0000
  C   C304      1.0  0.12563  0.16828  0.50129  1.0000
  S   S85       1.0  0.99479  0.20785  0.50057  1.0000
  C   C305      1.0  0.22851  0.08140  0.49317  1.0000
  H   H374      1.0  0.30327  0.07383  0.64189  1.0000
  S   S86       1.0  0.21430  0.11132  0.65277  1.0000
  C   C306      1.0  0.18263  0.98955  0.57569  1.0000
  C   C307      1.0  0.11141  0.14538  0.50861  1.0000
  H   H375      1.0  0.15735  0.23082  0.58101  1.0000
  C   C308      1.0  0.05949  0.25702  0.65322  1.0000
  H   H376      1.0  0.27037  0.04896  0.64558  1.0000
  H   H377      1.0  0.30436  0.02596  0.59249  1.0000
  H   H378      1.0  0.30908  0.03678  0.57112  1.0000
  H   H379      1.0  0.07185  0.21954  0.57495  1.0000
  H   H380      1.0  0.23840  0.03373  0.56069  1.0000
  S   S87       1.0  0.06697  0.20056  0.49480  1.0000
  H   H381      1.0  0.01045  0.18560  0.54568  1.0000
  H   H382      1.0  0.29607  0.06717  0.58593  1.0000
  C   C309      1.0  0.22297  0.99683  0.58874  1.0000
  C   C310      1.0  0.13240  0.04762  0.50502  1.0000
  H   H383      1.0  0.27735  0.99529  0.59061  1.0000
  C   C311      1.0  0.20849  0.03561  0.49889  1.0000
  H   H384      1.0  0.27301  0.08258  0.64346  1.0000
  C   C312      1.0  0.15650  0.04282  0.50181  1.0000
  C   C313      1.0  0.99940  0.18833  0.55391  1.0000
  H   H385      1.0  0.15793  0.02444  0.50553  1.0000
  S   S88       1.0  0.98885  0.15064  0.62119  1.0000
  H   H386      1.0  0.11665  0.03331  0.51100  1.0000
  H   H387      1.0  0.07378  0.27752  0.65373  1.0000
  Fe  Fe44      1.0  0.98397  0.21095  0.63819  1.0000
  S   S89       1.0  0.30812  0.99160  0.65493  1.0000
  H   H388      1.0  0.03867  0.20444  0.65637  1.0000
  H   H389      1.0  0.38410  0.33427  0.80364  1.0000
  H   H390      1.0  0.37196  0.13790  0.67204  1.0000
  S   S90       1.0  0.41945  0.04508  0.81323  1.0000
  Fe  Fe45      1.0  0.40503  0.04871  0.71447  1.0000
  S   S91       1.0  0.43927  0.06700  0.70005  1.0000
  S   S92       1.0  0.36211  0.02072  0.70948  1.0000
  Fe  Fe46      1.0  0.44077  0.07599  0.73700  1.0000
  H   H391      1.0  0.37470  0.99313  0.82398  1.0000
  S   S93       1.0  0.45335  0.09268  0.75647  1.0000
  Fe  Fe47      1.0  0.44627  0.10356  0.71066  1.0000
  S   S94       1.0  0.45501  0.14404  0.70149  1.0000
  H   H392      1.0  0.44488  0.13226  0.80930  1.0000
  S   S95       1.0  0.41036  0.08613  0.72418  1.0000
  S   S96       1.0  0.43224  0.03666  0.72868  1.0000
  Fe  Fe48      1.0  0.43332  0.31041  0.74523  1.0000
  H   H393      1.0  0.43973  0.17178  0.74352  1.0000
  S   S97       1.0  0.42322  0.32982  0.76222  1.0000
  Fe  Fe49      1.0  0.41293  0.29304  0.71812  1.0000
  S   S98       1.0  0.45158  0.28424  0.71383  1.0000
  S   S99       1.0  0.37474  0.28741  0.70558  1.0000
  Fe  Fe50      1.0  0.44637  0.26598  0.73375  1.0000
  S   S100      1.0  0.44733  0.22613  0.74047  1.0000
  H   H394      1.0  0.47399  0.11089  0.78066  1.0000
  H   H395      1.0  0.15765  0.22885  0.67057  1.0000
  S   S101      1.0  0.40640  0.27249  0.73761  1.0000
  S   S102      1.0  0.43658  0.33217  0.72610  1.0000
  C   C314      1.0  0.45319  0.16706  0.71226  1.0000
  C   C315      1.0  0.45858  0.19328  0.70805  1.0000
  C   C316      1.0  0.45724  0.21180  0.71664  1.0000
  C   C317      1.0  0.45022  0.20403  0.72943  1.0000
  C   C318      1.0  0.44511  0.17790  0.73363  1.0000
  C   C319      1.0  0.44669  0.15950  0.72509  1.0000
  H   H396      1.0  0.32004  0.19709  0.71512  1.0000
  H   H397      1.0  0.44509  0.38529  0.67206  1.0000
  C   C320      1.0  0.31364  0.14724  0.66145  1.0000
  H   H398      1.0  0.44285  0.13946  0.72849  1.0000
  C   C321      1.0  0.46397  0.34132  0.69052  1.0000
  H   H399      1.0  0.44387  0.35310  0.66809  1.0000
  C   C322      1.0  0.44783  0.39209  0.70490  1.0000
  C   C323      1.0  0.37656  0.13762  0.70801  1.0000
  C   C324      1.0  0.37962  0.16265  0.71186  1.0000
  H   H400      1.0  0.45870  0.35634  0.79676  1.0000
  H   H401      1.0  0.01520  0.21938  0.66204  1.0000
  C   C325      1.0  0.35912  0.24440  0.67363  1.0000
  C   C326      1.0  0.37288  0.25877  0.68396  1.0000
  C   C327      1.0  0.35865  0.26917  0.69228  1.0000
  C   C328      1.0  0.33056  0.26514  0.68999  1.0000
  C   C329      1.0  0.31679  0.25075  0.67967  1.0000
  H   H402      1.0  0.39459  0.26208  0.68535  1.0000
  H   H403      1.0  0.31927  0.27318  0.69627  1.0000
  H   H404      1.0  0.29522  0.24792  0.67809  1.0000
  H   H405      1.0  0.39114  0.24032  0.70973  1.0000
  C   C330      1.0  0.34694  0.01375  0.69425  1.0000
  C   C331      1.0  0.03488  0.21591  0.66418  1.0000
  C   C332      1.0  0.30753  0.98866  0.68159  1.0000
  H   H406      1.0  0.46316  0.33580  0.70085  1.0000
  H   H407      1.0  0.38166  0.03992  0.68334  1.0000
  H   H408      1.0  0.24851  0.04603  0.66703  1.0000
  C   C333      1.0  0.42934  0.05802  0.79744  1.0000
  C   C334      1.0  0.41547  0.04415  0.78710  1.0000
  C   C335      1.0  0.42274  0.05420  0.77446  1.0000
  C   C336      1.0  0.44379  0.07837  0.77207  1.0000
  C   C337      1.0  0.45762  0.09223  0.78241  1.0000
  C   C338      1.0  0.45055  0.08209  0.79502  1.0000
  H   H409      1.0  0.39902  0.02554  0.78887  1.0000
  H   H410      1.0  0.41187  0.04340  0.76659  1.0000
  H   H411      1.0  0.31391  0.12273  0.69423  1.0000
  C   C339      1.0  0.42551  0.20626  0.79773  1.0000
  C   C340      1.0  0.41040  0.31094  0.80538  1.0000
  C   C341      1.0  0.42721  0.30016  0.79869  1.0000
  C   C342      1.0  0.43053  0.30450  0.78527  1.0000
  C   C343      1.0  0.41768  0.32026  0.77865  1.0000
  C   C344      1.0  0.40126  0.33102  0.78548  1.0000
  C   C345      1.0  0.39724  0.32601  0.79864  1.0000
  H   H412      1.0  0.43739  0.28836  0.80380  1.0000
  H   H413      1.0  0.44349  0.29631  0.78010  1.0000
  H   H414      1.0  0.39140  0.34330  0.78051  1.0000
  H   H415      1.0  0.26551  0.06954  0.67848  1.0000
  H   H416      1.0  0.41476  0.14042  0.81290  1.0000
  C   C346      1.0  0.13759  0.23124  0.67008  1.0000
  C   C347      1.0  0.33223  0.13390  0.69922  1.0000
  H   H417      1.0  0.40552  0.24589  0.81662  1.0000
  H   H418      1.0  0.36007  0.02764  0.66241  1.0000
  N   N22       1.0  0.44794  0.17212  0.80364  1.0000
  H   H419      1.0  0.42608  0.38195  0.70681  1.0000
  H   H420      1.0  0.34336  0.23013  0.71378  1.0000
  C   C348      1.0  0.08516  0.23722  0.66735  1.0000
  H   H421      1.0  0.40751  0.23642  0.79399  1.0000
  C   C349      1.0  0.43537  0.19176  0.80703  1.0000
  C   C350      1.0  0.45407  0.36962  0.67425  1.0000
  H   H422      1.0  0.45192  0.17957  0.78317  1.0000
  H   H423      1.0  0.36772  0.22042  0.73126  1.0000
  H   H424      1.0  0.45400  0.32308  0.68545  1.0000
  C   C351      1.0  0.46067  0.41365  0.71216  1.0000
  C   C352      1.0  0.10997  0.25923  0.66723  1.0000
  H   H425      1.0  0.30625  0.05422  0.67607  1.0000
  C   C353      1.0  0.35283  0.12317  0.70179  1.0000
  Fe  Fe51      1.0  0.47490  0.32212  0.72319  1.0000
  H   H426      1.0  0.41588  0.34000  0.70053  1.0000
  C   C354      1.0  0.43774  0.14823  0.81237  1.0000
  C   C355      1.0  0.43440  0.19823  0.81988  1.0000
  H   H427      1.0  0.44995  0.14744  0.78843  1.0000
  H   H428      1.0  0.46143  0.09295  0.80286  1.0000
  H   H429      1.0  0.06744  0.27444  0.67681  1.0000
  C   C356      1.0  0.42022  0.34777  0.69047  1.0000
  H   H430      1.0  0.03108  0.20350  0.67321  1.0000
  H   H431      1.0  0.47622  0.37752  0.67126  1.0000
  H   H432      1.0  0.37045  0.23664  0.66723  1.0000
  H   H433      1.0  0.43248  0.00316  0.68651  1.0000
  C   C357      1.0  0.32005  0.99537  0.69347  1.0000
  H   H434      1.0  0.28695  0.03246  0.66458  1.0000
  C   C358      1.0  0.36106  0.02563  0.68295  1.0000
  C   C359      1.0  0.35908  0.17418  0.70946  1.0000
  C   C360      1.0  0.46306  0.38387  0.69577  1.0000
  N   N23       1.0  0.45034  0.36104  0.68795  1.0000
  H   H435      1.0  0.44885  0.41928  0.71926  1.0000
  C   C361      1.0  0.41367  0.23087  0.81396  1.0000
  C   C362      1.0  0.11361  0.20930  0.67081  1.0000
  H   H436      1.0  0.10966  0.27898  0.66601  1.0000
  C   C363      1.0  0.33525  0.15909  0.70290  1.0000
  S   S103      1.0  0.40410  0.30584  0.82203  1.0000
  H   H437      1.0  0.38571  0.19784  0.73073  1.0000
  H   H438      1.0  0.40739  0.21627  0.71063  1.0000
  C   C364      1.0  0.33970  0.21007  0.71049  1.0000
  H   H439      1.0  0.43828  0.00963  0.70285  1.0000
  H   H440      1.0  0.41924  0.15586  0.78881  1.0000
  H   H441      1.0  0.39281  0.12946  0.70984  1.0000
  C   C365      1.0  0.34870  0.01867  0.67108  1.0000
  Fe  Fe52      1.0  0.46690  0.05736  0.71468  1.0000
  C   C366      1.0  0.44191  0.16348  0.79045  1.0000
  H   H442      1.0  0.33679  0.21143  0.70001  1.0000
  C   C367      1.0  0.33098  0.24030  0.67136  1.0000
  H   H443      1.0  0.38757  0.21869  0.69694  1.0000
  H   H444      1.0  0.39833  0.17302  0.71671  1.0000
  C   C368      1.0  0.08770  0.21208  0.66950  1.0000
  H   H445      1.0  0.39101  0.99088  0.67674  1.0000
  H   H446      1.0  0.11517  0.18990  0.67191  1.0000
  H   H447      1.0  0.34873  0.18580  0.73267  1.0000
  H   H448      1.0  0.40684  0.01047  0.69592  1.0000
  H   H449      1.0  0.15456  0.27317  0.66789  1.0000
  C   C369      1.0  0.13577  0.25618  0.66844  1.0000
  C   C370      1.0  0.05177  0.25463  0.67593  1.0000
  H   H450      1.0  0.31867  0.16629  0.70044  1.0000
  H   H451      1.0  0.40840  0.36117  0.68834  1.0000
  H   H452      1.0  0.35052  0.10369  0.69890  1.0000
  C   C371      1.0  0.42350  0.21729  0.82327  1.0000
  C   C372      1.0  0.30133  0.05284  0.66577  1.0000
  H   H453      1.0  0.07015  0.19409  0.66977  1.0000
  C   C373      1.0  0.41479  0.22545  0.80122  1.0000
  C   C374      1.0  0.33448  0.10690  0.66741  1.0000
  S   S104      1.0  0.47696  0.09559  0.72371  1.0000
  C   C375      1.0  0.42194  0.99991  0.69599  1.0000
  H   H454      1.0  0.05091  0.24331  0.68515  1.0000
  H   H455      1.0  0.41125  0.33049  0.68459  1.0000
  N   N24       1.0  0.05824  0.24092  0.66522  1.0000
  H   H456      1.0  0.03137  0.25738  0.67472  1.0000
  N   N25       1.0  0.36306  0.20079  0.71365  1.0000
  C   C376      1.0  0.36642  0.20115  0.72766  1.0000
  C   C377      1.0  0.38836  0.21980  0.70747  1.0000
  H   H457      1.0  0.42607  0.20338  0.78768  1.0000
  C   C378      1.0  0.32192  0.00006  0.67029  1.0000
  H   H458      1.0  0.34393  0.09235  0.66978  1.0000
  H   H459      1.0  0.35322  0.17351  0.66681  1.0000
  S   S105      1.0  0.47296  0.30264  0.74273  1.0000
  C   C379      1.0  0.34049  0.15320  0.66581  1.0000
  H   H460      1.0  0.44560  0.15180  0.82219  1.0000
  N   N26       1.0  0.28905  0.07270  0.66120  1.0000
  H   H461      1.0  0.46387  0.19927  0.69814  1.0000
  C   C380      1.0  0.30689  0.10012  0.66303  1.0000
  H   H462      1.0  0.25033  0.07911  0.66461  1.0000
  H   H463      1.0  0.46162  0.23202  0.71336  1.0000
  H   H464      1.0  0.47360  0.38917  0.80160  1.0000
  C   C381      1.0  0.26229  0.06665  0.66813  1.0000
  C   C382      1.0  0.35094  0.13311  0.66873  1.0000
  C   C383      1.0  0.47312  0.36870  0.80361  1.0000
  H   H465      1.0  0.46353  0.36181  0.81322  1.0000
  H   H466      1.0  0.30570  0.16301  0.65907  1.0000
  C   C384      1.0  0.29711  0.12118  0.65997  1.0000
  H   H467      1.0  0.32036  0.05456  0.66025  1.0000
  C   C385      1.0  0.47830  0.18383  0.80480  1.0000
  H   H468      1.0  0.47987  0.34795  0.77975  1.0000
  H   H469      1.0  0.35927  0.03513  0.84630  1.0000
  S   S106      1.0  0.41473  0.32728  0.96131  1.0000
  Fe  Fe53      1.0  0.44339  0.27335  0.97296  1.0000
  S   S107      1.0  0.39861  0.26518  0.96878  1.0000
  S   S108      1.0  0.46102  0.24066  0.97751  1.0000
  Fe  Fe54      1.0  0.41480  0.29206  0.95137  1.0000
  S   S109      1.0  0.39819  0.27909  0.93196  1.0000
  Fe  Fe55      1.0  0.40329  0.30165  0.97934  1.0000
  H   H470      1.0  0.36884  0.35502  0.87883  1.0000
  S   S110      1.0  0.44718  0.30811  0.98488  1.0000
  H   H471      1.0  0.41459  0.12475  0.90937  1.0000
  S   S111      1.0  0.44052  0.02519  0.96662  1.0000
  Fe  Fe56      1.0  0.42019  0.08751  0.96637  1.0000
  S   S112      1.0  0.39548  0.05097  0.95662  1.0000
  S   S113      1.0  0.40367  0.12146  0.96377  1.0000
  Fe  Fe57      1.0  0.40146  0.02854  0.97450  1.0000
  C   C386      1.0  0.40486  0.18360  0.90504  1.0000
  Fe  Fe58      1.0  0.43670  0.05084  0.94971  1.0000
  S   S114      1.0  0.45129  0.04300  0.93037  1.0000
  H   H472      1.0  0.47234  0.20617  0.93256  1.0000
  S   S115      1.0  0.46105  0.08847  0.95849  1.0000
  Fe  Fe59      1.0  0.45539  0.31860  0.86334  1.0000
  C   C387      1.0  0.45949  0.14583  0.90842  1.0000
  S   S116      1.0  0.45249  0.34129  0.88041  1.0000
  H   H473      1.0  0.42309  0.22182  0.83318  1.0000
  Fe  Fe60      1.0  0.45341  0.26622  0.85435  1.0000
  C   C388      1.0  0.48083  0.13267  0.89080  1.0000
  C   C389      1.0  0.43333  0.13314  0.91457  1.0000
  H   H474      1.0  0.48099  0.19731  0.97779  1.0000
  S   S117      1.0  0.42111  0.28482  0.85609  1.0000
  C   C390      1.0  0.38092  0.00656  0.87929  1.0000
  Fe  Fe61      1.0  0.44301  0.07669  0.85802  1.0000
  S   S118      1.0  0.44023  0.22444  0.86201  1.0000
  S   S119      1.0  0.41536  0.07315  0.87533  1.0000
  H   H475      1.0  0.40287  0.20078  0.94261  1.0000
  H   H476      1.0  0.43855  0.39429  0.96632  1.0000
  H   H477      1.0  0.35908  0.26912  0.89032  1.0000
  H   H478      1.0  0.40614  0.17649  0.92510  1.0000
  C   C391      1.0  0.43217  0.22668  0.89640  1.0000
  S   S120      1.0  0.44830  0.04328  0.84796  1.0000
  S   S121      1.0  0.43557  0.09664  0.83973  1.0000
  C   C392      1.0  0.45833  0.20700  0.85470  1.0000
  C   C393      1.0  0.45444  0.20617  0.93846  1.0000
  Fe  Fe62      1.0  0.46191  0.06275  0.97583  1.0000
  H   H479      1.0  0.41199  0.11541  0.98979  1.0000
  S   S122      1.0  0.42307  0.06505  0.98472  1.0000
  H   H480      1.0  0.46705  0.25574  0.94308  1.0000
  Fe  Fe63      1.0  0.43535  0.30226  0.83638  1.0000
  C   C394      1.0  0.34887  0.26809  0.85847  1.0000
  C   C395      1.0  0.44909  0.17973  0.85656  1.0000
  H   H481      1.0  0.40040  0.33733  0.84411  1.0000
  C   C396      1.0  0.44108  0.05201  0.91523  1.0000
  C   C397      1.0  0.45584  0.04994  0.90434  1.0000
  C   C398      1.0  0.44822  0.05639  0.89209  1.0000
  C   C399      1.0  0.42543  0.06461  0.89059  1.0000
  C   C400      1.0  0.41047  0.06646  0.90146  1.0000
  C   C401      1.0  0.41843  0.06049  0.91374  1.0000
  N   N27       1.0  0.42397  0.39382  0.98560  1.0000
  H   H482      1.0  0.45984  0.05475  0.88381  1.0000
  H   H483      1.0  0.39265  0.07257  0.90040  1.0000
  H   H484      1.0  0.40678  0.06196  0.92204  1.0000
  C   C402      1.0  0.44448  0.20728  0.97418  1.0000
  C   C403      1.0  0.41684  0.19762  0.97058  1.0000
  C   C404      1.0  0.40480  0.17137  0.96736  1.0000
  C   C405      1.0  0.42003  0.15428  0.96795  1.0000
  C   C406      1.0  0.44749  0.16368  0.97184  1.0000
  C   C407      1.0  0.45963  0.19008  0.97492  1.0000
  H   H485      1.0  0.40472  0.21042  0.97027  1.0000
  H   H486      1.0  0.38347  0.16423  0.96447  1.0000
  H   H487      1.0  0.45945  0.15073  0.97239  1.0000
  C   C408      1.0  0.41585  0.22149  0.94020  1.0000
  C   C409      1.0  0.41537  0.29624  0.91795  1.0000
  C   C410      1.0  0.41160  0.28318  0.90657  1.0000
  C   C411      1.0  0.42392  0.29655  0.89511  1.0000
  C   C412      1.0  0.43932  0.32333  0.89487  1.0000
  C   C413      1.0  0.44324  0.33636  0.90627  1.0000
  C   C414      1.0  0.43168  0.32277  0.91782  1.0000
  H   H488      1.0  0.39897  0.26266  0.90661  1.0000
  H   H489      1.0  0.42079  0.28632  0.88639  1.0000
  H   H490      1.0  0.39472  0.36526  0.97435  1.0000
  H   H491      1.0  0.43459  0.33303  0.92653  1.0000
  H   H492      1.0  0.42119  0.23134  0.94933  1.0000
  C   C415      1.0  0.43886  0.40806  0.97386  1.0000
  C   C416      1.0  0.36875  0.31359  0.86476  1.0000
  H   H493      1.0  0.46109  0.41875  0.97567  1.0000
  C   C417      1.0  0.34879  0.25879  0.87106  1.0000
  H   H494      1.0  0.45064  0.26574  0.92982  1.0000
  C   C418      1.0  0.43255  0.21638  0.91941  1.0000
  H   H495      1.0  0.39023  0.16419  0.90368  1.0000
  H   H496      1.0  0.42347  0.14967  0.88911  1.0000
  C   C419      1.0  0.41408  0.19083  0.91726  1.0000
  H   H497      1.0  0.39361  0.04038  0.84070  1.0000
  H   H498      1.0  0.40249  0.23074  0.93499  1.0000
  H   H499      1.0  0.42577  0.11721  0.88997  1.0000
  H   H500      1.0  0.36529  0.02972  0.83016  1.0000
  H   H501      1.0  0.38301  0.36612  0.99007  1.0000
  H   H502      1.0  0.44086  0.13907  0.87693  1.0000
  N   N28       1.0  0.44083  0.22386  0.93252  1.0000
  S   S123      1.0  0.45934  0.29877  0.95506  1.0000
  C   C420      1.0  0.47977  0.15241  0.92968  1.0000
  H   H503      1.0  0.42064  0.34264  0.85820  1.0000
  C   C421      1.0  0.38276  0.99045  0.83360  1.0000
  C   C422      1.0  0.44133  0.23419  0.90858  1.0000
  S   S124      1.0  0.46509  0.28096  0.83405  1.0000
  S   S125      1.0  0.46639  0.33828  0.84374  1.0000
  C   C423      1.0  0.46038  0.25115  0.93314  1.0000
  C   C424      1.0  0.40158  0.99578  0.88133  1.0000
  N   N29       1.0  0.37934  0.34204  0.86114  1.0000
  C   C425      1.0  0.40445  0.34813  0.85301  1.0000
  C   C426      1.0  0.35819  0.34950  0.85386  1.0000
  C   C427      1.0  0.38680  0.35882  0.87222  1.0000
  C   C428      1.0  0.35879  0.29505  0.85532  1.0000
  H   H504      1.0  0.37668  0.31580  0.88532  1.0000
  C   C429      1.0  0.48261  0.15544  0.91642  1.0000
  C   C430      1.0  0.41394  0.20150  0.89463  1.0000
  H   H505      1.0  0.35939  0.30120  0.84534  1.0000
  H   H506      1.0  0.35466  0.01666  0.86604  1.0000
  H   H507      1.0  0.45472  0.25430  0.90925  1.0000
  H   H508      1.0  0.41344  0.36938  0.85014  1.0000
  C   C431      1.0  0.35867  0.27640  0.88055  1.0000
  H   H509      1.0  0.36485  0.37105  0.85168  1.0000
  H   H510      1.0  0.33826  0.34341  0.85931  1.0000
  H   H511      1.0  0.35406  0.34042  0.84451  1.0000
  H   H512      1.0  0.45504  0.35710  0.90616  1.0000
  H   H513      1.0  0.39417  0.38007  0.86922  1.0000
  H   H514      1.0  0.36952  0.12542  0.98463  1.0000
  C   C432      1.0  0.43076  0.13021  0.92786  1.0000
  H   H515      1.0  0.43889  0.24068  0.88828  1.0000
  H   H516      1.0  0.43089  0.16983  0.86241  1.0000
  N   N30       1.0  0.36880  0.99968  0.84373  1.0000
  C   C433      1.0  0.37175  0.02732  0.84013  1.0000
  H   H517      1.0  0.34148  0.23788  0.87345  1.0000
  H   H518      1.0  0.44010  0.18562  0.93988  1.0000
  Fe  Fe64      1.0  0.45850  0.33231  0.96637  1.0000
  H   H519      1.0  0.42919  0.42196  0.96968  1.0000
  C   C434      1.0  0.46295  0.16525  0.85061  1.0000
  C   C435      1.0  0.36865  0.30341  0.87751  1.0000
  H   H520      1.0  0.40411  0.35564  0.87763  1.0000
  H   H521      1.0  0.40668  0.19608  0.88515  1.0000
  Fe  Fe65      1.0  0.44524  0.06543  0.82961  1.0000
  H   H522      1.0  0.34184  0.25436  0.85104  1.0000
  C   C436      1.0  0.38007  0.99783  0.85658  1.0000
  H   H523      1.0  0.98709  0.32296  0.98548  1.0000
  H   H524      1.0  0.45574  0.14421  0.85211  1.0000
  H   H525      1.0  0.41079  0.11992  0.93242  1.0000
  H   H526      1.0  0.38404  0.39204  0.97869  1.0000
  C   C437      1.0  0.39526  0.37877  0.98202  1.0000
  C   C438      1.0  0.37026  0.00760  0.86713  1.0000
  H   H527      1.0  0.43932  0.36234  0.98246  1.0000
  C   C439      1.0  0.43780  0.37518  0.99010  1.0000
  H   H528      1.0  0.46218  0.21224  0.94811  1.0000
  H   H529      1.0  0.44602  0.44907  0.98597  1.0000
  C   C440      1.0  0.43715  0.13818  0.88739  1.0000
  S   S126      1.0  0.37020  0.30913  0.99145  1.0000
  H   H530      1.0  0.36974  0.08510  0.98316  1.0000
  H   H531      1.0  0.34663  0.03782  0.98315  1.0000
  H   H532      1.0  0.47938  0.17826  0.87936  1.0000
  H   H533      1.0  0.37384  0.01503  0.88710  1.0000
  H   H534      1.0  0.44253  0.18897  0.82744  1.0000
  H   H535      1.0  0.47958  0.25445  0.92745  1.0000
  H   H536      1.0  0.47330  0.04328  0.90539  1.0000
  H   H537      1.0  0.40532  0.00186  0.83303  1.0000
  H   H538      1.0  0.45181  0.13704  0.94566  1.0000
  C   C441      1.0  0.45391  0.13975  0.93538  1.0000
  N   N31       1.0  0.46340  0.14807  0.89440  1.0000
  H   H539      1.0  0.46549  0.18839  0.89297  1.0000
  H   H540      1.0  0.47144  0.11180  0.89435  1.0000
  C   C442      1.0  0.47733  0.17590  0.88995  1.0000
  C   C443      1.0  0.48148  0.21991  0.84691  1.0000
  H   H541      1.0  0.41036  0.99578  0.89071  1.0000
  S   S127      1.0  0.36747  0.99144  0.98268  1.0000
  H   H542      1.0  0.32679  0.99057  0.85053  1.0000
  H   H543      1.0  0.47729  0.99197  0.97259  1.0000
  H   H544      1.0  0.48338  0.13285  0.88027  1.0000
  Fe  Fe66      1.0  0.48148  0.11699  0.83930  1.0000
  S   S128      1.0  0.48377  0.37523  0.96290  1.0000
  Fe  Fe67      1.0  0.07607  0.62508  0.03729  1.0000
  S   S129      1.0  0.11951  0.62467  0.03558  1.0000
  S   S130      1.0  0.05240  0.62011  0.01843  1.0000
  Fe  Fe68      1.0  0.08324  0.63469  0.06575  1.0000
  S   S131      1.0  0.12641  0.63419  0.06590  1.0000
  S   S132      1.0  0.06475  0.64311  0.08384  1.0000
  Fe  Fe69      1.0  0.13315  0.65951  0.04780  1.0000
  S   S133      1.0  0.17695  0.68939  0.04515  1.0000
  Fe  Fe70      1.0  0.10969  0.59992  0.05377  1.0000
  S   S134      1.0  0.12631  0.56670  0.05590  1.0000
  S   S135      1.0  0.09046  0.66223  0.04818  1.0000
  S   S136      1.0  0.06550  0.59803  0.05499  1.0000
  Fe  Fe71      1.0  0.31968  0.89248  0.04499  1.0000
  S   S137      1.0  0.30593  0.85631  0.03371  1.0000
  S   S138      1.0  0.34104  0.93593  0.03881  1.0000
  Fe  Fe72      1.0  0.31597  0.85948  0.07054  1.0000
  S   S139      1.0  0.30291  0.82121  0.06101  1.0000
  S   S140      1.0  0.33144  0.86272  0.09083  1.0000
  Fe  Fe73      1.0  0.33454  0.84253  0.04591  1.0000
  S   S141      1.0  0.36511  0.82724  0.03674  1.0000
  Fe  Fe74      1.0  0.27497  0.83772  0.04974  1.0000
  S   S142      1.0  0.22978  0.81394  0.04635  1.0000
  S   S143      1.0  0.34989  0.87932  0.05622  1.0000
  S   S144      1.0  0.28629  0.87529  0.06020  1.0000
  H   H545      1.0  0.15545  0.51767  0.08217  1.0000
  S   S145      1.0  0.26903  0.85631  0.14377  1.0000
  C   C444      1.0  0.22119  0.77442  0.11531  1.0000
  H   H546      1.0  0.14394  0.55749  0.08020  1.0000
  S   S146      1.0  0.07011  0.59356  0.13961  1.0000
  N   N32       1.0  0.22415  0.76741  0.13937  1.0000
  H   H547      1.0  0.14799  0.56186  0.12130  1.0000
  C   C445      1.0  0.98594  0.49394  0.02098  1.0000
  C   C446      1.0  0.46869  0.82245  0.09401  1.0000
  C   C447      1.0  0.31311  0.86034  0.10532  1.0000
  C   C448      1.0  0.32695  0.85981  0.11678  1.0000
  C   C449      1.0  0.31347  0.85802  0.12859  1.0000
  C   C450      1.0  0.28605  0.85715  0.12906  1.0000
  C   C451      1.0  0.27218  0.85782  0.11759  1.0000
  C   C452      1.0  0.28559  0.85927  0.10575  1.0000
  H   H548      1.0  0.34829  0.86082  0.11654  1.0000
  H   H549      1.0  0.32451  0.85788  0.13732  1.0000
  H   H550      1.0  0.25096  0.85717  0.11788  1.0000
  H   H551      1.0  0.27467  0.85961  0.09700  1.0000
  C   C453      1.0  0.44628  0.85179  0.05828  1.0000
  C   C454      1.0  0.42210  0.85280  0.06393  1.0000
  C   C455      1.0  0.39702  0.84431  0.05752  1.0000
  C   C456      1.0  0.39598  0.83510  0.04533  1.0000
  C   C457      1.0  0.41999  0.83329  0.03979  1.0000
  C   C458      1.0  0.44520  0.84173  0.04625  1.0000
  H   H552      1.0  0.42273  0.86021  0.07331  1.0000
  H   H553      1.0  0.37846  0.84468  0.06212  1.0000
  H   H554      1.0  0.41926  0.82582  0.03042  1.0000
  Fe  Fe75      1.0  0.09698  0.61365  0.15589  1.0000
  C   C459      1.0  0.19008  0.72374  0.04722  1.0000
  C   C460      1.0  0.21828  0.73562  0.04989  1.0000
  C   C461      1.0  0.23040  0.76310  0.05024  1.0000
  C   C462      1.0  0.21462  0.77912  0.04760  1.0000
  C   C463      1.0  0.18627  0.76724  0.04524  1.0000
  C   C464      1.0  0.17400  0.73970  0.04514  1.0000
  H   H555      1.0  0.23092  0.72349  0.05148  1.0000
  H   H556      1.0  0.25207  0.77197  0.05221  1.0000
  H   H557      1.0  0.17385  0.77944  0.04322  1.0000
  H   H558      1.0  0.15236  0.73091  0.04297  1.0000
  C   C465      1.0  0.06974  0.62905  0.09886  1.0000
  C   C466      1.0  0.05704  0.60214  0.10178  1.0000
  C   C467      1.0  0.05785  0.59161  0.11423  1.0000
  C   C468      1.0  0.07140  0.60776  0.12393  1.0000
  C   C469      1.0  0.08478  0.63456  0.12096  1.0000
  C   C470      1.0  0.08366  0.64519  0.10851  1.0000
  H   H559      1.0  0.04559  0.58960  0.09456  1.0000
  H   H560      1.0  0.04723  0.57092  0.11646  1.0000
  H   H561      1.0  0.09509  0.64726  0.12836  1.0000
  H   H562      1.0  0.09299  0.66609  0.10644  1.0000
  H   H563      1.0  0.44971  0.90088  0.02392  1.0000
  C   C471      1.0  0.15569  0.52995  0.11347  1.0000
  C   C472      1.0  0.11370  0.51377  0.05637  1.0000
  C   C473      1.0  0.10359  0.53427  0.05802  1.0000
  C   C474      1.0  0.07576  0.52859  0.06125  1.0000
  C   C475      1.0  0.43806  0.57079  0.15301  1.0000
  H   H564      1.0  0.13529  0.51810  0.05394  1.0000
  H   H565      1.0  0.06797  0.54432  0.06281  1.0000
  H   H566      1.0  0.03629  0.49801  0.06479  1.0000
  C   C476      1.0  0.40985  0.53125  0.06378  1.0000
  C   C477      1.0  0.05947  0.55355  0.03256  1.0000
  H   H567      1.0  0.40121  0.53820  0.07162  1.0000
  C   C478      1.0  0.02149  0.59878  0.01164  1.0000
  C   C479      1.0  0.01777  0.60124  0.99842  1.0000
  H   H568      1.0  0.41289  0.50342  0.08695  1.0000
  H   H569      1.0  0.37877  0.98619  0.02944  1.0000
  C   C480      1.0  0.42921  0.89421  0.01933  1.0000
  C   C481      1.0  0.33541  0.93813  0.01242  1.0000
  C   C482      1.0  0.34868  0.95076  0.02308  1.0000
  C   C483      1.0  0.44351  0.83919  0.13909  1.0000
  H   H570      1.0  0.45017  0.56793  0.12827  1.0000
  H   H571      1.0  0.32004  0.91872  0.01361  1.0000
  H   H572      1.0  0.08036  0.56384  0.03635  1.0000
  H   H573      1.0  0.07497  0.50716  0.01694  1.0000
  H   H574      1.0  0.06407  0.50621  0.03321  1.0000
  C   C484      1.0  0.41479  0.94842  0.00479  1.0000
  H   H575      1.0  0.16121  0.60278  0.08187  1.0000
  N   N33       1.0  0.41326  0.91185  0.02136  1.0000
  C   C485      1.0  0.15786  0.51720  0.10260  1.0000
  H   H576      1.0  0.10498  0.60060  0.09086  1.0000
  H   H577      1.0  0.39469  0.95963  0.09971  1.0000
  H   H578      1.0  0.09317  0.56720  0.09720  1.0000
  H   H579      1.0  0.37465  0.87919  0.02230  1.0000
  C   C486      1.0  0.03280  0.52543  0.01675  1.0000
  C   C487      1.0  0.35040  0.93921  0.09774  1.0000
  H   H580      1.0  0.40620  0.81840  0.12957  1.0000
  H   H581      1.0  0.31668  0.90719  0.08075  1.0000
  H   H582      1.0  0.11198  0.57635  0.08229  1.0000
  H   H583      1.0  0.17949  0.61174  0.09642  1.0000
  H   H584      1.0  0.15540  0.62721  0.09099  1.0000
  C   C488      1.0  0.23534  0.74777  0.14522  1.0000
  H   H585      1.0  0.02088  0.68474  0.03099  1.0000
  C   C489      1.0  0.40471  0.49944  0.04780  1.0000
  H   H586      1.0  0.32634  0.73887  0.02806  1.0000
  C   C490      1.0  0.43646  0.54589  0.05907  1.0000
  C   C491      1.0  0.35809  0.97085  0.07984  1.0000
  C   C492      1.0  0.45323  0.51186  0.15438  1.0000
  C   C493      1.0  0.23691  0.77638  0.12658  1.0000
  H   H587      1.0  0.35791  0.97411  0.06929  1.0000
  H   H588      1.0  0.18701  0.73751  0.13348  1.0000
  C   C494      1.0  0.23409  0.78287  0.10338  1.0000
  C   C495      1.0  0.37561  0.94602  0.11785  1.0000
  C   C496      1.0  0.26279  0.79332  0.10230  1.0000
  H   H589      1.0  0.07136  0.57443  0.00914  1.0000
  H   H590      1.0  0.18469  0.74820  0.14903  1.0000
  H   H591      1.0  0.05259  0.52183  0.14924  1.0000
  H   H592      1.0  0.30740  0.91348  0.12375  1.0000
  H   H593      1.0  0.22381  0.80578  0.14323  1.0000
  H   H594      1.0  0.10794  0.53638  0.13933  1.0000
  H   H595      1.0  0.13607  0.57926  0.14714  1.0000
  N   N34       1.0  0.13676  0.58768  0.09911  1.0000
  C   C497      1.0  0.13306  0.59841  0.11143  1.0000
  C   C498      1.0  0.15919  0.60819  0.09179  1.0000
  C   C499      1.0  0.11062  0.58260  0.09207  1.0000
  C   C500      1.0  0.14371  0.56340  0.10054  1.0000
  C   C501      1.0  0.14882  0.55276  0.11252  1.0000
  C   C502      1.0  0.14650  0.55007  0.08966  1.0000
  C   C503      1.0  0.32578  0.92658  0.10509  1.0000
  C   C504      1.0  0.05791  0.50242  0.06242  1.0000
  H   H596      1.0  0.04705  0.54054  0.04047  1.0000
  H   H597      1.0  0.15246  0.60451  0.11696  1.0000
  H   H598      1.0  0.12702  0.61619  0.11001  1.0000
  H   H599      1.0  0.11634  0.58399  0.11745  1.0000
  H   H600      1.0  0.48381  0.86063  0.14601  1.0000
  N   N35       1.0  0.00211  0.64798  0.04180  1.0000
  H   H601      1.0  0.46378  0.84064  0.04190  1.0000
  C   C505      1.0  0.01194  0.62853  0.04880  1.0000
  C   C506      1.0  0.15864  0.51873  0.15368  1.0000
  C   C507      1.0  0.15331  0.52728  0.09070  1.0000
  H   H602      1.0  0.40118  0.89579  0.04049  1.0000
  H   H603      1.0  0.43295  0.83954  0.14796  1.0000
  H   H604      1.0  0.46778  0.54835  0.04506  1.0000
  H   H605      1.0  0.15957  0.52223  0.12273  1.0000
  C   C508      1.0  0.41149  0.91502  0.03521  1.0000
  H   H606      1.0  0.28887  0.75681  0.04583  1.0000
  C   C509      1.0  0.32359  0.92854  0.07797  1.0000
  C   C510      1.0  0.38465  0.89850  0.01702  1.0000
  H   H607      1.0  0.22096  0.78431  0.15718  1.0000
  H   H608      1.0  0.30582  0.91818  0.10084  1.0000
  C   C511      1.0  0.12657  0.53817  0.14453  1.0000
  C   C512      1.0  0.42736  0.93771  0.01465  1.0000
  C   C513      1.0  0.37527  0.94929  0.10458  1.0000
  C   C514      1.0  0.32634  0.92369  0.11836  1.0000
  H   H609      1.0  0.44809  0.59214  0.15439  1.0000
  H   H610      1.0  0.30728  0.93634  0.08088  1.0000
  H   H611      1.0  0.02734  0.63776  0.05614  1.0000
  C   C515      1.0  0.30443  0.73605  0.02572  1.0000
  H   H612      1.0  0.46578  0.94598  0.02511  1.0000
  H   H613      1.0  0.41199  0.53309  0.13438  1.0000
  N   N36       1.0  0.29875  0.76107  0.02579  1.0000
  H   H614      1.0  0.39394  0.93858  0.00176  1.0000
  H   H615      1.0  0.03643  0.54678  0.99809  1.0000
  N   N37       1.0  0.06110  0.53896  0.02128  1.0000
  C   C516      1.0  0.07460  0.51955  0.02498  1.0000
  H   H616      1.0  0.45882  0.80167  0.09756  1.0000
  H   H617      1.0  0.25757  0.75640  0.14756  1.0000
  H   H618      1.0  0.36762  0.91201  0.08144  1.0000
  H   H619      1.0  0.22451  0.73898  0.15433  1.0000
  C   C517      1.0  0.42031  0.52021  0.13986  1.0000
  S   S147      1.0  0.14081  0.63990  0.15218  1.0000
  C   C518      1.0  0.45688  0.49381  0.09586  1.0000
  H   H620      1.0  0.00264  0.57801  0.02912  1.0000
  C   C519      1.0  0.44737  0.53706  0.04880  1.0000
  H   H621      1.0  0.23288  0.73147  0.13884  1.0000
  N   N38       1.0  0.45787  0.55913  0.14798  1.0000
  H   H622      1.0  0.39491  0.95336  0.12285  1.0000
  H   H623      1.0  0.39289  0.94432  0.08040  1.0000
  H   H624      1.0  0.27658  0.80037  0.02242  1.0000
  H   H625      1.0  0.03930  0.66185  0.03010  1.0000
  C   C520      1.0  0.42891  0.97278  0.99858  1.0000
  H   H626      1.0  0.34061  0.78167  0.01900  1.0000
  H   H627      1.0  0.29159  0.72131  0.03300  1.0000
  H   H628      1.0  0.00659  0.65484  0.01494  1.0000
  H   H629      1.0  0.32506  0.77283  0.04198  1.0000
  H   H630      1.0  0.30058  0.72762  0.01620  1.0000
  C   C521      1.0  0.30374  0.77054  0.03882  1.0000
  H   H631      1.0  0.30152  0.79006  0.03941  1.0000
  C   C522      1.0  0.47124  0.83840  0.11584  1.0000
  H   H632      1.0  0.31879  0.80057  0.01761  1.0000
  C   C523      1.0  0.31895  0.78029  0.01689  1.0000
  H   H633      1.0  0.31472  0.77490  0.00685  1.0000
  H   H634      1.0  0.32463  0.93046  0.06736  1.0000
  C   C524      1.0  0.07934  0.55816  0.01169  1.0000
  C   C525      1.0  0.21512  0.75468  0.01635  1.0000
  C   C526      1.0  0.19355  0.75508  0.13927  1.0000
  C   C527      1.0  0.43131  0.51410  0.04304  1.0000
  C   C528      1.0  0.35120  0.93309  0.12471  1.0000
  H   H635      1.0  0.25279  0.71546  0.02187  1.0000
  S   S148      1.0  0.45491  0.57532  0.06615  1.0000
  H   H636      1.0  0.39943  0.92805  0.03715  1.0000
  H   H637      1.0  0.10050  0.56775  0.01539  1.0000
  H   H638      1.0  0.38427  0.89452  0.00675  1.0000
  C   C529      1.0  0.02679  0.66943  0.03645  1.0000
  C   C530      1.0  0.39422  0.50782  0.05833  1.0000
  H   H639      1.0  0.42909  0.81748  0.10954  1.0000
  H   H640      1.0  0.34325  0.97914  0.08404  1.0000
  C   C531      1.0  0.45482  0.95289  0.01778  1.0000
  C   C532      1.0  0.36119  0.97626  0.99837  1.0000
  H   H641      1.0  0.43942  0.50780  0.03482  1.0000
  C   C533      1.0  0.27017  0.75850  0.02218  1.0000
  H   H642      1.0  0.43210  0.92342  0.03954  1.0000
  H   H643      1.0  0.43266  0.89271  0.00900  1.0000
  C   C534      1.0  0.02342  0.53179  0.00471  1.0000
  H   H644      1.0  0.01879  0.50006  0.03402  1.0000
  C   C535      1.0  0.42850  0.82723  0.12871  1.0000
  C   C536      1.0  0.24918  0.73383  0.02058  1.0000
  H   H645      1.0  0.30106  0.80404  0.11227  1.0000
  H   H646      1.0  0.37055  0.93326  0.06744  1.0000
  C   C537      1.0  0.37134  0.93270  0.07803  1.0000
  N   N39       1.0  0.35065  0.94263  0.08367  1.0000
  H   H647      1.0  0.22177  0.78147  0.09490  1.0000
  H   H648      1.0  0.02190  0.61905  0.04214  1.0000
  H   H649      1.0  0.04095  0.67944  0.04405  1.0000
  C   C538      1.0  0.22210  0.73212  0.01772  1.0000
  C   C539      1.0  0.99614  0.51944  0.00102  1.0000
  H   H650      1.0  0.00322  0.67071  0.05816  1.0000
  H   H651      1.0  0.22935  0.79653  0.01735  1.0000
  C   C540      1.0  0.01326  0.50587  0.02470  1.0000
  H   H652      1.0  0.18359  0.76920  0.13561  1.0000
  C   C541      1.0  0.26609  0.78742  0.12512  1.0000
  C   C542      1.0  0.26223  0.78107  0.02076  1.0000
  H   H653      1.0  0.41818  0.87401  0.02345  1.0000
  C   C543      1.0  0.44202  0.82681  0.11722  1.0000
  C   C544      1.0  0.99328  0.58576  0.99260  1.0000
  C   C545      1.0  0.23516  0.77911  0.01782  1.0000
  H   H654      1.0  0.45243  0.83041  0.09070  1.0000
  H   H655      1.0  0.27937  0.79026  0.13327  1.0000
  C   C546      1.0  0.44410  0.53042  0.14740  1.0000
  C   C547      1.0  0.23084  0.79004  0.14757  1.0000
  H   H656      1.0  0.04972  0.56855  0.03013  1.0000
  C   C548      1.0  0.27874  0.79544  0.11314  1.0000
  H   H657      1.0  0.20609  0.71307  0.01714  1.0000
  H   H658      1.0  0.27274  0.80023  0.09307  1.0000
  H   H659      1.0  0.19890  0.76658  0.11544  1.0000
  H   H660      1.0  0.08165  0.54856  0.00289  1.0000
  C   C549      1.0  0.00037  0.58026  0.01896  1.0000
  H   H661      1.0  0.19387  0.75314  0.01466  1.0000
  C   C550      1.0  0.47209  0.85101  0.13799  1.0000
  C   C551      1.0  0.46739  0.57109  0.13505  1.0000
  H   H662      1.0  0.09633  0.52927  0.02799  1.0000
  H   H663      1.0  0.25341  0.79906  0.14910  1.0000
  H   H664      1.0  0.37120  0.91028  0.01872  1.0000
  H   H665      1.0  0.42040  0.56875  0.14660  1.0000
  C   C552      1.0  0.36835  0.97616  0.02129  1.0000
  C   C553      1.0  0.34151  0.95088  0.00018  1.0000
  H   H666      1.0  0.03386  0.61549  0.99262  1.0000
  C   C554      1.0  0.13440  0.51623  0.14704  1.0000
  H   H667      1.0  0.44670  0.50157  0.07025  1.0000
  C   C555      1.0  0.14233  0.56239  0.14908  1.0000
  H   H668      1.0  0.35148  0.93018  0.13498  1.0000
  H   H669      1.0  0.16340  0.49966  0.10341  1.0000
  H   H670      1.0  0.37909  0.98253  0.08300  1.0000
  H   H671      1.0  0.99489  0.61267  0.05387  1.0000
  C   C556      1.0  0.47273  0.50662  0.11736  1.0000
  H   H672      1.0  0.37359  0.49687  0.06191  1.0000
  H   H673      1.0  0.46942  0.50397  0.12758  1.0000
  S   S149      1.0  0.47730  0.86371  0.06659  1.0000
  C   C557      1.0  0.98749  0.64078  0.01872  1.0000
  C   C558      1.0  0.46863  0.97735  0.01158  1.0000
  H   H674      1.0  0.07079  0.48800  0.11824  1.0000
  H   H675      1.0  0.48089  0.82239  0.08527  1.0000
  H   H676      1.0  0.98913  0.52512  0.99196  1.0000
  C   C559      1.0  0.98844  0.65963  0.05099  1.0000
  H   H677      1.0  0.48148  0.87388  0.09564  1.0000
  H   H678      1.0  0.47782  0.59270  0.13521  1.0000
  C   C560      1.0  0.48166  0.51320  0.09102  1.0000
  C   C561      1.0  0.48233  0.56657  0.15630  1.0000
  C   C562      1.0  0.40639  0.49320  0.13946  1.0000
  H   H679      1.0  0.16519  0.50200  0.15535  1.0000
  H   H680      1.0  0.48249  0.56295  0.13097  1.0000
  C   C563      1.0  0.16581  0.56469  0.15627  1.0000
  H   H681      1.0  0.33076  0.94104  0.99204  1.0000
  H   H682      1.0  0.05941  0.49578  0.09072  1.0000
  H   H683      1.0  0.09555  0.50394  0.10593  1.0000
  C   C564      1.0  0.45287  0.49121  0.10929  1.0000
  C   C565      1.0  0.09591  0.48762  0.05758  1.0000
  C   C566      1.0  0.17435  0.54300  0.15832  1.0000
  Fe  Fe76      1.0  0.34021  0.85051  0.17605  1.0000
  S   S150      1.0  0.31496  0.87695  0.17507  1.0000
  S   S151      1.0  0.38596  0.87187  0.17431  1.0000
  Fe  Fe77      1.0  0.28950  0.80149  0.17957  1.0000
  S   S152      1.0  0.26083  0.82460  0.17864  1.0000
  S   S153      1.0  0.27448  0.75742  0.18264  1.0000
  Fe  Fe78      1.0  0.29100  0.85126  0.19162  1.0000
  S   S154      1.0  0.27763  0.86742  0.20906  1.0000
  S   S155      1.0  0.31835  0.82688  0.19339  1.0000
  H   H684      1.0  0.33475  0.87690  0.20768  1.0000
  Fe  Fe79      1.0  0.10510  0.61058  0.18541  1.0000
  S   S156      1.0  0.14960  0.63592  0.18339  1.0000
  S   S157      1.0  0.09090  0.58998  0.20491  1.0000
  Fe  Fe80      1.0  0.13416  0.66000  0.16939  1.0000
  S   S158      1.0  0.14816  0.70360  0.17094  1.0000
  H   H685      1.0  0.03039  0.54912  0.28242  1.0000
  C   C567      1.0  0.07999  0.49540  0.19962  1.0000
  S   S159      1.0  0.08905  0.63589  0.17220  1.0000
  S   S160      1.0  0.10823  0.58584  0.16951  1.0000
  Fe  Fe81      1.0  0.27522  0.81682  0.30549  1.0000
  S   S161      1.0  0.27603  0.85281  0.29385  1.0000
  S   S162      1.0  0.23136  0.78970  0.30950  1.0000
  Fe  Fe82      1.0  0.33848  0.83762  0.30846  1.0000
  S   S163      1.0  0.34298  0.87549  0.29750  1.0000
  S   S164      1.0  0.37453  0.82599  0.31597  1.0000
  Fe  Fe83      1.0  0.30503  0.87458  0.30880  1.0000
  C   C568      1.0  0.18965  0.51000  0.30295  1.0000
  Fe  Fe84      1.0  0.31324  0.84986  0.28383  1.0000
  S   S165      1.0  0.32329  0.84622  0.26309  1.0000
  S   S166      1.0  0.31465  0.82237  0.16227  1.0000
  S   S167      1.0  0.31012  0.81199  0.29448  1.0000
  Fe  Fe85      1.0  0.08718  0.60475  0.29820  1.0000
  S   S168      1.0  0.05679  0.62369  0.29096  1.0000
  S   S169      1.0  0.07380  0.56401  0.30802  1.0000
  Fe  Fe86      1.0  0.13656  0.65438  0.29296  1.0000
  S   S170      1.0  0.11014  0.67666  0.28534  1.0000
  S   S171      1.0  0.18314  0.67197  0.29380  1.0000
  Fe  Fe87      1.0  0.08140  0.65820  0.30206  1.0000
  Fe  Fe88      1.0  0.08813  0.64050  0.27494  1.0000
  S   S172      1.0  0.07831  0.64818  0.25431  1.0000
  S   S173      1.0  0.10974  0.63823  0.31034  1.0000
  S   S174      1.0  0.11661  0.61920  0.28149  1.0000
  C   C569      1.0  0.41655  0.49767  0.30832  1.0000
  H   H686      1.0  0.34916  0.90985  0.20113  1.0000
  C   C570      1.0  0.07670  0.53567  0.30158  1.0000
  C   C571      1.0  0.08400  0.53522  0.28882  1.0000
  C   C572      1.0  0.08195  0.51124  0.28365  1.0000
  C   C573      1.0  0.07450  0.51868  0.17995  1.0000
  H   H687      1.0  0.08981  0.55307  0.28278  1.0000
  H   H688      1.0  0.06190  0.53842  0.19510  1.0000
  C   C574      1.0  0.21916  0.75764  0.30426  1.0000
  C   C575      1.0  0.23664  0.74321  0.30259  1.0000
  C   C576      1.0  0.22549  0.71692  0.29927  1.0000
  C   C577      1.0  0.19692  0.70508  0.29760  1.0000
  C   C578      1.0  0.17968  0.71982  0.29899  1.0000
  C   C579      1.0  0.19079  0.74601  0.30226  1.0000
  H   H689      1.0  0.25857  0.75203  0.30418  1.0000
  H   H690      1.0  0.23895  0.70559  0.29822  1.0000
  H   H691      1.0  0.15775  0.71097  0.29761  1.0000
  H   H692      1.0  0.17735  0.75732  0.30335  1.0000
  C   C580      1.0  0.40833  0.83799  0.30905  1.0000
  C   C581      1.0  0.42684  0.82457  0.31187  1.0000
  C   C582      1.0  0.45428  0.83425  0.30708  1.0000
  H   H693      1.0  0.41985  0.80653  0.31776  1.0000
  C   C583      1.0  0.44515  0.87117  0.29681  1.0000
  C   C584      1.0  0.41756  0.86119  0.30135  1.0000
  H   H694      1.0  0.43879  0.68116  0.17145  1.0000
  H   H695      1.0  0.02755  0.50845  0.29027  1.0000
  H   H696      1.0  0.45220  0.88947  0.29112  1.0000
  C   C585      1.0  0.04274  0.54361  0.17780  1.0000
  C   C586      1.0  0.41334  0.50408  0.24794  1.0000
  H   H697      1.0  0.14648  0.71083  0.20169  1.0000
  H   H698      1.0  0.39337  0.53033  0.18324  1.0000
  C   C587      1.0  0.08889  0.60714  0.21851  1.0000
  C   C588      1.0  0.08176  0.62978  0.21755  1.0000
  C   C589      1.0  0.07897  0.64224  0.22861  1.0000
  C   C590      1.0  0.08360  0.63245  0.24071  1.0000
  C   C591      1.0  0.09142  0.61018  0.24165  1.0000
  C   C592      1.0  0.09363  0.59738  0.23061  1.0000
  H   H699      1.0  0.07771  0.63729  0.20832  1.0000
  H   H700      1.0  0.07280  0.65939  0.22780  1.0000
  H   H701      1.0  0.09495  0.60239  0.25091  1.0000
  H   H702      1.0  0.09899  0.57979  0.23145  1.0000
  C   C593      1.0  0.02647  0.57097  0.25212  1.0000
  Fe  Fe89      1.0  0.15148  0.61316  0.16655  1.0000
  H   H703      1.0  0.47076  0.51755  0.16058  1.0000
  H   H704      1.0  0.44414  0.73976  0.18800  1.0000
  H   H705      1.0  0.03251  0.55574  0.18198  1.0000
  S   S175      1.0  0.30278  0.83856  0.32076  1.0000
  C   C594      1.0  0.17330  0.58038  0.29203  1.0000
  S   S176      1.0  0.46540  0.80672  0.18372  1.0000
  H   H706      1.0  0.40662  0.79265  0.18749  1.0000
  C   C595      1.0  0.28822  0.86013  0.22441  1.0000
  C   C596      1.0  0.30050  0.84100  0.22636  1.0000
  C   C597      1.0  0.30976  0.83618  0.23845  1.0000
  C   C598      1.0  0.30698  0.85040  0.24878  1.0000
  C   C599      1.0  0.29372  0.86887  0.24703  1.0000
  C   C600      1.0  0.28438  0.87372  0.23485  1.0000
  H   H707      1.0  0.30280  0.82976  0.21858  1.0000
  H   H708      1.0  0.31954  0.82154  0.23975  1.0000
  H   H709      1.0  0.29157  0.88006  0.25492  1.0000
  H   H710      1.0  0.27466  0.88841  0.23346  1.0000
  C   C601      1.0  0.23887  0.74164  0.18066  1.0000
  C   C602      1.0  0.22048  0.75533  0.18159  1.0000
  C   C603      1.0  0.19258  0.74338  0.17872  1.0000
  C   C604      1.0  0.18279  0.71745  0.17515  1.0000
  C   C605      1.0  0.20081  0.70320  0.17481  1.0000
  C   C606      1.0  0.22884  0.71527  0.17764  1.0000
  H   H711      1.0  0.22762  0.77509  0.18456  1.0000
  H   H712      1.0  0.17859  0.75433  0.17919  1.0000
  C   C607      1.0  0.44293  0.82428  0.18060  1.0000
  C   C608      1.0  0.45313  0.85003  0.17543  1.0000
  C   C609      1.0  0.43539  0.86439  0.17350  1.0000
  C   C610      1.0  0.40721  0.85288  0.17646  1.0000
  C   C611      1.0  0.39673  0.82690  0.18141  1.0000
  C   C612      1.0  0.41468  0.81266  0.18357  1.0000
  H   H713      1.0  0.37490  0.81790  0.18364  1.0000
  C   C613      1.0  0.42775  0.52411  0.30383  1.0000
  C   C614      1.0  0.38230  0.82500  0.22969  1.0000
  C   C615      1.0  0.15204  0.49698  0.28823  1.0000
  N   N40       1.0  0.16062  0.50821  0.30075  1.0000
  N   N41       1.0  0.99831  0.49825  0.27517  1.0000
  H   H714      1.0  0.42938  0.56126  0.16245  1.0000
  H   H715      1.0  0.45722  0.75405  0.17261  1.0000
  C   C616      1.0  0.37607  0.86626  0.23332  1.0000
  C   C617      1.0  0.45470  0.50543  0.18925  1.0000
  H   H716      1.0  0.14048  0.68985  0.32364  1.0000
  H   H717      1.0  0.47173  0.49842  0.19107  1.0000
  C   C618      1.0  0.06919  0.51234  0.30930  1.0000
  H   H718      1.0  0.18659  0.55103  0.28454  1.0000
  H   H719      1.0  0.13257  0.52820  0.19731  1.0000
  H   H720      1.0  0.43511  0.70957  0.16318  1.0000
  N   N42       1.0  0.16352  0.68911  0.21509  1.0000
  C   C619      1.0  0.14286  0.69042  0.20552  1.0000
  C   C620      1.0  0.19157  0.70025  0.20914  1.0000
  C   C621      1.0  0.15874  0.66104  0.21862  1.0000
  C   C622      1.0  0.16096  0.70419  0.22605  1.0000
  C   C623      1.0  0.16948  0.73200  0.22486  1.0000
  C   C624      1.0  0.14826  0.69190  0.23783  1.0000
  C   C625      1.0  0.16624  0.74654  0.23494  1.0000
  C   C626      1.0  0.14483  0.70661  0.24779  1.0000
  C   C627      1.0  0.15385  0.73385  0.24637  1.0000
  C   C628      1.0  0.15770  0.58670  0.30127  1.0000
  H   H721      1.0  0.13903  0.75649  0.32308  1.0000
  H   H722      1.0  0.12151  0.68262  0.20964  1.0000
  H   H723      1.0  0.19456  0.68787  0.20155  1.0000
  H   H724      1.0  0.20789  0.70195  0.21630  1.0000
  H   H725      1.0  0.19553  0.71985  0.20428  1.0000
  H   H726      1.0  0.17281  0.65882  0.22627  1.0000
  H   H727      1.0  0.13711  0.65041  0.22185  1.0000
  H   H728      1.0  0.16199  0.65032  0.21038  1.0000
  H   H729      1.0  0.17803  0.74270  0.21602  1.0000
  H   H730      1.0  0.14008  0.67086  0.23956  1.0000
  H   H731      1.0  0.17276  0.76774  0.23377  1.0000
  H   H732      1.0  0.13437  0.69663  0.25654  1.0000
  H   H733      1.0  0.15060  0.74505  0.25405  1.0000
  C   C629      1.0  0.40434  0.50073  0.26066  1.0000
  H   H734      1.0  0.23346  0.87124  0.31884  1.0000
  C   C630      1.0  0.47006  0.49186  0.28466  1.0000
  H   H735      1.0  0.12995  0.57245  0.31731  1.0000
  H   H736      1.0  0.47464  0.85897  0.17283  1.0000
  H   H737      1.0  0.48025  0.75657  0.18583  1.0000
  H   H738      1.0  0.45171  0.52559  0.22835  1.0000
  S   S177      1.0  0.29541  0.90856  0.31727  1.0000
  N   N43       1.0  0.46552  0.71848  0.17783  1.0000
  H   H739      1.0  0.13005  0.52801  0.31724  1.0000
  H   H740      1.0  0.38497  0.85936  0.20171  1.0000
  H   H741      1.0  0.38145  0.91934  0.23179  1.0000
  C   C631      1.0  0.00843  0.52339  0.26744  1.0000
  C   C632      1.0  0.45035  0.50543  0.22615  1.0000
  H   H742      1.0  0.99143  0.50641  0.24960  1.0000
  H   H743      1.0  0.06343  0.51254  0.31917  1.0000
  H   H744      1.0  0.19342  0.68318  0.17196  1.0000
  H   H745      1.0  0.15724  0.60651  0.30142  1.0000
  H   H746      1.0  0.03309  0.58921  0.24632  1.0000
  C   C633      1.0  0.38285  0.85522  0.21188  1.0000
  C   C634      1.0  0.46374  0.85793  0.29974  1.0000
  H   H747      1.0  0.13550  0.72845  0.31411  1.0000
  C   C635      1.0  0.42899  0.48792  0.18592  1.0000
  C   C636      1.0  0.38472  0.83140  0.21664  1.0000
  H   H748      1.0  0.07374  0.50792  0.20611  1.0000
  C   C637      1.0  0.02433  0.54759  0.27257  1.0000
  S   S178      1.0  0.44000  0.57375  0.19024  1.0000
  H   H749      1.0  0.02818  0.54827  0.15895  1.0000
  H   H750      1.0  0.47936  0.83697  0.26534  1.0000
  H   H751      1.0  0.42103  0.52386  0.24372  1.0000
  H   H752      1.0  0.46229  0.56062  0.30410  1.0000
  H   H753      1.0  0.44349  0.88443  0.16959  1.0000
  H   H754      1.0  0.41827  0.91940  0.21651  1.0000
  H   H755      1.0  0.36270  0.93034  0.21989  1.0000
  C   C638      1.0  0.37834  0.84254  0.23801  1.0000
  H   H756      1.0  0.38320  0.80632  0.23337  1.0000
  H   H757      1.0  0.37208  0.87840  0.24034  1.0000
  H   H758      1.0  0.36152  0.88550  0.19576  1.0000
  H   H759      1.0  0.24294  0.70448  0.17698  1.0000
  H   H760      1.0  0.19720  0.51924  0.31206  1.0000
  H   H761      1.0  0.47765  0.54494  0.19384  1.0000
  C   C639      1.0  0.41053  0.52344  0.18491  1.0000
  H   H762      1.0  0.38764  0.81773  0.21013  1.0000
  H   H763      1.0  0.37599  0.83744  0.24817  1.0000
  C   C640      1.0  0.00495  0.50099  0.28887  1.0000
  H   H764      1.0  0.19266  0.54480  0.16378  1.0000
  H   H765      1.0  0.40895  0.90589  0.20124  1.0000
  H   H766      1.0  0.40557  0.51757  0.26603  1.0000
  H   H767      1.0  0.47434  0.68677  0.18822  1.0000
  C   C641      1.0  0.01157  0.54757  0.24674  1.0000
  S   S179      1.0  0.06663  0.68719  0.31253  1.0000
  H   H768      1.0  0.45218  0.85900  0.22030  1.0000
  N   N44       1.0  0.24408  0.77877  0.26261  1.0000
  C   C642      1.0  0.27090  0.77480  0.26481  1.0000
  C   C643      1.0  0.24330  0.79993  0.27083  1.0000
  C   C644      1.0  0.22136  0.75446  0.26687  1.0000
  C   C645      1.0  0.24101  0.78463  0.24888  1.0000
  C   C646      1.0  0.23465  0.80692  0.24424  1.0000
  C   C647      1.0  0.24377  0.76740  0.23969  1.0000
  C   C648      1.0  0.23179  0.81174  0.23121  1.0000
  C   C649      1.0  0.24145  0.77273  0.22666  1.0000
  C   C650      1.0  0.23558  0.79493  0.22243  1.0000
  H   H769      1.0  0.28844  0.79208  0.26097  1.0000
  H   H770      1.0  0.27459  0.77208  0.27515  1.0000
  H   H771      1.0  0.27218  0.75717  0.26039  1.0000
  H   H772      1.0  0.26007  0.81881  0.26811  1.0000
  H   H773      1.0  0.24638  0.79522  0.28105  1.0000
  H   H774      1.0  0.22302  0.80296  0.27050  1.0000
  H   H775      1.0  0.22158  0.73718  0.26175  1.0000
  H   H776      1.0  0.22276  0.74945  0.27717  1.0000
  H   H777      1.0  0.20083  0.75662  0.26542  1.0000
  H   H778      1.0  0.23249  0.82137  0.25041  1.0000
  H   H779      1.0  0.24806  0.74981  0.24251  1.0000
  H   H780      1.0  0.22788  0.82935  0.22781  1.0000
  H   H781      1.0  0.24464  0.75984  0.21976  1.0000
  H   H782      1.0  0.23455  0.79951  0.21232  1.0000
  C   C651      1.0  0.45544  0.84001  0.21915  1.0000
  N   N45       1.0  0.09407  0.51014  0.18783  1.0000
  C   C652      1.0  0.45813  0.53182  0.19071  1.0000
  C   C653      1.0  0.14252  0.56752  0.31028  1.0000
  C   C654      1.0  0.06746  0.48846  0.30418  1.0000
  H   H783      1.0  0.46449  0.49929  0.23256  1.0000
  H   H784      1.0  0.11867  0.50325  0.17277  1.0000
  C   C655      1.0  0.46968  0.53023  0.31590  1.0000
  C   C656      1.0  0.07312  0.48768  0.29126  1.0000
  H   H785      1.0  0.18500  0.59544  0.28502  1.0000
  H   H786      1.0  0.08131  0.50319  0.16183  1.0000
  H   H787      1.0  0.99591  0.51450  0.29327  1.0000
  H   H788      1.0  0.11016  0.54717  0.19679  1.0000
  H   H789      1.0  0.12854  0.54505  0.18269  1.0000
  C   C657      1.0  0.35431  0.89228  0.20440  1.0000
  H   H790      1.0  0.14910  0.49574  0.32041  1.0000
  C   C658      1.0  0.36588  0.91249  0.22425  1.0000
  H   H791      1.0  0.14335  0.67884  0.19718  1.0000
  H   H792      1.0  0.41571  0.53227  0.29758  1.0000
  H   H793      1.0  0.46895  0.50580  0.29138  1.0000
  C   C659      1.0  0.43906  0.70143  0.17263  1.0000
  C   C660      1.0  0.10601  0.49290  0.18123  1.0000
  H   H794      1.0  0.44163  0.82535  0.22613  1.0000
  H   H795      1.0  0.45407  0.70137  0.19690  1.0000
  N   N46       1.0  0.37496  0.89785  0.21467  1.0000
  C   C661      1.0  0.46168  0.74326  0.18117  1.0000
  H   H796      1.0  0.40361  0.87176  0.29913  1.0000
  C   C662      1.0  0.17392  0.55486  0.29181  1.0000
  H   H797      1.0  0.04519  0.58925  0.26895  1.0000
  H   H798      1.0  0.34576  0.90015  0.22881  1.0000
  C   C663      1.0  0.14304  0.48934  0.31064  1.0000
  Fe  Fe90      1.0  0.28795  0.84739  0.16220  1.0000
  H   H799      1.0  0.08598  0.51079  0.27360  1.0000
  C   C664      1.0  0.05960  0.53347  0.18526  1.0000
  H   H800      1.0  0.42115  0.69948  0.17903  1.0000
  C   C665      1.0  0.37776  0.87313  0.22003  1.0000
  C   C666      1.0  0.15868  0.53478  0.30087  1.0000
  H   H801      1.0  0.03386  0.48876  0.26976  1.0000
  C   C667      1.0  0.45421  0.54025  0.30750  1.0000
  H   H802      1.0  0.20392  0.52167  0.29521  1.0000
  C   C668      1.0  0.14278  0.54188  0.31011  1.0000
  C   C669      1.0  0.45863  0.50373  0.32030  1.0000
  C   C670      1.0  0.40695  0.49696  0.18368  1.0000
  C   C671      1.0  0.43608  0.54086  0.18849  1.0000
  C   C672      1.0  0.03310  0.57094  0.26494  1.0000
  H   H803      1.0  0.40083  0.93403  0.20516  1.0000
  H   H804      1.0  0.40942  0.49975  0.20947  1.0000
  C   C673      1.0  0.04026  0.53941  0.16484  1.0000
  C   C674      1.0  0.40195  0.91506  0.20918  1.0000
  C   C675      1.0  0.07090  0.51415  0.16676  1.0000
  C   C676      1.0  0.11730  0.53360  0.19134  1.0000
  C   C677      1.0  0.05415  0.52458  0.15937  1.0000
  H   H805      1.0  0.44808  0.83335  0.20952  1.0000
  H   H806      1.0  0.46358  0.82099  0.24439  1.0000
  S   S180      1.0  0.18300  0.59404  0.16350  1.0000
  C   C678      1.0  0.47118  0.70563  0.18977  1.0000
  H   H807      1.0  0.46819  0.82361  0.30926  1.0000
  H   H808      1.0  0.19190  0.49031  0.30346  1.0000
  H   H809      1.0  0.16543  0.50863  0.28024  1.0000
  H   H810      1.0  0.00696  0.54771  0.23669  1.0000
  H   H811      1.0  0.13043  0.49568  0.28613  1.0000
  C   C679      1.0  0.48089  0.83907  0.24473  1.0000
  H   H812      1.0  0.47461  0.80195  0.22695  1.0000
  H   H813      1.0  0.45883  0.50732  0.21627  1.0000
  C   C680      1.0  0.43233  0.48747  0.31646  1.0000
  C   C681      1.0  0.12950  0.73479  0.32319  1.0000
  H   H814      1.0  0.10672  0.73004  0.32296  1.0000
  C   C682      1.0  0.40323  0.49685  0.21969  1.0000
  H   H815      1.0  0.48225  0.80899  0.21033  1.0000
  H   H816      1.0  0.47642  0.55917  0.16632  1.0000
  H   H817      1.0  0.40361  0.51625  0.22273  1.0000
  C   C683      1.0  0.00272  0.52408  0.25424  1.0000
  H   H818      1.0  0.48137  0.68080  0.16693  1.0000
  H   H819      1.0  0.09360  0.48695  0.20523  1.0000
  H   H820      1.0  0.12078  0.48658  0.30936  1.0000
  H   H821      1.0  0.12206  0.79409  0.40791  1.0000
  S   S181      1.0  0.05852  0.77373  0.47445  1.0000
  Fe  Fe91      1.0  0.22378  0.94152  0.41411  1.0000
  C   C684      1.0  0.01605  0.71500  0.45219  1.0000
  S   S182      1.0  0.22414  0.92490  0.43440  1.0000
  Fe  Fe92      1.0  0.24267  0.93637  0.38646  1.0000
  S   S183      1.0  0.21750  0.95933  0.37788  1.0000
  S   S184      1.0  0.26777  0.91608  0.37587  1.0000
  H   H822      1.0  0.22395  0.97752  0.43862  1.0000
  Fe  Fe93      1.0  0.18442  0.93552  0.39203  1.0000
  S   S185      1.0  0.13967  0.91651  0.38663  1.0000
  N   N47       1.0  0.13746  0.72158  0.33445  1.0000
  S   S186      1.0  0.20869  0.91111  0.39964  1.0000
  Fe  Fe94      1.0  0.00498  0.72837  0.40735  1.0000
  S   S187      1.0  0.01114  0.77059  0.40238  1.0000
  S   S188      1.0  0.26042  0.96464  0.40172  1.0000
  Fe  Fe95      1.0  0.00722  0.71553  0.37899  1.0000
  S   S189      1.0  0.01268  0.75685  0.37217  1.0000
  S   S190      1.0  0.00563  0.68224  0.36621  1.0000
  Fe  Fe96      1.0  0.04278  0.76852  0.38810  1.0000
  S   S191      1.0  0.08812  0.79276  0.38569  1.0000
  S   S192      1.0  0.03878  0.72717  0.39426  1.0000
  C   C685      1.0  0.16558  0.86351  0.42894  1.0000
  H   H823      1.0  0.26875  0.93971  0.32968  1.0000
  H   H824      1.0  0.15867  0.82324  0.43362  1.0000
  C   C686      1.0  0.02379  0.68427  0.35154  1.0000
  C   C687      1.0  0.03485  0.70783  0.34420  1.0000
  C   C688      1.0  0.04780  0.70826  0.33232  1.0000
  C   C689      1.0  0.22413  0.86417  0.32818  1.0000
  H   H825      1.0  0.24029  0.83256  0.32952  1.0000
  C   C690      1.0  0.02635  0.66133  0.34693  1.0000
  H   H826      1.0  0.03310  0.72565  0.34758  1.0000
  C   C691      1.0  0.14787  0.92766  0.47562  1.0000
  H   H827      1.0  0.08666  0.74311  0.37512  1.0000
  H   H828      1.0  0.01783  0.64297  0.35249  1.0000
  C   C692      1.0  0.27266  0.91280  0.35936  1.0000
  C   C693      1.0  0.26634  0.92870  0.34981  1.0000
  C   C694      1.0  0.27289  0.92679  0.33695  1.0000
  C   C695      1.0  0.20196  0.84671  0.35255  1.0000
  C   C696      1.0  0.29068  0.89219  0.34296  1.0000
  C   C697      1.0  0.28457  0.89439  0.35582  1.0000
  H   H829      1.0  0.25717  0.94296  0.35231  1.0000
  H   H830      1.0  0.30031  0.87824  0.34045  1.0000
  H   H831      1.0  0.28954  0.88196  0.36309  1.0000
  C   C698      1.0  0.12493  0.88197  0.38706  1.0000
  C   C699      1.0  0.09642  0.86996  0.38533  1.0000
  C   C700      1.0  0.08450  0.84247  0.38521  1.0000
  C   C701      1.0  0.10125  0.82700  0.38655  1.0000
  C   C702      1.0  0.12963  0.83898  0.38836  1.0000
  C   C703      1.0  0.14132  0.86626  0.38878  1.0000
  H   H832      1.0  0.08353  0.88196  0.38402  1.0000
  H   H833      1.0  0.06255  0.83335  0.38377  1.0000
  H   H834      1.0  0.14271  0.82714  0.38946  1.0000
  H   H835      1.0  0.16308  0.87500  0.39030  1.0000
  C   C704      1.0  0.03884  0.75620  0.46200  1.0000
  C   C705      1.0  0.03550  0.76969  0.45071  1.0000
  C   C706      1.0  0.02254  0.75584  0.44018  1.0000
  C   C707      1.0  0.01352  0.72843  0.44076  1.0000
  H   H836      1.0  0.17455  0.72423  0.34459  1.0000
  C   C708      1.0  0.02846  0.72880  0.46280  1.0000
  H   H837      1.0  0.04301  0.79089  0.45011  1.0000
  H   H838      1.0  0.04145  0.64403  0.33175  1.0000
  C   C709      1.0  0.07686  0.79393  0.42101  1.0000
  C   C710      1.0  0.08975  0.71290  0.36348  1.0000
  C   C711      1.0  0.22015  0.96621  0.47104  1.0000
  H   H839      1.0  0.07445  0.85644  0.48380  1.0000
  C   C712      1.0  0.22296  0.96718  0.44777  1.0000
  C   C713      1.0  0.22305  0.94146  0.44834  1.0000
  C   C714      1.0  0.22184  0.92825  0.46031  1.0000
  C   C715      1.0  0.22031  0.94051  0.47161  1.0000
  H   H840      1.0  0.46263  0.86993  0.34846  1.0000
  H   H841      1.0  0.21922  0.93008  0.48075  1.0000
  C   C716      1.0  0.09716  0.73859  0.36714  1.0000
  S   S193      1.0  0.19732  0.96474  0.40730  1.0000
  H   H842      1.0  0.13929  0.87293  0.36067  1.0000
  N   N48       1.0  0.18095  0.88219  0.35334  1.0000
  H   H843      1.0  0.14624  0.76906  0.34472  1.0000
  H   H844      1.0  0.14239  0.85522  0.34712  1.0000
  H   H845      1.0  0.13987  0.78715  0.42152  1.0000
  H   H846      1.0  0.47384  0.84546  0.33193  1.0000
  H   H847      1.0  0.18246  0.90199  0.37072  1.0000
  H   H848      1.0  0.16612  0.91489  0.35137  1.0000
  C   C717      1.0  0.13095  0.75287  0.34989  1.0000
  H   H849      1.0  0.22092  0.81711  0.35116  1.0000
  H   H850      1.0  0.22195  0.90836  0.46083  1.0000
  N   N49       1.0  0.11538  0.85661  0.48813  1.0000
  H   H851      1.0  0.07689  0.80080  0.41088  1.0000
  C   C718      1.0  0.15495  0.88210  0.42375  1.0000
  H   H852      1.0  0.15244  0.84670  0.36260  1.0000
  H   H853      1.0  0.16768  0.89975  0.33685  1.0000
  C   C719      1.0  0.12907  0.87975  0.47941  1.0000
  H   H854      1.0  0.03105  0.71819  0.47143  1.0000
  H   H855      1.0  0.15558  0.89823  0.44903  1.0000
  H   H856      1.0  0.48356  0.91694  0.32964  1.0000
  H   H857      1.0  0.09438  0.79988  0.44551  1.0000
  H   H858      1.0  0.12331  0.78935  0.44300  1.0000
  C   C720      1.0  0.12184  0.82813  0.42518  1.0000
  H   H859      1.0  0.19904  0.92060  0.34399  1.0000
  C   C721      1.0  0.34171  0.96031  0.33796  1.0000
  H   H860      1.0  0.07318  0.69755  0.36860  1.0000
  H   H861      1.0  0.18670  0.86986  0.43226  1.0000
  N   N50       1.0  0.10537  0.79976  0.42577  1.0000
  H   H862      1.0  0.27680  0.97157  0.36932  1.0000
  C   C722      1.0  0.17840  0.90534  0.34600  1.0000
  C   C723      1.0  0.12402  0.72685  0.34593  1.0000
  S   S194      1.0  0.21767  0.98247  0.48490  1.0000
  C   C724      1.0  0.14930  0.90005  0.45865  1.0000
  C   C725      1.0  0.13661  0.87767  0.46661  1.0000
  H   H863      1.0  0.16774  0.90267  0.42305  1.0000
  H   H864      1.0  0.15303  0.94711  0.47917  1.0000
  H   H865      1.0  0.12011  0.88880  0.41507  1.0000
  C   C726      1.0  0.15260  0.86344  0.35602  1.0000
  H   H866      1.0  0.17862  0.72642  0.32759  1.0000
  C   C727      1.0  0.05032  0.68532  0.32769  1.0000
  H   H867      1.0  0.06490  0.80314  0.42673  1.0000
  C   C728      1.0  0.03977  0.66187  0.33516  1.0000
  C   C729      1.0  0.20903  0.87739  0.33424  1.0000
  C   C730      1.0  0.11160  0.84769  0.42000  1.0000
  C   C731      1.0  0.10281  0.70697  0.35302  1.0000
  H   H868      1.0  0.19400  0.83932  0.36201  1.0000
  C   C732      1.0  0.15466  0.92493  0.46311  1.0000
  C   C733      1.0  0.14934  0.83692  0.42967  1.0000
  C   C734      1.0  0.11919  0.78581  0.41792  1.0000
  C   C735      1.0  0.28533  0.90870  0.33345  1.0000
  H   H869      1.0  0.47036  0.49573  0.32680  1.0000
  H   H870      1.0  0.09534  0.68676  0.35051  1.0000
  C   C736      1.0  0.19739  0.86897  0.34666  1.0000
  H   H871      1.0  0.16484  0.94216  0.45694  1.0000
  H   H872      1.0  0.09120  0.84306  0.41609  1.0000
  S   S195      1.0  0.99869  0.71025  0.42754  1.0000
  C   C737      1.0  0.34314  0.95014  0.35025  1.0000
  H   H873      1.0  0.08929  0.76789  0.44003  1.0000
  H   H874      1.0  0.34871  0.93268  0.35162  1.0000
  H   H875      1.0  0.09713  0.82854  0.47405  1.0000
  H   H876      1.0  0.00893  0.69378  0.45276  1.0000
  H   H877      1.0  0.06518  0.77244  0.42136  1.0000
  H   H878      1.0  0.12295  0.77854  0.36321  1.0000
  C   C738      1.0  0.12802  0.87423  0.41936  1.0000
  H   H879      1.0  0.10681  0.76455  0.41766  1.0000
  C   C739      1.0  0.22162  0.97952  0.45907  1.0000
  H   H880      1.0  0.13315  0.85905  0.46252  1.0000
  H   H881      1.0  0.21547  0.90524  0.36397  1.0000
  C   C740      1.0  0.13514  0.90547  0.48366  1.0000
  C   C741      1.0  0.10309  0.78883  0.43913  1.0000
  C   C742      1.0  0.21722  0.83376  0.34641  1.0000
  C   C743      1.0  0.19401  0.89147  0.36557  1.0000
  H   H882      1.0  0.19513  0.87528  0.37219  1.0000
  C   C744      1.0  0.16802  0.73198  0.33561  1.0000
  H   H883      1.0  0.13080  0.82909  0.47945  1.0000
  C   C745      1.0  0.11094  0.83115  0.48239  1.0000
  C   C746      1.0  0.11771  0.75855  0.36037  1.0000
  H   H884      1.0  0.01955  0.76629  0.43160  1.0000
  H   H885      1.0  0.13456  0.68207  0.34038  1.0000
  H   H886      1.0  0.10066  0.81422  0.48924  1.0000
  H   H887      1.0  0.17655  0.75373  0.33542  1.0000
  H   H888      1.0  0.33654  0.95183  0.36992  1.0000
  C   C747      1.0  0.33603  0.96146  0.36074  1.0000
  H   H889      1.0  0.34618  0.95077  0.32985  1.0000
  H   H890      1.0  0.20728  0.89437  0.32905  1.0000
  C   C748      1.0  0.48156  0.89679  0.32709  1.0000
  C   C749      1.0  0.22822  0.84244  0.33424  1.0000
  C   C750      1.0  0.12952  0.69323  0.33215  1.0000
  H   H891      1.0  0.45918  0.88456  0.32738  1.0000
  H   H892      1.0  0.31036  0.96353  0.38401  1.0000
  H   H893      1.0  0.05577  0.72652  0.32665  1.0000
  H   H894      1.0  0.10711  0.68438  0.33017  1.0000
  Fe  Fe97      1.0  0.23296  0.98635  0.39393  1.0000
  C   C751      1.0  0.33315  0.98188  0.33606  1.0000
  C   C752      1.0  0.32747  0.98369  0.35916  1.0000
  H   H895      1.0  0.34557  0.98619  0.38391  1.0000
  C   C753      1.0  0.32361  0.98456  0.38263  1.0000
  Fe  Fe98      1.0  0.24952  0.94489  0.61904  1.0000
  S   S196      1.0  0.20902  0.95130  0.61927  1.0000
  S   S197      1.0  0.26176  0.92551  0.60268  1.0000
  Fe  Fe99      1.0  0.26724  0.97013  0.64499  1.0000
  Fe  Fe100     1.0  0.20645  0.93648  0.63972  1.0000
  S   S198      1.0  0.16329  0.90884  0.64600  1.0000
  C   C754      1.0  0.18678  0.88528  0.57674  1.0000
  S   S199      1.0  0.24654  0.92819  0.63926  1.0000
  H   H896      1.0  0.22159  0.84974  0.56234  1.0000
  Fe  Fe101     1.0  0.05724  0.76065  0.63821  1.0000
  S   S200      1.0  0.04756  0.72424  0.62690  1.0000
  S   S201      1.0  0.10322  0.78608  0.63840  1.0000
  H   H897      1.0  0.10411  0.88335  0.57199  1.0000
  H   H898      1.0  0.16199  0.90230  0.56470  1.0000
  Fe  Fe102     1.0  0.99583  0.75123  0.64253  1.0000
  Fe  Fe103     1.0  0.01621  0.73868  0.61711  1.0000
  H   H899      1.0  0.30194  0.93351  0.58298  1.0000
  S   S202      1.0  0.02691  0.77532  0.62784  1.0000
  Fe  Fe104     1.0  0.23250  0.96317  0.53278  1.0000
  S   S203      1.0  0.19079  0.95207  0.54196  1.0000
  C   C755      1.0  0.16752  0.90873  0.59648  1.0000
  Fe  Fe105     1.0  0.21013  0.96537  0.50543  1.0000
  S   S204      1.0  0.16646  0.95358  0.51297  1.0000
  C   C756      1.0  0.00844  0.75497  0.57101  1.0000
  Fe  Fe106     1.0  0.17764  0.92494  0.52608  1.0000
  S   S205      1.0  0.15327  0.88315  0.53205  1.0000
  H   H900      1.0  0.20902  0.87336  0.59246  1.0000
  S   S206      1.0  0.22007  0.93415  0.51746  1.0000
  Fe  Fe107     1.0  0.02242  0.80091  0.51259  1.0000
  S   S207      1.0  0.05845  0.78691  0.51126  1.0000
  S   S208      1.0  0.02864  0.84246  0.51709  1.0000
  S   S209      1.0  0.26975  0.96897  0.54508  1.0000
  H   H901      1.0  0.14642  0.92292  0.58179  1.0000
  Fe  Fe108     1.0  0.03118  0.75185  0.52311  1.0000
  C   C757      1.0  0.16897  0.89990  0.57424  1.0000
  H   H902      1.0  0.12277  0.84024  0.50639  1.0000
  H   H903      1.0  0.08260  0.82739  0.64625  1.0000
  H   H904      1.0  0.13625  0.81394  0.59667  1.0000
  C   C758      1.0  0.11756  0.87348  0.52989  1.0000
  C   C759      1.0  0.10157  0.84715  0.53240  1.0000
  C   C760      1.0  0.07350  0.83816  0.52948  1.0000
  C   C761      1.0  0.06152  0.85524  0.52365  1.0000
  C   C762      1.0  0.07704  0.88195  0.52186  1.0000
  C   C763      1.0  0.10516  0.89109  0.52496  1.0000
  H   H905      1.0  0.11096  0.83351  0.53639  1.0000
  H   H906      1.0  0.06120  0.81783  0.53159  1.0000
  H   H907      1.0  0.06774  0.89530  0.51747  1.0000
  H   H908      1.0  0.11734  0.91154  0.52317  1.0000
  H   H909      1.0  0.12780  0.81111  0.61335  1.0000
  C   C764      1.0  0.03710  0.73135  0.57967  1.0000
  H   H910      1.0  0.11162  0.86444  0.59272  1.0000
  C   C765      1.0  0.03657  0.74055  0.55659  1.0000
  C   C766      1.0  0.28720  0.94916  0.56639  1.0000
  H   H911      1.0  0.08940  0.87476  0.49724  1.0000
  H   H912      1.0  0.21556  0.88223  0.54782  1.0000
  H   H913      1.0  0.19190  0.89323  0.60897  1.0000
  H   H914      1.0  0.08018  0.85485  0.55510  1.0000
  C   C767      1.0  0.15972  0.91159  0.58397  1.0000
  C   C768      1.0  0.14684  0.87496  0.64321  1.0000
  C   C769      1.0  0.16148  0.85941  0.63896  1.0000
  C   C770      1.0  0.14782  0.83231  0.63762  1.0000
  C   C771      1.0  0.11929  0.82044  0.64026  1.0000
  H   H915      1.0  0.18348  0.86808  0.63711  1.0000
  H   H916      1.0  0.15956  0.82039  0.63468  1.0000
  C   C772      1.0  0.26316  0.93859  0.58689  1.0000
  C   C773      1.0  0.24190  0.94638  0.58172  1.0000
  C   C774      1.0  0.24320  0.95532  0.56881  1.0000
  C   C775      1.0  0.26599  0.95673  0.56111  1.0000
  H   H917      1.0  0.06469  0.80653  0.55867  1.0000
  C   C776      1.0  0.28556  0.93972  0.57911  1.0000
  H   H918      1.0  0.22427  0.94502  0.58762  1.0000
  H   H919      1.0  0.22682  0.96140  0.56488  1.0000
  H   H920      1.0  0.22778  0.90690  0.55915  1.0000
  H   H921      1.0  0.18215  0.97111  0.59433  1.0000
  Fe  Fe109     1.0  0.01490  0.70444  0.64225  1.0000
  C   C777      1.0  0.11825  0.86314  0.64570  1.0000
  C   C778      1.0  0.21507  0.85887  0.57042  1.0000
  H   H922      1.0  0.06104  0.71981  0.56577  1.0000
  H   H923      1.0  0.19531  0.90148  0.55153  1.0000
  C   C779      1.0  0.01779  0.75346  0.55862  1.0000
  H   H924      1.0  0.07096  0.78666  0.57899  1.0000
  H   H925      1.0  0.20578  0.84284  0.57782  1.0000
  S   S210      1.0  0.04794  0.73736  0.54099  1.0000
  S   S211      1.0  0.01448  0.72955  0.50554  1.0000
  C   C780      1.0  0.18509  0.89467  0.59927  1.0000
  H   H926      1.0  0.04435  0.72244  0.58772  1.0000
  C   C781      1.0  0.04647  0.72981  0.56722  1.0000
  H   H927      1.0  0.15946  0.83726  0.56894  1.0000
  H   H928      1.0  0.13466  0.84179  0.60477  1.0000
  H   H929      1.0  0.15553  0.86097  0.55731  1.0000
  H   H930      1.0  0.17597  0.84179  0.55346  1.0000
  C   C782      1.0  0.10450  0.83614  0.64414  1.0000
  H   H931      1.0  0.23431  0.87308  0.57421  1.0000
  C   C783      1.0  0.17054  0.85216  0.56134  1.0000
  H   H932      1.0  0.16032  0.91772  0.60406  1.0000
  C   C784      1.0  0.01770  0.74365  0.58158  1.0000
  S   S212      1.0  0.99607  0.76695  0.52501  1.0000
  C   C785      1.0  0.19477  0.88320  0.58959  1.0000
  H   H933      1.0  0.09303  0.77413  0.59571  1.0000
  Fe  Fe110     1.0  0.03786  0.76664  0.49399  1.0000
  C   C786      1.0  0.20901  0.89155  0.55582  1.0000
  N   N51       1.0  0.19535  0.87217  0.56634  1.0000
  N   N52       1.0  0.09497  0.81266  0.60095  1.0000
  C   C787      1.0  0.08097  0.82318  0.61051  1.0000
  C   C788      1.0  0.08293  0.78358  0.60230  1.0000
  C   C789      1.0  0.12472  0.82029  0.60400  1.0000
  C   C790      1.0  0.09179  0.82367  0.58812  1.0000
  C   C791      1.0  0.07879  0.80781  0.57801  1.0000
  C   C792      1.0  0.10137  0.85124  0.58551  1.0000
  C   C793      1.0  0.07497  0.81904  0.56620  1.0000
  C   C794      1.0  0.09726  0.86225  0.57370  1.0000
  C   C795      1.0  0.08386  0.84619  0.56412  1.0000
  H   H934      1.0  0.05892  0.81932  0.60809  1.0000
  H   H935      1.0  0.08125  0.81401  0.62018  1.0000
  H   H936      1.0  0.09105  0.84458  0.61148  1.0000
  H   H937      1.0  0.06030  0.77652  0.60058  1.0000
  H   H938      1.0  0.08553  0.77595  0.61209  1.0000
  C   C796      1.0  0.08792  0.85701  0.49213  1.0000
  S   S213      1.0  0.02689  0.73963  0.65422  1.0000
  S   S214      1.0  0.99766  0.66103  0.64945  1.0000
  S   S215      1.0  0.00333  0.74474  0.59677  1.0000
  H   H939      1.0  0.30493  0.95031  0.56055  1.0000
  H   H940      1.0  0.01025  0.76214  0.55065  1.0000
  C   C797      1.0  0.13244  0.85738  0.49957  1.0000
  H   H941      1.0  0.10671  0.87490  0.64905  1.0000
  S   S216      1.0  0.00419  0.78374  0.49443  1.0000
  H   H942      1.0  0.00605  0.58300  0.64778  1.0000
  H   H943      1.0  0.03616  0.62591  0.65476  1.0000
  H   H944      1.0  0.13535  0.87505  0.50499  1.0000
  S   S217      1.0  0.22678  0.97731  0.64703  1.0000
  H   H945      1.0  0.07688  0.83997  0.49875  1.0000
  H   H946      1.0  0.15342  0.85751  0.49695  1.0000
  H   H947      1.0  0.99357  0.76467  0.57239  1.0000
  H   H948      1.0  0.13025  0.90866  0.49329  1.0000
  Fe  Fe111     1.0  0.18431  0.98182  0.52808  1.0000
  H   H949      1.0  0.16073  0.97991  0.57424  1.0000
  C   C798      1.0  0.01149  0.58510  0.65771  1.0000
  S   S218      1.0  0.27341  0.98543  0.62449  1.0000
  C   C799      1.0  0.19468  0.98453  0.58692  1.0000
  C   C800      1.0  0.00688  0.56640  0.67974  1.0000
  C   C801      1.0  0.38588  0.95807  0.69081  1.0000
  H   H950      1.0  0.42157  0.93831  0.70322  1.0000
  H   H951      1.0  0.33534  0.89802  0.68777  1.0000
  C   C802      1.0  0.37980  0.97064  0.67957  1.0000
  H   H952      1.0  0.02916  0.59568  0.69320  1.0000
  C   C803      1.0  0.02424  0.59145  0.68341  1.0000
  C   C804      1.0  0.35824  0.95736  0.67169  1.0000
  C   C805      1.0  0.36952  0.93133  0.69341  1.0000
  H   H953      1.0  0.02468  0.52602  0.68423  1.0000
  H   H954      1.0  0.32516  0.92143  0.66864  1.0000
  C   C806      1.0  0.34790  0.91830  0.68549  1.0000
  H   H955      1.0  0.00522  0.65441  0.69635  1.0000
  H   H956      1.0  0.43835  0.95983  0.68988  1.0000
  C   C807      1.0  0.00092  0.65845  0.67599  1.0000
  H   H957      1.0  0.99556  0.53161  0.70885  1.0000
  H   H958      1.0  0.37315  0.92036  0.70166  1.0000
  H   H959      1.0  0.02735  0.55496  0.70270  1.0000
  H   H960      1.0  0.01615  0.67797  0.67505  1.0000
  C   C808      1.0  0.34218  0.93136  0.67469  1.0000
  C   C809      1.0  0.03497  0.61243  0.67441  1.0000
  H   H961      1.0  0.04749  0.63157  0.67744  1.0000
  C   C810      1.0  0.02860  0.60928  0.66161  1.0000
  H   H962      1.0  0.44725  0.96942  0.70584  1.0000
  H   H963      1.0  0.38921  0.94911  0.71686  1.0000
  H   H964      1.0  0.35355  0.96745  0.66328  1.0000
  H   H965      1.0  0.99264  0.51356  0.67598  1.0000
  N   N53       1.0  0.40818  0.97159  0.69955  1.0000
  C   C811      1.0  0.00074  0.56394  0.66660  1.0000
  C   C812      1.0  0.00448  0.54915  0.70219  1.0000
  C   C813      1.0  0.39670  0.96952  0.71267  1.0000
  C   C814      1.0  0.99475  0.64495  0.68807  1.0000
  C   C815      1.0  0.98837  0.64620  0.66511  1.0000
  C   C816      1.0  0.42971  0.95918  0.69964  1.0000
  H   H966      1.0  0.99804  0.56492  0.70608  1.0000
  H   H967      1.0  0.37896  0.97683  0.71279  1.0000
  H   H968      1.0  0.28698  0.97428  0.68118  1.0000
  N   N54       1.0  0.99477  0.54378  0.68899  1.0000
  C   C817      1.0  0.00189  0.52092  0.68517  1.0000
  H   H969      1.0  0.99400  0.50396  0.69227  1.0000
  H   H970      1.0  0.98709  0.54576  0.66314  1.0000
  H   H971      1.0  0.41236  0.98125  0.71931  1.0000
  H   H972      1.0  0.30887  0.98608  0.70213  1.0000
  H   H973      1.0  0.99075  0.58817  0.98246  1.0000
  H   H974      1.0  0.42756  0.97730  0.87290  1.0000
  H   H975      1.0  0.00190  0.51771  0.91056  1.0000
  H   H976      1.0  0.40941  0.97820  0.85173  1.0000
  C   C818      1.0  0.40062  0.98620  0.85908  1.0000
  H   H977      1.0  0.33589  0.96272  0.84680  1.0000
  C   C819      1.0  0.33905  0.98353  0.84384  1.0000
  H   H978      1.0  0.98642  0.50709  0.92618  1.0000
  H   H979      1.0  0.98470  0.55648  0.91259  1.0000
  H   H980      1.0  0.37977  0.96924  0.83509  1.0000
  H   H981      1.0  0.32993  0.98392  0.83426  1.0000
  C   C820      1.0  0.41128  0.98547  0.87128  1.0000
  H   H982      1.0  0.41879  0.98068  0.99117  1.0000
  H   H983      1.0  0.94868  0.30787  0.02261  1.0000
  H   H984      1.0  0.57128  0.42281  0.99685  1.0000
  C   C821      1.0  0.52385  0.41555  0.01176  1.0000
  H   H985      1.0  0.88486  0.35474  0.99532  1.0000
  C   C822      1.0  0.62972  0.98702  0.00583  1.0000
  H   H986      1.0  0.63709  0.00821  0.00483  1.0000
  H   H987      1.0  0.93145  0.34564  0.00808  1.0000
  H   H988      1.0  0.58225  0.42950  0.01306  1.0000
  C   C823      1.0  0.58022  0.47868  0.01180  1.0000
  H   H989      1.0  0.91987  0.37173  0.01238  1.0000
  C   C824      1.0  0.96456  0.31367  0.00331  1.0000
  H   H990      1.0  0.58092  0.47233  0.02198  1.0000
  H   H991      1.0  0.95577  0.37793  0.00878  1.0000
  H   H992      1.0  0.53448  0.40243  0.00924  1.0000
  N   N55       1.0  0.56403  0.45633  0.00424  1.0000
  H   H993      1.0  0.55232  0.06242  0.99486  1.0000
  C   C825      1.0  0.49283  0.44637  0.01836  1.0000
  C   C826      1.0  0.96677  0.31677  0.01653  1.0000
  H   H994      1.0  0.52664  0.47935  0.01133  1.0000
  H   H995      1.0  0.77094  0.16731  0.99330  1.0000
  C   C827      1.0  0.93432  0.36673  0.00599  1.0000
  H   H996      1.0  0.97123  0.47950  0.02733  1.0000
  H   H997      1.0  0.68868  0.17284  0.99494  1.0000
  C   C828      1.0  0.53600  0.44329  0.00987  1.0000
  C   C829      1.0  0.58036  0.43856  0.00354  1.0000
  S   S219      1.0  0.93162  0.29558  0.99699  1.0000
  C   C830      1.0  0.51934  0.45828  0.01303  1.0000
  H   H998      1.0  0.60175  0.44912  0.99977  1.0000
  N   N56       1.0  0.92910  0.37203  0.99243  1.0000
  H   H999      1.0  0.97422  0.41602  0.99564  1.0000
  H   H1000     1.0  0.48844  0.38268  0.01848  1.0000
  H   H1001     1.0  0.70850  0.99935  0.02763  1.0000
  H   H1002     1.0  0.72400  0.00664  0.04981  1.0000
  C   C831      1.0  0.49721  0.40385  0.01700  1.0000
  H   H1003     1.0  0.48942  0.98881  0.01426  1.0000
  C   C832      1.0  0.70673  0.98927  0.04778  1.0000
  C   C833      1.0  0.95627  0.42024  0.99229  1.0000
  H   H1004     1.0  0.95948  0.46809  0.28048  1.0000
  H   H1005     1.0  0.50923  0.48007  0.26103  1.0000
  H   H1006     1.0  0.96093  0.48123  0.26455  1.0000
  C   C834      1.0  0.49263  0.47776  0.26775  1.0000
  C   C835      1.0  0.96781  0.48652  0.27435  1.0000
  H   H1007     1.0  0.95804  0.06951  0.36251  1.0000
  C   C836      1.0  0.88232  0.10602  0.44720  1.0000
  N   N57       1.0  0.83734  0.03393  0.45110  1.0000
  C   C837      1.0  0.82253  0.12736  0.42159  1.0000
  S   S220      1.0  0.82112  0.03925  0.36538  1.0000
  N   N58       1.0  0.78875  0.07046  0.40029  1.0000
  H   H1008     1.0  0.96052  0.17747  0.42481  1.0000
  C   C838      1.0  0.89269  0.08240  0.49125  1.0000
  C   C839      1.0  0.81385  0.03613  0.45854  1.0000
  C   C840      1.0  0.85766  0.06454  0.43160  1.0000
  H   H1009     1.0  0.84893  0.04940  0.42503  1.0000
  H   H1010     1.0  0.89859  0.12893  0.42986  1.0000
  Fe  Fe112     1.0  0.95414  0.16782  0.38386  1.0000
  S   S221      1.0  0.92081  0.12835  0.38991  1.0000
  S   S222      1.0  0.95563  0.20866  0.38817  1.0000
  H   H1011     1.0  0.78717  0.03093  0.39810  1.0000
  H   H1012     1.0  0.80329  0.07672  0.38058  1.0000
  C   C841      1.0  0.85091  0.06298  0.37157  1.0000
  C   C842      1.0  0.86322  0.05791  0.38279  1.0000
  C   C843      1.0  0.88501  0.07803  0.38807  1.0000
  C   C844      1.0  0.89542  0.10327  0.38200  1.0000
  C   C845      1.0  0.88410  0.10802  0.37044  1.0000
  C   C846      1.0  0.86185  0.08801  0.36531  1.0000
  H   H1013     1.0  0.85548  0.03863  0.38758  1.0000
  H   H1014     1.0  0.89368  0.07405  0.39698  1.0000
  H   H1015     1.0  0.89177  0.12734  0.36568  1.0000
  H   H1016     1.0  0.85269  0.09213  0.35656  1.0000
  H   H1017     1.0  0.79924  0.04189  0.45228  1.0000
  H   H1018     1.0  0.95172  0.05136  0.37786  1.0000
  C   C847      1.0  0.97967  0.11691  0.37143  1.0000
  C   C848      1.0  0.98165  0.21357  0.45614  1.0000
  C   C849      1.0  0.80328  0.10477  0.41694  1.0000
  S   S223      1.0  0.75050  0.99372  0.38074  1.0000
  C   C850      1.0  0.82566  0.01326  0.44192  1.0000
  C   C851      1.0  0.78456  0.07434  0.38644  1.0000
  H   H1019     1.0  0.84387  0.00507  0.46444  1.0000
  C   C852      1.0  0.86637  0.08145  0.45263  1.0000
  H   H1020     1.0  0.78473  0.09553  0.42262  1.0000
  H   H1021     1.0  0.86203  0.15800  0.41853  1.0000
  H   H1022     1.0  0.86298  0.03796  0.46774  1.0000
  C   C853      1.0  0.96640  0.18764  0.43349  1.0000
  S   S224      1.0  0.75352  0.99396  0.41783  1.0000
  H   H1023     1.0  0.95953  0.12030  0.37164  1.0000
  H   H1024     1.0  0.82113  0.05457  0.39759  1.0000
  H   H1025     1.0  0.80276  0.04475  0.41250  1.0000
  H   H1026     1.0  0.87223  0.14093  0.39852  1.0000
  H   H1027     1.0  0.81838  0.13479  0.43045  1.0000
  H   H1028     1.0  0.83965  0.10137  0.39032  1.0000
  H   H1029     1.0  0.94988  0.09378  0.39316  1.0000
  C   C854      1.0  0.76104  0.06137  0.40664  1.0000
  S   S225      1.0  0.97975  0.18202  0.36580  1.0000
  H   H1030     1.0  0.86430  0.07944  0.46291  1.0000
  H   H1031     1.0  0.76833  0.05706  0.38265  1.0000
  H   H1032     1.0  0.74659  0.04370  0.40226  1.0000
  H   H1033     1.0  0.93482  0.07439  0.37382  1.0000
  C   C855      1.0  0.95323  0.17609  0.44516  1.0000
  C   C856      1.0  0.88602  0.10989  0.43404  1.0000
  H   H1034     1.0  0.82062  0.05089  0.46586  1.0000
  C   C857      1.0  0.85285  0.13089  0.40364  1.0000
  H   H1035     1.0  0.87359  0.02359  0.45470  1.0000
  H   H1036     1.0  0.93708  0.15712  0.44539  1.0000
  C   C858      1.0  0.83386  0.10826  0.39895  1.0000
  C   C859      1.0  0.84717  0.14047  0.41491  1.0000
  C   C860      1.0  0.97105  0.09308  0.39191  1.0000
  C   C861      1.0  0.85521  0.02477  0.45983  1.0000
  H   H1037     1.0  0.87680  0.09248  0.41603  1.0000
  C   C862      1.0  0.80052  0.04930  0.40221  1.0000
  C   C863      1.0  0.85360  0.05988  0.44502  1.0000
  H   H1038     1.0  0.76191  0.05496  0.41681  1.0000
  H   H1039     1.0  0.77841  0.09187  0.38440  1.0000
  H   H1040     1.0  0.84218  0.00967  0.43630  1.0000
  N   N59       1.0  0.97800  0.09189  0.37832  1.0000
  H   H1041     1.0  0.89205  0.12210  0.45327  1.0000
  S   S226      1.0  0.94321  0.17451  0.47099  1.0000
  H   H1042     1.0  0.75143  0.07687  0.40598  1.0000
  C   C864      1.0  0.80823  0.09473  0.40532  1.0000
  C   C865      1.0  0.87369  0.08924  0.42627  1.0000
  C   C866      1.0  0.95476  0.07074  0.37288  1.0000
  H   H1043     1.0  0.80207  0.01730  0.46383  1.0000
  C   C867      1.0  0.75230  0.99001  0.44392  1.0000
  H   H1044     1.0  0.97207  0.07565  0.39764  1.0000
  Fe  Fe113     1.0  0.79469  0.99991  0.37503  1.0000
  H   H1045     1.0  0.81118  0.01832  0.43528  1.0000
  C   C868      1.0  0.96100  0.18887  0.45656  1.0000
  H   H1046     1.0  0.74913  0.00870  0.44326  1.0000
  Fe  Fe114     1.0  0.96663  0.17516  0.48941  1.0000
  H   H1047     1.0  0.88595  0.09469  0.48456  1.0000
  H   H1048     1.0  0.81346  0.99412  0.44687  1.0000
  S   S227      1.0  0.84019  0.04788  0.49047  1.0000
  S   S228      1.0  0.98166  0.25449  0.35570  1.0000
  H   H1049     1.0  0.97696  0.29285  0.33661  1.0000
  H   H1050     1.0  0.75033  0.98690  0.46451  1.0000
  H   H1051     1.0  0.93794  0.12652  0.53365  1.0000
  C   C869      1.0  0.85880  0.07986  0.52760  1.0000
  S   S229      1.0  0.86199  0.00392  0.63719  1.0000
  Fe  Fe115     1.0  0.95266  0.15506  0.63144  1.0000
  S   S230      1.0  0.95761  0.19411  0.62144  1.0000
  S   S231      1.0  0.90792  0.12809  0.63244  1.0000
  N   N60       1.0  0.86572  0.98963  0.54902  1.0000
  C   C870      1.0  0.89185  0.02599  0.56297  1.0000
  C   C871      1.0  0.87472  0.00703  0.53731  1.0000
  H   H1052     1.0  0.96057  0.19910  0.58364  1.0000
  S   S232      1.0  0.79236  0.00026  0.61888  1.0000
  H   H1053     1.0  0.82604  0.05094  0.51821  1.0000
  H   H1054     1.0  0.91507  0.10445  0.52335  1.0000
  C   C872      1.0  0.65836  0.99104  0.65135  1.0000
  H   H1055     1.0  0.87302  0.04602  0.59055  1.0000
  S   S233      1.0  0.94462  0.15348  0.50728  1.0000
  H   H1056     1.0  0.88666  0.13193  0.52136  1.0000
  C   C873      1.0  0.88338  0.04196  0.50410  1.0000
  C   C874      1.0  0.91037  0.05119  0.50875  1.0000
  C   C875      1.0  0.92836  0.07615  0.50474  1.0000
  C   C876      1.0  0.64871  0.01192  0.64946  1.0000
  S   S234      1.0  0.76900  0.99421  0.49704  1.0000
  C   C877      1.0  0.87135  0.03499  0.58211  1.0000
  H   H1057     1.0  0.91721  0.03922  0.51556  1.0000
  S   S235      1.0  0.98009  0.24588  0.64842  1.0000
  C   C878      1.0  0.91855  0.10917  0.53348  1.0000
  C   C879      1.0  0.83456  0.05809  0.52729  1.0000
  H   H1058     1.0  0.86242  0.02025  0.53598  1.0000
  H   H1059     1.0  0.87604  0.24743  0.65424  1.0000
  H   H1060     1.0  0.80209  0.02897  0.53828  1.0000
  Fe  Fe116     1.0  0.81512  0.00743  0.49790  1.0000
  C   C880      1.0  0.87608  0.03835  0.63448  1.0000
  C   C881      1.0  0.90291  0.05204  0.63852  1.0000
  C   C882      1.0  0.91365  0.07965  0.63737  1.0000
  C   C883      1.0  0.89740  0.09366  0.63230  1.0000
  C   C884      1.0  0.87086  0.07993  0.62802  1.0000
  C   C885      1.0  0.86035  0.05242  0.62899  1.0000
  H   H1061     1.0  0.91526  0.04131  0.64276  1.0000
  H   H1062     1.0  0.93407  0.09008  0.64078  1.0000
  H   H1063     1.0  0.92150  0.14232  0.55166  1.0000
  H   H1064     1.0  0.83986  0.04220  0.62571  1.0000
  Fe  Fe117     1.0  0.97552  0.13294  0.50739  1.0000
  H   H1065     1.0  0.86332  0.08311  0.55998  1.0000
  H   H1066     1.0  0.91297  0.05611  0.57567  1.0000
  H   H1067     1.0  0.90897  0.10940  0.55823  1.0000
  C   C886      1.0  0.88968  0.13595  0.53160  1.0000
  C   C887      1.0  0.82112  0.04570  0.53857  1.0000
  H   H1068     1.0  0.94047  0.19883  0.56211  1.0000
  H   H1069     1.0  0.87224  0.99553  0.52863  1.0000
  H   H1070     1.0  0.74517  0.00259  0.55891  1.0000
  S   S236      1.0  0.81612  0.99187  0.51787  1.0000
  H   H1071     1.0  0.62986  0.03667  0.65765  1.0000
  H   H1072     1.0  0.85822  0.09067  0.62406  1.0000
  H   H1073     1.0  0.78378  0.05328  0.64815  1.0000
  H   H1074     1.0  0.86850  0.08859  0.51855  1.0000
  H   H1075     1.0  0.84395  0.10811  0.65459  1.0000
  H   H1076     1.0  0.88631  0.12868  0.55696  1.0000
  H   H1077     1.0  0.72388  0.04978  0.65303  1.0000
  H   H1078     1.0  0.92250  0.09234  0.53853  1.0000
  C   C888      1.0  0.83210  0.05486  0.55022  1.0000
  C   C889      1.0  0.96002  0.19570  0.56320  1.0000
  C   C890      1.0  0.85619  0.07688  0.55064  1.0000
  H   H1079     1.0  0.82153  0.04503  0.55896  1.0000
  C   C891      1.0  0.87438  0.05788  0.49558  1.0000
  S   S237      1.0  0.73630  0.00845  0.64134  1.0000
  H   H1080     1.0  0.89217  0.17548  0.64172  1.0000
  H   H1081     1.0  0.82948  0.00998  0.58644  1.0000
  N   N61       1.0  0.89484  0.11438  0.53925  1.0000
  H   H1082     1.0  0.87104  0.13954  0.53519  1.0000
  S   S238      1.0  0.96046  0.08948  0.51194  1.0000
  H   H1083     1.0  0.90742  0.15473  0.53187  1.0000
  C   C892      1.0  0.84468  0.00013  0.56906  1.0000
  C   C893      1.0  0.87001  0.09038  0.53927  1.0000
  C   C894      1.0  0.90308  0.12392  0.55213  1.0000
  C   C895      1.0  0.80571  0.05415  0.64838  1.0000
  H   H1084     1.0  0.86953  0.02272  0.50720  1.0000
  H   H1085     1.0  0.80649  0.03617  0.64403  1.0000
  H   H1086     1.0  0.65136  0.02225  0.64019  1.0000
  Fe  Fe118     1.0  0.97592  0.18327  0.51858  1.0000
  C   C896      1.0  0.84687  0.01476  0.57979  1.0000
  S   S239      1.0  0.95948  0.19330  0.53706  1.0000
  H   H1087     1.0  0.81785  0.07122  0.64204  1.0000
  C   C897      1.0  0.97135  0.19581  0.57544  1.0000
  C   C898      1.0  0.89214  0.17989  0.65167  1.0000
  H   H1088     1.0  0.89686  0.01945  0.53735  1.0000
  H   H1089     1.0  0.90621  0.98677  0.55166  1.0000
  H   H1090     1.0  0.75692  0.98989  0.58068  1.0000
  C   C899      1.0  0.72773  0.01199  0.65738  1.0000
  C   C900      1.0  0.97408  0.19223  0.55234  1.0000
  H   H1091     1.0  0.91323  0.15336  0.65750  1.0000
  C   C901      1.0  0.86711  0.00538  0.56025  1.0000
  C   C902      1.0  0.89380  0.04063  0.57371  1.0000
  H   H1092     1.0  0.85847  0.07456  0.65465  1.0000
  S   S240      1.0  0.97740  0.17207  0.64849  1.0000
  C   C903      1.0  0.88053  0.19817  0.65550  1.0000
  H   H1093     1.0  0.91004  0.03063  0.55693  1.0000
  C   C904      1.0  0.91973  0.09136  0.49570  1.0000
  H   H1094     1.0  0.93384  0.11018  0.49215  1.0000
  H   H1095     1.0  0.87147  0.20728  0.64823  1.0000
  C   C905      1.0  0.75327  0.98674  0.56026  1.0000
  H   H1096     1.0  0.84852  0.04036  0.65793  1.0000
  S   S241      1.0  0.69684  0.04216  0.80655  1.0000
  S   S242      1.0  0.89970  0.32548  0.81437  1.0000
  H   H1097     1.0  0.69172  0.02262  0.78145  1.0000
  Fe  Fe119     1.0  0.89939  0.27847  0.74466  1.0000
  S   S243      1.0  0.87454  0.30366  0.73896  1.0000
  S   S244      1.0  0.89815  0.26146  0.76507  1.0000
  Fe  Fe120     1.0  0.91839  0.27696  0.71651  1.0000
  S   S245      1.0  0.89504  0.30317  0.70914  1.0000
  C   C906      1.0  0.83992  0.43663  0.72350  1.0000
  Fe  Fe121     1.0  0.91094  0.32675  0.72642  1.0000
  S   S246      1.0  0.92729  0.37036  0.73025  1.0000
  Fe  Fe122     1.0  0.86092  0.27808  0.72247  1.0000
  S   S247      1.0  0.81542  0.26277  0.71800  1.0000
  S   S248      1.0  0.93691  0.30234  0.73292  1.0000
  S   S249      1.0  0.88299  0.25094  0.72902  1.0000
  C   C907      1.0  0.87268  0.23056  0.68578  1.0000
  Fe  Fe123     1.0  0.69786  0.05820  0.70666  1.0000
  S   S250      1.0  0.69762  0.09243  0.69391  1.0000
  S   S251      1.0  0.70149  0.02137  0.69839  1.0000
  Fe  Fe124     1.0  0.69435  0.08636  0.73117  1.0000
  S   S252      1.0  0.69366  0.12207  0.71950  1.0000
  S   S253      1.0  0.69640  0.09782  0.75180  1.0000
  Fe  Fe125     1.0  0.66361  0.09372  0.70713  1.0000
  S   S254      1.0  0.62579  0.10218  0.69970  1.0000
  Fe  Fe126     1.0  0.72727  0.11689  0.70771  1.0000
  S   S255      1.0  0.76946  0.14527  0.70178  1.0000
  S   S256      1.0  0.66209  0.05813  0.71932  1.0000
  S   S257      1.0  0.72970  0.08265  0.71984  1.0000
  H   H1098     1.0  0.82830  0.22818  0.67298  1.0000
  C   C908      1.0  0.59069  0.08402  0.70363  1.0000
  C   C909      1.0  0.58248  0.05889  0.70965  1.0000
  C   C910      1.0  0.55418  0.04481  0.71210  1.0000
  C   C911      1.0  0.53392  0.05600  0.70891  1.0000
  C   C912      1.0  0.54224  0.08131  0.70314  1.0000
  C   C913      1.0  0.57040  0.09502  0.70033  1.0000
  H   H1099     1.0  0.59784  0.05021  0.71230  1.0000
  H   H1100     1.0  0.54793  0.02523  0.71656  1.0000
  H   H1101     1.0  0.52690  0.09010  0.70056  1.0000
  H   H1102     1.0  0.57650  0.11438  0.69561  1.0000
  C   C914      1.0  0.56615  0.43407  0.72578  1.0000
  C   C915      1.0  0.53932  0.42113  0.73084  1.0000
  C   C916      1.0  0.52394  0.39520  0.72784  1.0000
  C   C917      1.0  0.53490  0.38209  0.71940  1.0000
  C   C918      1.0  0.56174  0.39501  0.71434  1.0000
  C   C919      1.0  0.57740  0.42070  0.71761  1.0000
  H   H1103     1.0  0.53027  0.43132  0.73707  1.0000
  H   H1104     1.0  0.88204  0.42184  0.80734  1.0000
  H   H1105     1.0  0.57044  0.38513  0.70778  1.0000
  H   H1106     1.0  0.59788  0.43039  0.71354  1.0000
  C   C920      1.0  0.92066  0.39736  0.72257  1.0000
  C   C921      1.0  0.92706  0.42074  0.72894  1.0000
  C   C922      1.0  0.92261  0.44293  0.72323  1.0000
  C   C923      1.0  0.91237  0.44217  0.71091  1.0000
  C   C924      1.0  0.90603  0.41884  0.70448  1.0000
  C   C925      1.0  0.90988  0.39642  0.71033  1.0000
  H   H1107     1.0  0.93574  0.42177  0.73833  1.0000
  H   H1108     1.0  0.92766  0.46076  0.72827  1.0000
  H   H1109     1.0  0.89820  0.41808  0.69492  1.0000
  H   H1110     1.0  0.90500  0.37859  0.70530  1.0000
  C   C926      1.0  0.80239  0.22986  0.71385  1.0000
  C   C927      1.0  0.82036  0.21704  0.71033  1.0000
  C   C928      1.0  0.80986  0.19118  0.70655  1.0000
  C   C929      1.0  0.78131  0.17767  0.70660  1.0000
  C   C930      1.0  0.76321  0.19021  0.71036  1.0000
  C   C931      1.0  0.77376  0.21639  0.71386  1.0000
  H   H1111     1.0  0.84238  0.22724  0.71038  1.0000
  H   H1112     1.0  0.82389  0.18139  0.70380  1.0000
  H   H1113     1.0  0.74112  0.17995  0.71034  1.0000
  H   H1114     1.0  0.75973  0.22625  0.71655  1.0000
  C   C932      1.0  0.50345  0.15759  0.74398  1.0000
  C   C933      1.0  0.79418  0.41394  0.71654  1.0000
  C   C934      1.0  0.95606  0.22911  0.68601  1.0000
  C   C935      1.0  0.95046  0.25153  0.68943  1.0000
  H   H1115     1.0  0.67295  0.48098  0.77365  1.0000
  H   H1116     1.0  0.95347  0.21324  0.69309  1.0000
  N   N62       1.0  0.86861  0.22432  0.67220  1.0000
  H   H1117     1.0  0.75433  0.10403  0.74575  1.0000
  H   H1118     1.0  0.90338  0.46890  0.79908  1.0000
  C   C936      1.0  0.71250  0.01876  0.68260  1.0000
  C   C937      1.0  0.71510  0.03825  0.67296  1.0000
  H   H1119     1.0  0.57979  0.99774  0.67694  1.0000
  H   H1120     1.0  0.72637  0.44549  0.80096  1.0000
  H   H1121     1.0  0.71098  0.05582  0.67507  1.0000
  H   H1122     1.0  0.55624  0.18621  0.74943  1.0000
  C   C938      1.0  0.89865  0.30703  0.80084  1.0000
  H   H1123     1.0  0.48686  0.13993  0.74076  1.0000
  C   C939      1.0  0.89856  0.27956  0.77866  1.0000
  C   C940      1.0  0.89703  0.30478  0.77765  1.0000
  C   C941      1.0  0.89708  0.31841  0.78868  1.0000
  H   H1124     1.0  0.89599  0.31386  0.76835  1.0000
  H   H1125     1.0  0.89587  0.33787  0.78779  1.0000
  C   C942      1.0  0.69868  0.05808  0.79127  1.0000
  C   C943      1.0  0.70263  0.08483  0.78977  1.0000
  C   C944      1.0  0.70204  0.09655  0.77759  1.0000
  C   C945      1.0  0.69779  0.08178  0.76674  1.0000
  C   C946      1.0  0.69443  0.05514  0.76815  1.0000
  C   C947      1.0  0.69478  0.04334  0.78039  1.0000
  C   C948      1.0  0.49941  0.33948  0.80521  1.0000
  H   H1126     1.0  0.50488  0.39303  0.68801  1.0000
  H   H1127     1.0  0.69117  0.04357  0.75986  1.0000
  N   N63       1.0  0.78123  0.14448  0.74590  1.0000
  C   C949      1.0  0.81458  0.18974  0.74934  1.0000
  H   H1128     1.0  0.70564  0.09644  0.79800  1.0000
  H   H1129     1.0  0.84143  0.24168  0.79021  1.0000
  H   H1130     1.0  0.81441  0.13505  0.73741  1.0000
  H   H1131     1.0  0.84488  0.22749  0.75278  1.0000
  C   C950      1.0  0.78086  0.20042  0.79488  1.0000
  C   C951      1.0  0.76825  0.46131  0.79494  1.0000
  C   C952      1.0  0.76663  0.17368  0.79363  1.0000
  C   C953      1.0  0.92578  0.44566  0.78070  1.0000
  H   H1132     1.0  0.50325  0.38572  0.73171  1.0000
  H   H1133     1.0  0.78401  0.10928  0.75543  1.0000
  C   C954      1.0  0.77831  0.48360  0.77419  1.0000
  C   C955      1.0  0.77076  0.15511  0.80226  1.0000
  H   H1134     1.0  0.94982  0.28930  0.68259  1.0000
  H   H1135     1.0  0.70463  0.11717  0.77658  1.0000
  C   C956      1.0  0.53125  0.12059  0.74185  1.0000
  C   C957      1.0  0.57124  0.05695  0.81292  1.0000
  H   H1136     1.0  0.56624  0.19856  0.73334  1.0000
  H   H1137     1.0  0.55047  0.40829  0.79511  1.0000
  H   H1138     1.0  0.74417  0.13983  0.73530  1.0000
  C   C958      1.0  0.83393  0.34128  0.71992  1.0000
  C   C959      1.0  0.75012  0.47878  0.77238  1.0000
  C   C960      1.0  0.53049  0.06049  0.80266  1.0000
  C   C961      1.0  0.95385  0.27184  0.68014  1.0000
  H   H1139     1.0  0.62698  0.08029  0.81759  1.0000
  C   C962      1.0  0.63989  0.04418  0.68478  1.0000
  H   H1140     1.0  0.90358  0.40590  0.81511  1.0000
  H   H1141     1.0  0.48422  0.19056  0.81452  1.0000
  N   N64       1.0  0.61388  0.05917  0.80055  1.0000
  C   C963      1.0  0.81160  0.36946  0.70969  1.0000
  H   H1142     1.0  0.57400  0.16785  0.72126  1.0000
  H   H1143     1.0  0.83598  0.45547  0.72201  1.0000
  H   H1144     1.0  0.90126  0.24864  0.79172  1.0000
  H   H1145     1.0  0.53865  0.20529  0.74089  1.0000
  H   H1146     1.0  0.81689  0.19466  0.82158  1.0000
  C   C964      1.0  0.73006  0.46545  0.78195  1.0000
  H   H1147     1.0  0.92672  0.44544  0.76020  1.0000
  C   C965      1.0  0.75865  0.15386  0.74159  1.0000
  C   C966      1.0  0.95126  0.44559  0.81203  1.0000
  C   C967      1.0  0.81272  0.07944  0.66699  1.0000
  C   C968      1.0  0.88092  0.20475  0.66841  1.0000
  C   C969      1.0  0.63348  0.00731  0.67188  1.0000
  C   C970      1.0  0.80486  0.15739  0.76707  1.0000
  H   H1148     1.0  0.64111  0.05817  0.67652  1.0000
  H   H1149     1.0  0.93335  0.37710  0.78012  1.0000
  H   H1150     1.0  0.93018  0.39525  0.80052  1.0000
  H   H1151     1.0  0.78064  0.40197  0.70929  1.0000
  H   H1152     1.0  0.83649  0.32229  0.72110  1.0000
  H   H1153     1.0  0.77841  0.05903  0.68046  1.0000
  H   H1154     1.0  0.75510  0.11845  0.76056  1.0000
  H   H1155     1.0  0.79453  0.13829  0.77168  1.0000
  C   C971      1.0  0.80080  0.03117  0.66883  1.0000
  C   C972      1.0  0.76828  0.11799  0.75226  1.0000
  C   C973      1.0  0.73999  0.45638  0.79324  1.0000
  S   S258      1.0  0.51534  0.35039  0.71427  1.0000
  C   C974      1.0  0.83602  0.24378  0.81585  1.0000
  H   H1156     1.0  0.78342  0.12691  0.72817  1.0000
  H   H1157     1.0  0.49886  0.44402  0.71635  1.0000
  C   C975      1.0  0.89990  0.28170  0.80188  1.0000
  C   C976      1.0  0.80352  0.18988  0.81350  1.0000
  N   N65       1.0  0.81401  0.23785  0.80620  1.0000
  S   S259      1.0  0.93864  0.25257  0.70530  1.0000
  H   H1158     1.0  0.64605  0.05952  0.78732  1.0000
  S   S260      1.0  0.58371  0.46738  0.72931  1.0000
  C   C977      1.0  0.82383  0.17575  0.77439  1.0000
  N   N66       1.0  0.50126  0.36714  0.80268  1.0000
  C   C978      1.0  0.89985  0.26805  0.79084  1.0000
  C   C979      1.0  0.84707  0.38671  0.72520  1.0000
  H   H1159     1.0  0.74620  0.15613  0.74980  1.0000
  H   H1160     1.0  0.48605  0.32621  0.79833  1.0000
  H   H1161     1.0  0.89495  0.19541  0.68723  1.0000
  S   S261      1.0  0.90704  0.46988  0.70329  1.0000
  C   C980      1.0  0.78949  0.10002  0.68129  1.0000
  C   C981      1.0  0.96448  0.22677  0.67349  1.0000
  H   H1162     1.0  0.60989  0.00897  0.70245  1.0000
  C   C982      1.0  0.51917  0.17110  0.72247  1.0000
  H   H1163     1.0  0.90164  0.27290  0.81115  1.0000
  H   H1164     1.0  0.81181  0.19622  0.73968  1.0000
  H   H1165     1.0  0.80699  0.03174  0.67897  1.0000
  H   H1166     1.0  0.50837  0.18570  0.72257  1.0000
  C   C983      1.0  0.79681  0.14149  0.73458  1.0000
  C   C984      1.0  0.80002  0.16374  0.75418  1.0000
  C   C985      1.0  0.90159  0.42532  0.81263  1.0000
  H   H1167     1.0  0.86335  0.24538  0.68837  1.0000
  C   C986      1.0  0.69073  0.43994  0.77019  1.0000
  C   C987      1.0  0.57077  0.06325  0.78998  1.0000
  C   C988      1.0  0.81477  0.34494  0.71137  1.0000
  H   H1168     1.0  0.49413  0.17326  0.74427  1.0000
  C   C989      1.0  0.57767  0.13076  0.72602  1.0000
  C   C990      1.0  0.83348  0.20789  0.75676  1.0000
  C   C991      1.0  0.71796  0.99606  0.67957  1.0000
  C   C992      1.0  0.58532  0.05973  0.80105  1.0000
  S   S262      1.0  0.71986  0.47831  0.73849  1.0000
  H   H1169     1.0  0.96984  0.45779  0.80633  1.0000
  C   C993      1.0  0.79999  0.20938  0.80479  1.0000
  H   H1170     1.0  0.79686  0.37142  0.70276  1.0000
  H   H1171     1.0  0.50955  0.06073  0.80330  1.0000
  C   C994      1.0  0.54370  0.10160  0.74069  1.0000
  C   C995      1.0  0.85008  0.36211  0.72678  1.0000
  H   H1172     1.0  0.48708  0.20127  0.79809  1.0000
  H   H1173     1.0  0.92177  0.47708  0.81355  1.0000
  H   H1174     1.0  0.66124  0.04451  0.68671  1.0000
  C   C996      1.0  0.78912  0.16321  0.81217  1.0000
  C   C997      1.0  0.56514  0.14973  0.72694  1.0000
  C   C998      1.0  0.54374  0.06356  0.79085  1.0000
  H   H1175     1.0  0.68950  0.46430  0.79913  1.0000
  N   N67       1.0  0.82370  0.41685  0.71467  1.0000
  H   H1176     1.0  0.50835  0.37497  0.82257  1.0000
  H   H1177     1.0  0.48879  0.16948  0.80296  1.0000
  H   H1178     1.0  0.83959  0.27216  0.79498  1.0000
  C   C999      1.0  0.82741  0.39106  0.71668  1.0000
  H   H1179     1.0  0.86087  0.40207  0.73058  1.0000
  H   H1180     1.0  0.57612  0.09173  0.73174  1.0000
  H   H1181     1.0  0.75941  0.13441  0.80141  1.0000
  H   H1182     1.0  0.61202  0.04464  0.78174  1.0000
  H   H1183     1.0  0.58408  0.02402  0.68739  1.0000
  H   H1184     1.0  0.80925  0.47893  0.78692  1.0000
  C   C1000     1.0  0.61917  0.00127  0.69470  1.0000
  H   H1185     1.0  0.63257  0.05220  0.69304  1.0000
  H   H1186     1.0  0.85366  0.21475  0.77474  1.0000
  H   H1187     1.0  0.49069  0.33178  0.81488  1.0000
  H   H1188     1.0  0.59552  0.13441  0.71976  1.0000
  C   C1001     1.0  0.49172  0.39854  0.69443  1.0000
  C   C1002     1.0  0.59376  0.01754  0.67933  1.0000
  H   H1189     1.0  0.79101  0.43327  0.71579  1.0000
  H   H1190     1.0  0.53294  0.06620  0.78232  1.0000
  C   C1003     1.0  0.53486  0.39308  0.76471  1.0000
  C   C1004     1.0  0.79247  0.07757  0.67655  1.0000
  H   H1191     1.0  0.89494  0.23892  0.68799  1.0000
  C   C1005     1.0  0.83833  0.20081  0.76920  1.0000
  H   H1192     1.0  0.91422  0.16356  0.68018  1.0000
  H   H1193     1.0  0.76643  0.17297  0.73603  1.0000
  H   H1194     1.0  0.68263  0.43083  0.79506  1.0000
  H   H1195     1.0  0.80540  0.16002  0.72865  1.0000
  H   H1196     1.0  0.52023  0.33753  0.80469  1.0000
  C   C1006     1.0  0.92676  0.43202  0.79253  1.0000
  H   H1197     1.0  0.82761  0.17043  0.78412  1.0000
  C   C1007     1.0  0.63256  0.08149  0.80733  1.0000
  N   N68       1.0  0.52814  0.16541  0.73537  1.0000
  C   C1008     1.0  0.54422  0.05720  0.81367  1.0000
  H   H1198     1.0  0.85478  0.06188  0.67089  1.0000
  H   H1199     1.0  0.96591  0.28582  0.66066  1.0000
  H   H1200     1.0  0.77387  0.09821  0.68856  1.0000
  C   C1009     1.0  0.49925  0.36410  0.77888  1.0000
  H   H1201     1.0  0.90416  0.25629  0.66509  1.0000
  H   H1202     1.0  0.69359  0.42132  0.77359  1.0000
  S   S263      1.0  0.49843  0.03728  0.71157  1.0000
  C   C1010     1.0  0.82897  0.10507  0.66224  1.0000
  N   N69       1.0  0.70024  0.46011  0.77971  1.0000
  H   H1203     1.0  0.50458  0.15304  0.71851  1.0000
  C   C1011     1.0  0.54897  0.40574  0.77513  1.0000
  H   H1204     1.0  0.79185  0.14871  0.81905  1.0000
  C   C1012     1.0  0.51782  0.38250  0.81299  1.0000
  C   C1013     1.0  0.96294  0.26977  0.66769  1.0000
  C   C1014     1.0  0.54138  0.14518  0.73482  1.0000
  C   C1015     1.0  0.83842  0.21418  0.67005  1.0000
  C   C1016     1.0  0.82714  0.25111  0.79394  1.0000
  H   H1205     1.0  0.77543  0.45426  0.80360  1.0000
  H   H1206     1.0  0.77705  0.24741  0.80295  1.0000
  H   H1207     1.0  0.62712  0.08006  0.78232  1.0000
  H   H1208     1.0  0.58109  0.05470  0.82176  1.0000
  H   H1209     1.0  0.92397  0.46493  0.78007  1.0000
  H   H1210     1.0  0.80368  0.14210  0.68036  1.0000
  H   H1211     1.0  0.60006  0.01701  0.80248  1.0000
  C   C1017     1.0  0.54822  0.18990  0.73995  1.0000
  C   C1018     1.0  0.53842  0.39763  0.78750  1.0000
  H   H1212     1.0  0.77637  0.21405  0.78814  1.0000
  H   H1213     1.0  0.53387  0.05490  0.82286  1.0000
  C   C1019     1.0  0.92932  0.40688  0.79196  1.0000
  H   H1214     1.0  0.86552  0.35931  0.73318  1.0000
  H   H1215     1.0  0.63188  0.10057  0.80325  1.0000
  C   C1020     1.0  0.92734  0.43466  0.76911  1.0000
  H   H1216     1.0  0.75202  0.16732  0.78602  1.0000
  H   H1217     1.0  0.49887  0.36266  0.75844  1.0000
  C   C1021     1.0  0.89316  0.19147  0.67726  1.0000
  C   C1022     1.0  0.62505  0.06096  0.78739  1.0000
  H   H1218     1.0  0.63981  0.00176  0.69818  1.0000
  H   H1219     1.0  0.81956  0.41493  0.69425  1.0000
  H   H1220     1.0  0.86306  0.21299  0.69227  1.0000
  H   H1221     1.0  0.80305  0.27069  0.81178  1.0000
  C   C1023     1.0  0.51310  0.37645  0.78975  1.0000
  C   C1024     1.0  0.69538  0.48422  0.77470  1.0000
  H   H1222     1.0  0.80251  0.32864  0.70597  1.0000
  C   C1025     1.0  0.68265  0.45042  0.79138  1.0000
  N   N70       1.0  0.62170  0.01715  0.68253  1.0000
  H   H1223     1.0  0.51312  0.11508  0.74799  1.0000
  H   H1224     1.0  0.66060  0.44795  0.78960  1.0000
  C   C1026     1.0  0.48880  0.42767  0.71053  1.0000
  H   H1225     1.0  0.48621  0.34870  0.68768  1.0000
  H   H1226     1.0  0.81196  0.25106  0.78645  1.0000
  C   C1027     1.0  0.88120  0.24929  0.66447  1.0000
  H   H1227     1.0  0.85193  0.23491  0.81366  1.0000
  H   H1228     1.0  0.53665  0.17920  0.71555  1.0000
  H   H1229     1.0  0.53890  0.38114  0.81329  1.0000
  H   H1230     1.0  0.95174  0.45500  0.82123  1.0000
  H   H1231     1.0  0.56818  0.42204  0.77356  1.0000
  H   H1232     1.0  0.52638  0.43055  0.70078  1.0000
  C   C1028     1.0  0.93103  0.39619  0.78032  1.0000
  H   H1233     1.0  0.54321  0.39938  0.75517  1.0000
  H   H1234     1.0  0.50858  0.15335  0.75394  1.0000
  S   S264      1.0  0.71271  0.10752  0.82449  1.0000
  C   C1029     1.0  0.72245  0.03477  0.66043  1.0000
  C   C1030     1.0  0.56684  0.10667  0.73280  1.0000
  C   C1031     1.0  0.50427  0.42014  0.70167  1.0000
  C   C1032     1.0  0.96813  0.24717  0.66423  1.0000
  H   H1235     1.0  0.95358  0.42629  0.81443  1.0000
  H   H1236     1.0  0.84700  0.26530  0.81632  1.0000
  C   C1033     1.0  0.90407  0.16735  0.66056  1.0000
  H   H1237     1.0  0.53491  0.08259  0.74572  1.0000
  C   C1034     1.0  0.79330  0.24942  0.81016  1.0000
  H   H1238     1.0  0.65441  0.08216  0.80689  1.0000
  C   C1035     1.0  0.92997  0.40999  0.76893  1.0000
  H   H1239     1.0  0.51964  0.40351  0.81196  1.0000
  H   H1240     1.0  0.83466  0.42975  0.73362  1.0000
  H   H1241     1.0  0.87415  0.26515  0.66776  1.0000
  C   C1036     1.0  0.80624  0.12484  0.67664  1.0000
  N   N71       1.0  0.81610  0.05611  0.66155  1.0000
  H   H1242     1.0  0.93130  0.40152  0.75994  1.0000
  H   H1243     1.0  0.76012  0.46943  0.82177  1.0000
  H   H1244     1.0  0.60975  0.03275  0.81721  1.0000
  H   H1245     1.0  0.86254  0.44161  0.72195  1.0000
  C   C1037     1.0  0.51000  0.37236  0.76658  1.0000
  H   H1246     1.0  0.82833  0.19535  0.67570  1.0000
  H   H1247     1.0  0.78273  0.23962  0.81926  1.0000
  C   C1038     1.0  0.63640  0.01997  0.65953  1.0000
  H   H1248     1.0  0.78635  0.40452  0.72609  1.0000
  H   H1249     1.0  0.66849  0.43555  0.76797  1.0000
  C   C1039     1.0  0.78737  0.47510  0.78550  1.0000
  H   H1250     1.0  0.70238  0.44637  0.76100  1.0000
  Fe  Fe127     1.0  0.70024  0.06377  0.82474  1.0000
  C   C1040     1.0  0.84569  0.05841  0.66128  1.0000
  N   N72       1.0  0.92556  0.44306  0.80501  1.0000
  C   C1041     1.0  0.83250  0.42744  0.70150  1.0000
  C   C1042     1.0  0.61481  0.03440  0.80687  1.0000
  H   H1251     1.0  0.63585  0.03292  0.80617  1.0000
  H   H1252     1.0  0.57976  0.06587  0.78053  1.0000
  H   H1253     1.0  0.89930  0.43373  0.82183  1.0000
  H   H1254     1.0  0.85426  0.42891  0.69959  1.0000
  H   H1255     1.0  0.83153  0.44751  0.69975  1.0000
  H   H1256     1.0  0.83858  0.14668  0.66339  1.0000
  H   H1257     1.0  0.59418  0.03144  0.67115  1.0000
  C   C1043     1.0  0.72567  0.99272  0.66707  1.0000
  C   C1044     1.0  0.92270  0.46939  0.80399  1.0000
  H   H1258     1.0  0.77817  0.02676  0.66845  1.0000
  C   C1045     1.0  0.90448  0.17304  0.67332  1.0000
  C   C1046     1.0  0.82588  0.12736  0.66712  1.0000
  H   H1259     1.0  0.80442  0.01407  0.66478  1.0000
  H   H1260     1.0  0.96814  0.20916  0.67105  1.0000
  H   H1261     1.0  0.77540  0.48023  0.74426  1.0000
  H   H1262     1.0  0.94065  0.48409  0.79882  1.0000
  H   H1263     1.0  0.83350  0.21058  0.65988  1.0000
  H   H1264     1.0  0.74421  0.48529  0.76331  1.0000
  S   S265      1.0  0.61056  0.43040  0.97447  1.0000
  C   C1047     1.0  0.77207  0.45033  0.85184  1.0000
  H   H1265     1.0  0.91693  0.40324  0.91249  1.0000
  Fe  Fe128     1.0  0.64385  0.07277  0.96146  1.0000
  S   S266      1.0  0.64703  0.03680  0.95311  1.0000
  S   S267      1.0  0.60948  0.08752  0.95564  1.0000
  Fe  Fe129     1.0  0.70137  0.08817  0.97275  1.0000
  S   S268      1.0  0.70883  0.05290  0.96547  1.0000
  S   S269      1.0  0.73118  0.12090  0.98371  1.0000
  Fe  Fe130     1.0  0.69020  0.06209  0.94713  1.0000
  S   S270      1.0  0.71188  0.07202  0.92765  1.0000
  Fe  Fe131     1.0  0.66480  0.03023  0.97220  1.0000
  S   S271      1.0  0.68556  0.09847  0.95426  1.0000
  Fe  Fe132     1.0  0.86359  0.25281  0.96190  1.0000
  S   S272      1.0  0.90825  0.25599  0.96398  1.0000
  S   S273      1.0  0.83031  0.21449  0.95644  1.0000
  Fe  Fe133     1.0  0.88007  0.31319  0.95946  1.0000
  S   S274      1.0  0.92541  0.32028  0.96090  1.0000
  S   S275      1.0  0.86142  0.34510  0.95668  1.0000
  Fe  Fe134     1.0  0.91670  0.28688  0.94789  1.0000
  S   S276      1.0  0.94521  0.28724  0.93148  1.0000
  Fe  Fe135     1.0  0.91311  0.28925  0.97694  1.0000
  S   S277      1.0  0.87249  0.28249  0.94522  1.0000
  S   S278      1.0  0.85706  0.47276  0.83495  1.0000
  H   H1266     1.0  0.65691  0.08778  0.90190  1.0000
  Fe  Fe136     1.0  0.68980  0.05813  0.85419  1.0000
  S   S279      1.0  0.70147  0.10140  0.85553  1.0000
  S   S280      1.0  0.67479  0.03252  0.87239  1.0000
  H   H1267     1.0  0.60864  0.05511  0.93538  1.0000
  S   S281      1.0  0.52448  0.04922  0.85170  1.0000
  Fe  Fe137     1.0  0.73600  0.10370  0.84208  1.0000
  S   S282      1.0  0.77992  0.12753  0.84606  1.0000
  Fe  Fe138     1.0  0.67657  0.09972  0.83794  1.0000
  H   H1268     1.0  0.94865  0.37326  0.97424  1.0000
  S   S283      1.0  0.72599  0.06027  0.84164  1.0000
  S   S284      1.0  0.66269  0.05602  0.83717  1.0000
  C   C1048     1.0  0.54485  0.40894  0.89685  1.0000
  C   C1049     1.0  0.75585  0.46019  0.83123  1.0000
  S   S285      1.0  0.84958  0.31376  0.84127  1.0000
  Fe  Fe139     1.0  0.89464  0.28235  0.86068  1.0000
  S   S286      1.0  0.85566  0.28506  0.86875  1.0000
  S   S287      1.0  0.92052  0.26508  0.87310  1.0000
  Fe  Fe140     1.0  0.83814  0.27285  0.84971  1.0000
  S   S288      1.0  0.79434  0.24720  0.84689  1.0000
  Fe  Fe141     1.0  0.87111  0.32553  0.85954  1.0000
  S   S289      1.0  0.86670  0.35781  0.87075  1.0000
  S   S290      1.0  0.87574  0.26614  0.84214  1.0000
  S   S291      1.0  0.91141  0.32388  0.85247  1.0000
  C   C1050     1.0  0.55177  0.01350  0.95863  1.0000
  C   C1051     1.0  0.88585  0.38858  0.86380  1.0000
  C   C1052     1.0  0.90208  0.39095  0.85284  1.0000
  C   C1053     1.0  0.91584  0.41576  0.84693  1.0000
  C   C1054     1.0  0.91268  0.43806  0.85177  1.0000
  C   C1055     1.0  0.89687  0.43560  0.86286  1.0000
  C   C1056     1.0  0.88360  0.41095  0.86891  1.0000
  H   H1269     1.0  0.90374  0.37371  0.84878  1.0000
  H   H1270     1.0  0.90620  0.35313  0.88857  1.0000
  H   H1271     1.0  0.89512  0.45272  0.86691  1.0000
  H   H1272     1.0  0.87113  0.40921  0.87740  1.0000
  C   C1057     1.0  0.78364  0.16062  0.84677  1.0000
  C   C1058     1.0  0.76152  0.16908  0.84376  1.0000
  C   C1059     1.0  0.76484  0.19572  0.84399  1.0000
  C   C1060     1.0  0.79023  0.21387  0.84728  1.0000
  C   C1061     1.0  0.81226  0.20537  0.85046  1.0000
  C   C1062     1.0  0.80898  0.17872  0.85018  1.0000
  H   H1273     1.0  0.74190  0.15518  0.84112  1.0000
  H   H1274     1.0  0.74776  0.20226  0.84153  1.0000
  H   H1275     1.0  0.83184  0.21928  0.85313  1.0000
  S   S292      1.0  0.49072  0.08731  0.82782  1.0000
  C   C1063     1.0  0.61216  0.10143  0.84040  1.0000
  C   C1064     1.0  0.60666  0.07603  0.84568  1.0000
  C   C1065     1.0  0.94348  0.34549  0.89048  1.0000
  C   C1066     1.0  0.55789  0.06960  0.84721  1.0000
  C   C1067     1.0  0.56321  0.09520  0.84213  1.0000
  C   C1068     1.0  0.59035  0.11105  0.83863  1.0000
  H   H1276     1.0  0.59092  0.48029  0.90910  1.0000
  C   C1069     1.0  0.96254  0.34657  0.91145  1.0000
  H   H1277     1.0  0.54648  0.10282  0.84087  1.0000
  S   S293      1.0  0.48695  0.29878  0.86300  1.0000
  C   C1070     1.0  0.57055  0.42100  0.84683  1.0000
  H   H1278     1.0  0.77636  0.07292  0.90634  1.0000
  C   C1071     1.0  0.57629  0.38626  0.83478  1.0000
  C   C1072     1.0  0.55154  0.36859  0.84004  1.0000
  S   S294      1.0  0.50100  0.15977  0.83396  1.0000
  H   H1279     1.0  0.81888  0.22186  0.87892  1.0000
  H   H1280     1.0  0.75725  0.08694  0.86600  1.0000
  H   H1281     1.0  0.50194  0.14027  0.89472  1.0000
  H   H1282     1.0  0.80879  0.10448  0.86475  1.0000
  C   C1073     1.0  0.67228  0.02771  0.89863  1.0000
  C   C1074     1.0  0.88249  0.37837  0.95497  1.0000
  C   C1075     1.0  0.87006  0.39766  0.95471  1.0000
  C   C1076     1.0  0.88622  0.42437  0.95331  1.0000
  C   C1077     1.0  0.91494  0.43190  0.95205  1.0000
  C   C1078     1.0  0.92739  0.41262  0.95221  1.0000
  C   C1079     1.0  0.91122  0.38591  0.95374  1.0000
  C   C1080     1.0  0.74406  0.31987  0.84210  1.0000
  H   H1283     1.0  0.87643  0.43911  0.95320  1.0000
  H   H1284     1.0  0.94963  0.41840  0.95128  1.0000
  H   H1285     1.0  0.92097  0.37122  0.95381  1.0000
  C   C1081     1.0  0.93670  0.28164  0.91531  1.0000
  C   C1082     1.0  0.95447  0.27352  0.90790  1.0000
  C   C1083     1.0  0.94907  0.26861  0.89507  1.0000
  C   C1084     1.0  0.92623  0.27246  0.88927  1.0000
  C   C1085     1.0  0.90838  0.28092  0.89657  1.0000
  C   C1086     1.0  0.91355  0.28539  0.90961  1.0000
  C   C1087     1.0  0.64055  0.09071  0.87917  1.0000
  H   H1286     1.0  0.82743  0.23681  0.82560  1.0000
  H   H1287     1.0  0.89057  0.28382  0.89222  1.0000
  H   H1288     1.0  0.89988  0.29198  0.91520  1.0000
  C   C1088     1.0  0.75883  0.14677  0.97610  1.0000
  C   C1089     1.0  0.80292  0.18891  0.96442  1.0000
  C   C1090     1.0  0.79707  0.18854  0.97742  1.0000
  C   C1091     1.0  0.77514  0.16754  0.98322  1.0000
  C   C1092     1.0  0.49808  0.99766  0.96865  1.0000
  C   C1093     1.0  0.71234  0.17430  0.95898  1.0000
  C   C1094     1.0  0.69845  0.06142  0.91260  1.0000
  H   H1289     1.0  0.63380  0.16344  0.97189  1.0000
  H   H1290     1.0  0.59220  0.99043  0.95979  1.0000
  C   C1095     1.0  0.68336  0.04434  0.88781  1.0000
  C   C1096     1.0  0.70116  0.06989  0.88950  1.0000
  C   C1097     1.0  0.70871  0.07827  0.90180  1.0000
  H   H1291     1.0  0.97249  0.27075  0.91215  1.0000
  C   C1098     1.0  0.76480  0.48133  0.88668  1.0000
  H   H1292     1.0  0.70956  0.08314  0.88135  1.0000
  H   H1293     1.0  0.72269  0.09797  0.90293  1.0000
  C   C1099     1.0  0.52965  0.07021  0.97884  1.0000
  C   C1100     1.0  0.55322  0.06802  0.98481  1.0000
  C   C1101     1.0  0.57799  0.07324  0.97781  1.0000
  C   C1102     1.0  0.57916  0.08072  0.96485  1.0000
  C   C1103     1.0  0.55577  0.08330  0.95897  1.0000
  C   C1104     1.0  0.53101  0.07777  0.96590  1.0000
  C   C1105     1.0  0.58712  0.44798  0.88210  1.0000
  H   H1294     1.0  0.59621  0.07193  0.98247  1.0000
  H   H1295     1.0  0.55663  0.08923  0.94896  1.0000
  H   H1296     1.0  0.51300  0.07940  0.96120  1.0000
  C   C1106     1.0  0.57576  0.41434  0.97055  1.0000
  C   C1107     1.0  0.56209  0.38831  0.97510  1.0000
  C   C1108     1.0  0.53388  0.37569  0.97266  1.0000
  C   C1109     1.0  0.51931  0.38920  0.96572  1.0000
  C   C1110     1.0  0.53304  0.41506  0.96110  1.0000
  C   C1111     1.0  0.56120  0.42746  0.96338  1.0000
  C   C1112     1.0  0.68396  0.16330  0.96270  1.0000
  H   H1297     1.0  0.52339  0.35569  0.97624  1.0000
  H   H1298     1.0  0.52189  0.42554  0.95566  1.0000
  H   H1299     1.0  0.57154  0.44715  0.95955  1.0000
  S   S295      1.0  0.65867  0.06497  0.98081  1.0000
  N   N73       1.0  0.86999  0.20591  0.92191  1.0000
  C   C1113     1.0  0.89806  0.20470  0.91984  1.0000
  C   C1114     1.0  0.87286  0.22776  0.93023  1.0000
  C   C1115     1.0  0.85303  0.18105  0.92881  1.0000
  C   C1116     1.0  0.85629  0.21001  0.90999  1.0000
  C   C1117     1.0  0.86968  0.21450  0.89784  1.0000
  C   C1118     1.0  0.82872  0.21007  0.91035  1.0000
  C   C1119     1.0  0.85612  0.21851  0.88681  1.0000
  C   C1120     1.0  0.81540  0.21416  0.89926  1.0000
  C   C1121     1.0  0.82907  0.21834  0.88751  1.0000
  H   H1300     1.0  0.91242  0.22348  0.91540  1.0000
  H   H1301     1.0  0.90769  0.20154  0.92899  1.0000
  H   H1302     1.0  0.89750  0.18845  0.91373  1.0000
  H   H1303     1.0  0.88667  0.24663  0.92585  1.0000
  H   H1304     1.0  0.88168  0.22476  0.93962  1.0000
  H   H1305     1.0  0.85280  0.23028  0.93221  1.0000
  H   H1306     1.0  0.84843  0.16420  0.92260  1.0000
  H   H1307     1.0  0.86362  0.17664  0.93743  1.0000
  H   H1308     1.0  0.83313  0.18191  0.93247  1.0000
  H   H1309     1.0  0.89087  0.21562  0.89655  1.0000
  H   H1310     1.0  0.81748  0.20744  0.91929  1.0000
  H   H1311     1.0  0.86696  0.22238  0.87768  1.0000
  H   H1312     1.0  0.79451  0.21451  0.89979  1.0000
  H   H1313     1.0  0.74044  0.42974  0.86579  1.0000
  H   H1314     1.0  0.80319  0.05687  0.89273  1.0000
  H   H1315     1.0  0.97798  0.34354  0.91776  1.0000
  H   H1316     1.0  0.93893  0.47353  0.98318  1.0000
  Fe  Fe142     1.0  0.62954  0.47411  0.96984  1.0000
  C   C1122     1.0  0.70140  0.16477  0.93699  1.0000
  H   H1317     1.0  0.48921  0.01922  0.95244  1.0000
  H   H1318     1.0  0.78747  0.03852  0.87938  1.0000
  C   C1123     1.0  0.76457  0.14728  0.96308  1.0000
  H   H1319     1.0  0.84783  0.39195  0.95569  1.0000
  C   C1124     1.0  0.81123  0.38991  0.86110  1.0000
  N   N74       1.0  0.67425  0.16143  0.97609  1.0000
  C   C1125     1.0  0.78648  0.16820  0.95730  1.0000
  H   H1320     1.0  0.75218  0.13149  0.95748  1.0000
  S   S296      1.0  0.86740  0.28361  0.97604  1.0000
  H   H1321     1.0  0.59863  0.02819  0.97276  1.0000
  H   H1322     1.0  0.79071  0.16825  0.94725  1.0000
  H   H1323     1.0  0.56640  0.03870  0.92271  1.0000
  Fe  Fe143     1.0  0.49546  0.31580  0.84291  1.0000
  S   S297      1.0  0.53791  0.33675  0.83461  1.0000
  H   H1324     1.0  0.65836  0.00795  0.89746  1.0000
  C   C1126     1.0  0.66480  0.15319  0.95295  1.0000
  H   H1325     1.0  0.98047  0.33702  0.89478  1.0000
  C   C1127     1.0  0.95907  0.44653  0.98973  1.0000
  H   H1326     1.0  0.65760  0.08286  0.88082  1.0000
  N   N75       1.0  0.80575  0.38181  0.84784  1.0000
  H   H1327     1.0  0.58071  0.02384  0.98776  1.0000
  H   H1328     1.0  0.87448  0.32137  0.92048  1.0000
  H   H1329     1.0  0.88348  0.37819  0.89701  1.0000
  H   H1330     1.0  0.65493  0.13097  0.99060  1.0000
  C   C1128     1.0  0.51815  0.98998  0.97504  1.0000
  C   C1129     1.0  0.53692  0.37697  0.84906  1.0000
  C   C1130     1.0  0.52377  0.38949  0.90376  1.0000
  C   C1131     1.0  0.48567  0.17802  0.84256  1.0000
  C   C1132     1.0  0.83238  0.38455  0.84147  1.0000
  H   H1331     1.0  0.79048  0.39614  0.83091  1.0000
  C   C1133     1.0  0.78708  0.35414  0.84792  1.0000
  H   H1332     1.0  0.94787  0.34598  0.98476  1.0000
  C   C1134     1.0  0.94052  0.35276  0.91643  1.0000
  H   H1333     1.0  0.51848  0.36328  0.85359  1.0000
  H   H1334     1.0  0.80956  0.20428  0.98302  1.0000
  S   S298      1.0  0.64610  0.12099  0.83589  1.0000
  Fe  Fe144     1.0  0.67885  0.46918  0.83705  1.0000
  C   C1135     1.0  0.74478  0.43819  0.85615  1.0000
  C   C1136     1.0  0.58648  0.47564  0.89898  1.0000
  S   S299      1.0  0.79934  0.45190  0.86197  1.0000
  H   H1335     1.0  0.82611  0.17217  0.85252  1.0000
  H   H1336     1.0  0.64298  0.14383  0.95508  1.0000
  H   H1337     1.0  0.57546  0.04016  0.85278  1.0000
  C   C1137     1.0  0.54315  0.40799  0.92342  1.0000
  C   C1138     1.0  0.57959  0.05997  0.84886  1.0000
  H   H1338     1.0  0.70811  0.16484  0.92723  1.0000
  H   H1339     1.0  0.84709  0.40512  0.84134  1.0000
  S   S300      1.0  0.64676  0.48191  0.82728  1.0000
  H   H1340     1.0  0.56556  0.47639  0.89691  1.0000
  H   H1341     1.0  0.89395  0.43884  0.98026  1.0000
  C   C1139     1.0  0.58594  0.41242  0.83826  1.0000
  H   H1342     1.0  0.67168  0.02299  0.91923  1.0000
  C   C1140     1.0  0.56425  0.42758  0.91661  1.0000
  C   C1141     1.0  0.79443  0.40050  0.84108  1.0000
  C   C1142     1.0  0.65290  0.17397  0.97703  1.0000
  H   H1343     1.0  0.78546  0.29248  0.85812  1.0000
  H   H1344     1.0  0.96292  0.26204  0.88954  1.0000
  C   C1143     1.0  0.77882  0.09184  0.90174  1.0000
  C   C1144     1.0  0.67967  0.03623  0.91099  1.0000
  N   N76       1.0  0.58823  0.44980  0.89614  1.0000
  H   H1345     1.0  0.50653  0.37393  0.92233  1.0000
  H   H1346     1.0  0.61971  0.45357  0.91034  1.0000
  N   N77       1.0  0.61373  0.07211  0.88430  1.0000
  C   C1145     1.0  0.78534  0.05271  0.88622  1.0000
  C   C1146     1.0  0.72076  0.17502  0.94629  1.0000
  H   H1347     1.0  0.56853  0.04594  0.89959  1.0000
  H   H1348     1.0  0.76188  0.05632  0.86383  1.0000
  S   S301      1.0  0.92668  0.46862  0.84349  1.0000
  H   H1349     1.0  0.84311  0.37229  0.84638  1.0000
  C   C1147     1.0  0.77956  0.13598  0.90467  1.0000
  H   H1350     1.0  0.79173  0.38820  0.86623  1.0000
  H   H1351     1.0  0.49864  0.18426  0.89355  1.0000
  H   H1352     1.0  0.57072  0.06738  0.88060  1.0000
  C   C1148     1.0  0.56579  0.42866  0.90310  1.0000
  S   S302      1.0  0.58122  0.45391  0.85072  1.0000
  H   H1353     1.0  0.74063  0.05918  0.87666  1.0000
  H   H1354     1.0  0.64588  0.11012  0.88339  1.0000
  H   H1355     1.0  0.48883  0.24105  0.84556  1.0000
  C   C1149     1.0  0.76002  0.06967  0.87117  1.0000
  C   C1150     1.0  0.77762  0.46130  0.83938  1.0000
  C   C1151     1.0  0.58597  0.04959  0.91800  1.0000
  H   H1356     1.0  0.81478  0.33827  0.85856  1.0000
  H   H1357     1.0  0.82142  0.37799  0.86668  1.0000
  H   H1358     1.0  0.58900  0.42929  0.87913  1.0000
  H   H1359     1.0  0.72407  0.31429  0.83762  1.0000
  H   H1360     1.0  0.61689  0.42916  0.89901  1.0000
  Fe  Fe145     1.0  0.49309  0.06802  0.84692  1.0000
  H   H1361     1.0  0.80902  0.42105  0.84120  1.0000
  H   H1362     1.0  0.81298  0.07348  0.86539  1.0000
  C   C1152     1.0  0.90638  0.38742  0.91980  1.0000
  H   H1363     1.0  0.79866  0.47084  0.83602  1.0000
  C   C1153     1.0  0.61270  0.06842  0.89835  1.0000
  H   H1364     1.0  0.59457  0.08948  0.86969  1.0000
  H   H1365     1.0  0.75242  0.36024  0.83758  1.0000
  C   C1154     1.0  0.80970  0.08832  0.87148  1.0000
  C   C1155     1.0  0.72298  0.43751  0.84805  1.0000
  C   C1156     1.0  0.91912  0.35539  0.90854  1.0000
  H   H1366     1.0  0.49779  0.15936  0.93561  1.0000
  H   H1367     1.0  0.90113  0.33226  0.99095  1.0000
  S   S303      1.0  0.70160  0.44913  0.82576  1.0000
  N   N78       1.0  0.78428  0.07714  0.87956  1.0000
  H   H1368     1.0  0.92152  0.38790  0.92739  1.0000
  H   H1369     1.0  0.82918  0.37846  0.83150  1.0000
  H   H1370     1.0  0.55144  0.48167  0.99098  1.0000
  H   H1371     1.0  0.76593  0.04224  0.89179  1.0000
  H   H1372     1.0  0.77413  0.10659  0.91990  1.0000
  H   H1373     1.0  0.94010  0.35483  0.92657  1.0000
  C   C1157     1.0  0.78221  0.09689  0.88832  1.0000
  C   C1158     1.0  0.72857  0.44828  0.83556  1.0000
  C   C1159     1.0  0.53150  0.02091  0.95231  1.0000
  S   S304      1.0  0.65615  0.45758  0.85579  1.0000
  H   H1374     1.0  0.62326  0.06889  0.84765  1.0000
  C   C1160     1.0  0.60921  0.04634  0.87893  1.0000
  H   H1375     1.0  0.67727  0.12334  0.97962  1.0000
  Fe  Fe146     1.0  0.83748  0.48032  0.85258  1.0000
  S   S305      1.0  0.48825  0.09987  0.85832  1.0000
  C   C1161     1.0  0.50471  0.01300  0.95730  1.0000
  H   H1376     1.0  0.88947  0.39252  0.92434  1.0000
  Fe  Fe147     1.0  0.88848  0.30816  0.83464  1.0000
  H   H1377     1.0  0.77173  0.46462  0.88962  1.0000
  C   C1162     1.0  0.58927  0.01377  0.98081  1.0000
  H   H1378     1.0  0.77815  0.15073  0.91090  1.0000
  C   C1163     1.0  0.78357  0.12222  0.88349  1.0000
  C   C1164     1.0  0.75304  0.30054  0.84779  1.0000
  H   H1379     1.0  0.59443  0.13077  0.83459  1.0000
  C   C1165     1.0  0.87462  0.36262  0.90468  1.0000
  H   H1380     1.0  0.60493  0.42605  0.83409  1.0000
  H   H1381     1.0  0.74029  0.28001  0.84765  1.0000
  H   H1382     1.0  0.58798  0.03229  0.88095  1.0000
  C   C1166     1.0  0.69662  0.17425  0.98500  1.0000
  C   C1167     1.0  0.76071  0.34633  0.84213  1.0000
  C   C1168     1.0  0.77763  0.11121  0.90974  1.0000
  C   C1169     1.0  0.67346  0.15392  0.94031  1.0000
  H   H1383     1.0  0.63276  0.46341  0.89454  1.0000
  H   H1384     1.0  0.76656  0.47526  0.91076  1.0000
  H   H1385     1.0  0.78346  0.16057  0.88756  1.0000
  H   H1386     1.0  0.78533  0.12732  0.87338  1.0000
  H   H1387     1.0  0.65356  0.07939  0.92479  1.0000
  C   C1170     1.0  0.88163  0.34131  0.92422  1.0000
  C   C1171     1.0  0.78243  0.14145  0.89156  1.0000
  H   H1388     1.0  0.86538  0.34355  0.90016  1.0000
  N   N79       1.0  0.89578  0.36155  0.91410  1.0000
  H   H1389     1.0  0.78442  0.48303  0.93215  1.0000
  N   N80       1.0  0.56758  0.98994  0.97659  1.0000
  C   C1172     1.0  0.59177  0.08242  0.87987  1.0000
  C   C1173     1.0  0.96394  0.34280  0.89852  1.0000
  S   S306      1.0  0.64997  0.98791  0.98103  1.0000
  H   H1390     1.0  0.60429  0.46402  0.87710  1.0000
  H   H1391     1.0  0.92899  0.47712  0.91610  1.0000
  H   H1392     1.0  0.51281  0.21533  0.83463  1.0000
  S   S307      1.0  0.49881  0.06383  0.98769  1.0000
  H   H1393     1.0  0.89680  0.35519  0.97911  1.0000
  H   H1394     1.0  0.64370  0.12267  0.97480  1.0000
  C   C1174     1.0  0.52292  0.38902  0.91701  1.0000
  C   C1175     1.0  0.63500  0.07265  0.91916  1.0000
  H   H1395     1.0  0.61252  0.04809  0.86846  1.0000
  H   H1396     1.0  0.71258  0.16465  0.98539  1.0000
  H   H1397     1.0  0.53441  0.40968  0.85907  1.0000
  C   C1176     1.0  0.49512  0.20538  0.84080  1.0000
  C   C1177     1.0  0.54616  0.40320  0.85230  1.0000
  H   H1398     1.0  0.92831  0.41752  0.83845  1.0000
  H   H1399     1.0  0.53672  0.03356  0.94370  1.0000
  H   H1400     1.0  0.75829  0.46801  0.96302  1.0000
  H   H1401     1.0  0.82518  0.41070  0.86140  1.0000
  H   H1402     1.0  0.65842  0.14537  0.93314  1.0000
  H   H1403     1.0  0.60651  0.00905  0.98545  1.0000
  H   H1404     1.0  0.77497  0.40040  0.84573  1.0000
  C   C1178     1.0  0.92139  0.35174  0.89535  1.0000
  H   H1405     1.0  0.64022  0.09425  0.86864  1.0000
  H   H1406     1.0  0.66085  0.19461  0.97302  1.0000
  C   C1179     1.0  0.77851  0.30758  0.85370  1.0000
  C   C1180     1.0  0.63662  0.07741  0.90594  1.0000
  H   H1407     1.0  0.57329  0.37797  0.98059  1.0000
  C   C1181     1.0  0.60974  0.05884  0.92516  1.0000
  H   H1408     1.0  0.50795  0.37468  0.89879  1.0000
  C   C1182     1.0  0.61549  0.44889  0.90022  1.0000
  H   H1409     1.0  0.94432  0.34195  0.88046  1.0000
  C   C1183     1.0  0.58738  0.05409  0.90478  1.0000
  H   H1410     1.0  0.89513  0.34107  0.93244  1.0000
  H   H1411     1.0  0.54242  0.40750  0.93375  1.0000
  H   H1412     1.0  0.85725  0.36703  0.90917  1.0000
  H   H1413     1.0  0.70181  0.42866  0.85145  1.0000
  H   H1414     1.0  0.59178  0.09935  0.88537  1.0000
  H   H1415     1.0  0.56767  0.44975  0.87821  1.0000
  H   H1416     1.0  0.74256  0.18313  0.94375  1.0000
  C   C1184     1.0  0.66191  0.13343  0.98046  1.0000
  H   H1417     1.0  0.94805  0.47547  0.87325  1.0000
  S   S308      1.0  0.93568  0.46521  0.95014  1.0000
  H   H1418     1.0  0.54417  0.40806  0.88661  1.0000
  H   H1419     1.0  0.86324  0.34469  0.92829  1.0000
  C   C1185     1.0  0.79523  0.33392  0.85384  1.0000
  H   H1420     1.0  0.57935  0.44197  0.92201  1.0000
  H   H1421     1.0  0.75866  0.47872  0.87654  1.0000
  H   H1422     1.0  0.82832  0.09622  0.87740  1.0000
  H   H1423     1.0  0.97881  0.46182  0.99095  1.0000
  Fe  Fe148     1.0  0.62635  0.47461  0.84661  1.0000
  H   H1424     1.0  0.72860  0.18201  0.96570  1.0000
  C   C1186     1.0  0.90175  0.35288  0.98930  1.0000
  H   H1425     1.0  0.97782  0.48503  0.91387  1.0000
  H   H1426     1.0  0.50321  0.16476  0.91245  1.0000
  H   H1427     1.0  0.62393  0.03711  0.88296  1.0000
  H   H1428     1.0  0.54906  0.45043  0.98517  1.0000
  C   C1187     1.0  0.56142  0.46646  0.99115  1.0000
  C   C1188     1.0  0.91130  0.43358  0.98374  1.0000
  C   C1189     1.0  0.93664  0.45318  0.98541  1.0000
  H   H1429     1.0  0.57246  0.02086  0.95457  1.0000
  H   H1430     1.0  0.58202  0.47578  0.98644  1.0000
  H   H1431     1.0  0.64628  0.17419  0.98709  1.0000
  H   H1432     1.0  0.70691  0.19543  0.98224  1.0000
  C   C1190     1.0  0.95025  0.36708  0.98438  1.0000
  H   H1433     1.0  0.58782  0.37983  0.82789  1.0000
  H   H1434     1.0  0.88836  0.39308  0.98412  1.0000
  H   H1435     1.0  0.95410  0.47540  0.89629  1.0000
  C   C1191     1.0  0.90838  0.40719  0.98604  1.0000
  H   H1436     1.0  0.74555  0.47965  0.89203  1.0000
  C   C1192     1.0  0.54567  0.99756  0.97013  1.0000
  H   H1437     1.0  0.97168  0.37744  0.98745  1.0000
  C   C1193     1.0  0.93097  0.39972  0.99030  1.0000
  Fe  Fe149     1.0  0.55880  0.60124  0.05463  1.0000
  S   S309      1.0  0.52894  0.62239  0.04924  1.0000
  S   S310      1.0  0.58986  0.59188  0.04160  1.0000
  Fe  Fe150     1.0  0.54719  0.60225  0.08361  1.0000
  S   S311      1.0  0.51695  0.62279  0.08005  1.0000
  S   S312      1.0  0.55746  0.59061  0.10367  1.0000
  Fe  Fe151     1.0  0.50133  0.59482  0.06452  1.0000
  C   C1194     1.0  0.59241  0.55150  0.00407  1.0000
  Fe  Fe152     1.0  0.54700  0.64857  0.06537  1.0000
  S   S313      1.0  0.56228  0.69266  0.06826  1.0000
  S   S314      1.0  0.52996  0.57240  0.06896  1.0000
  S   S315      1.0  0.57860  0.62935  0.06982  1.0000
  Fe  Fe153     1.0  0.54932  0.82963  0.04750  1.0000
  S   S316      1.0  0.59032  0.86108  0.05080  1.0000
  S   S317      1.0  0.54371  0.79080  0.03862  1.0000
  Fe  Fe154     1.0  0.51666  0.86041  0.05880  1.0000
  S   S318      1.0  0.55484  0.89364  0.06322  1.0000
  H   H1438     1.0  0.61356  0.98534  0.02492  1.0000
  Fe  Fe155     1.0  0.57022  0.89007  0.04353  1.0000
  S   S319      1.0  0.59060  0.93126  0.03370  1.0000
  Fe  Fe156     1.0  0.57187  0.86275  0.07003  1.0000
  S   S320      1.0  0.59589  0.86301  0.08817  1.0000
  S   S321      1.0  0.53029  0.85848  0.03874  1.0000
  S   S322      1.0  0.53249  0.82956  0.06716  1.0000
  S   S323      1.0  0.55596  0.88959  0.14141  1.0000
  H   H1439     1.0  0.64484  0.88779  0.07055  1.0000
  C   C1195     1.0  0.58366  0.86967  0.10287  1.0000
  C   C1196     1.0  0.58754  0.85640  0.11415  1.0000
  C   C1197     1.0  0.57890  0.86203  0.12603  1.0000
  C   C1198     1.0  0.56712  0.88161  0.12675  1.0000
  C   C1199     1.0  0.56367  0.89515  0.11549  1.0000
  C   C1200     1.0  0.57147  0.88894  0.10358  1.0000
  H   H1440     1.0  0.59721  0.84165  0.11370  1.0000
  H   H1441     1.0  0.58179  0.85155  0.13464  1.0000
  H   H1442     1.0  0.55481  0.91048  0.11599  1.0000
  H   H1443     1.0  0.56874  0.89957  0.09500  1.0000
  C   C1201     1.0  0.55477  0.71897  0.06021  1.0000
  C   C1202     1.0  0.54140  0.71639  0.04852  1.0000
  C   C1203     1.0  0.53800  0.73849  0.04205  1.0000
  C   C1204     1.0  0.54732  0.76323  0.04732  1.0000
  C   C1205     1.0  0.56010  0.76562  0.05914  1.0000
  C   C1206     1.0  0.56401  0.74368  0.06548  1.0000
  H   H1444     1.0  0.53431  0.69755  0.04432  1.0000
  H   H1445     1.0  0.52811  0.73643  0.03291  1.0000
  H   H1446     1.0  0.56748  0.78453  0.06328  1.0000
  H   H1447     1.0  0.57444  0.74597  0.07448  1.0000
  H   H1448     1.0  0.59559  0.64730  0.03649  1.0000
  H   H1449     1.0  0.59014  0.73248  0.02004  1.0000
  H   H1450     1.0  0.61506  0.91917  0.05649  1.0000
  C   C1207     1.0  0.54779  0.60193  0.11778  1.0000
  C   C1208     1.0  0.53283  0.61907  0.11741  1.0000
  C   C1209     1.0  0.52888  0.63065  0.12856  1.0000
  C   C1210     1.0  0.53903  0.62456  0.14027  1.0000
  C   C1211     1.0  0.55227  0.60598  0.14082  1.0000
  C   C1212     1.0  0.55680  0.59486  0.12959  1.0000
  H   H1451     1.0  0.52529  0.62423  0.10843  1.0000
  H   H1452     1.0  0.51849  0.64493  0.12806  1.0000
  H   H1453     1.0  0.56044  0.60130  0.14975  1.0000
  H   H1454     1.0  0.56834  0.58153  0.12998  1.0000
  C   C1213     1.0  0.58879  0.66879  0.01938  1.0000
  C   C1214     1.0  0.65654  0.90295  0.06312  1.0000
  C   C1215     1.0  0.48575  0.85082  0.12655  1.0000
  H   H1455     1.0  0.60315  0.71999  0.08902  1.0000
  C   C1216     1.0  0.62542  0.92710  0.06538  1.0000
  H   H1456     1.0  0.54693  0.73129  0.14309  1.0000
  H   H1457     1.0  0.60351  0.68323  0.05055  1.0000
  C   C1217     1.0  0.61636  0.97396  0.01725  1.0000
  C   C1218     1.0  0.60686  0.94638  0.01890  1.0000
  C   C1219     1.0  0.61091  0.93202  0.00891  1.0000
  C   C1220     1.0  0.59845  0.70648  0.11559  1.0000
  H   H1458     1.0  0.97295  0.63213  0.99967  1.0000
  H   H1459     1.0  0.61153  0.63019  0.02073  1.0000
  H   H1460     1.0  0.60386  0.91084  0.00999  1.0000
  H   H1461     1.0  0.54952  0.98085  0.99554  1.0000
  H   H1462     1.0  0.52047  0.82751  0.09737  1.0000
  C   C1221     1.0  0.61631  0.56256  0.01105  1.0000
  C   C1222     1.0  0.61495  0.57433  0.02259  1.0000
  C   C1223     1.0  0.58970  0.57502  0.02742  1.0000
  C   C1224     1.0  0.56569  0.56352  0.02055  1.0000
  C   C1225     1.0  0.56711  0.55203  0.00893  1.0000
  H   H1463     1.0  0.63594  0.56234  0.00751  1.0000
  H   H1464     1.0  0.63370  0.58311  0.02778  1.0000
  H   H1465     1.0  0.54607  0.56368  0.02412  1.0000
  H   H1466     1.0  0.64497  0.92803  0.03972  1.0000
  H   H1467     1.0  0.60110  0.72586  0.04251  1.0000
  H   H1468     1.0  0.54034  0.63130  0.01637  1.0000
  H   H1469     1.0  0.67835  0.90358  0.06308  1.0000
  H   H1470     1.0  0.52523  0.84088  0.11250  1.0000
  C   C1226     1.0  0.97571  0.56505  0.01317  1.0000
  C   C1227     1.0  0.53070  0.72883  0.15008  1.0000
  H   H1471     1.0  0.51072  0.86714  0.08957  1.0000
  C   C1228     1.0  0.59802  0.71021  0.03607  1.0000
  C   C1229     1.0  0.59194  0.71013  0.13850  1.0000
  C   C1230     1.0  0.94356  0.60842  0.01368  1.0000
  H   H1472     1.0  0.57789  0.67419  0.12946  1.0000
  H   H1473     1.0  0.62668  0.65317  0.00773  1.0000
  C   C1231     1.0  0.97183  0.56774  0.99996  1.0000
  H   H1474     1.0  0.68703  0.93665  0.07935  1.0000
  C   C1232     1.0  0.50925  0.82835  0.10631  1.0000
  C   C1233     1.0  0.52669  0.75073  0.15479  1.0000
  C   C1234     1.0  0.93791  0.60188  0.02660  1.0000
  C   C1235     1.0  0.66521  0.93576  0.07842  1.0000
  H   H1475     1.0  0.56145  0.61700  0.02542  1.0000
  N   N81       1.0  0.48633  0.83861  0.10382  1.0000
  H   H1476     1.0  0.92919  0.59782  0.00666  1.0000
  H   H1477     1.0  0.50783  0.86081  0.12615  1.0000
  H   H1478     1.0  0.54022  0.77021  0.15159  1.0000
  C   C1236     1.0  0.60744  0.63726  0.01110  1.0000
  C   C1237     1.0  0.69310  0.97120  0.05767  1.0000
  C   C1238     1.0  0.61029  0.70400  0.09294  1.0000
  H   H1479     1.0  0.63274  0.71221  0.09494  1.0000
  C   C1239     1.0  0.60183  0.66646  0.10733  1.0000
  H   H1480     1.0  0.55954  0.66738  0.09352  1.0000
  H   H1481     1.0  0.64768  0.89568  0.05385  1.0000
  C   C1240     1.0  0.59184  0.71386  0.02338  1.0000
  H   H1482     1.0  0.52019  0.54295  0.09529  1.0000
  C   C1241     1.0  0.67592  0.96300  0.03256  1.0000
  N   N82       1.0  0.65484  0.92906  0.06542  1.0000
  H   H1483     1.0  0.58427  0.70069  0.14777  1.0000
  H   H1484     1.0  0.62345  0.67197  0.11069  1.0000
  C   C1242     1.0  0.58860  0.69500  0.12789  1.0000
  H   H1485     1.0  0.51166  0.87931  0.10507  1.0000
  H   H1486     1.0  0.61332  0.91380  0.07334  1.0000
  H   H1487     1.0  0.55323  0.60790  0.00953  1.0000
  H   H1488     1.0  0.49861  0.55913  0.15294  1.0000
  C   C1243     1.0  0.66224  0.94480  0.04235  1.0000
  C   C1244     1.0  0.49696  0.52520  0.11231  1.0000
  H   H1489     1.0  0.65294  0.92068  0.08577  1.0000
  H   H1490     1.0  0.60724  0.74895  0.14543  1.0000
  C   C1245     1.0  0.95691  0.61478  0.03565  1.0000
  C   C1246     1.0  0.58731  0.69356  0.01509  1.0000
  H   H1491     1.0  0.95175  0.60867  0.04554  1.0000
  H   H1492     1.0  0.95591  0.49242  0.00651  1.0000
  H   H1493     1.0  0.62324  0.94664  0.06621  1.0000
  H   H1494     1.0  0.58241  0.69773  0.00543  1.0000
  H   H1495     1.0  0.95936  0.55117  0.01898  1.0000
  C   C1247     1.0  0.55856  0.62479  0.01576  1.0000
  H   H1496     1.0  0.51785  0.68680  0.15112  1.0000
  H   H1497     1.0  0.60776  0.69067  0.08497  1.0000
  C   C1248     1.0  0.59941  0.68618  0.04058  1.0000
  H   H1498     1.0  0.61825  0.74488  0.10554  1.0000
  C   C1249     1.0  0.61094  0.73426  0.11453  1.0000
  H   H1499     1.0  0.55822  0.69843  0.09773  1.0000
  N   N83       1.0  0.58348  0.64658  0.01101  1.0000
  H   H1500     1.0  0.54842  0.54351  0.00366  1.0000
  C   C1250     1.0  0.57869  0.65321  0.99754  1.0000
  C   C1251     1.0  0.63378  0.97266  0.99583  1.0000
  H   H1501     1.0  0.50144  0.80828  0.11098  1.0000
  H   H1502     1.0  0.60002  0.65452  0.09885  1.0000
  C   C1252     1.0  0.59480  0.66572  0.03242  1.0000
  S   S324      1.0  0.53777  0.64317  0.15341  1.0000
  N   N84       1.0  0.59402  0.69007  0.10444  1.0000
  C   C1253     1.0  0.67024  0.94838  0.05523  1.0000
  H   H1503     1.0  0.58821  0.65268  0.11465  1.0000
  H   H1504     1.0  0.51253  0.53715  0.11850  1.0000
  H   H1505     1.0  0.62374  0.77043  0.12420  1.0000
  C   C1254     1.0  0.56439  0.68153  0.10119  1.0000
  H   H1506     1.0  0.60405  0.62036  0.00497  1.0000
  C   C1255     1.0  0.61412  0.74927  0.12522  1.0000
  C   C1256     1.0  0.60479  0.73723  0.13718  1.0000
  C   C1257     1.0  0.49809  0.86590  0.09833  1.0000
  H   H1507     1.0  0.55083  0.67190  0.10950  1.0000
  H   H1508     1.0  0.70075  0.97566  0.06712  1.0000
  C   C1258     1.0  0.50132  0.52846  0.09919  1.0000
  C   C1259     1.0  0.96826  0.62781  0.00976  1.0000
  H   H1509     1.0  0.66903  0.95997  0.02283  1.0000
  H   H1510     1.0  0.91888  0.58636  0.02956  1.0000
  C   C1260     1.0  0.98226  0.63478  0.03200  1.0000
  H   H1511     1.0  0.60192  0.48776  0.00814  1.0000
  H   H1512     1.0  0.66353  0.95476  0.08100  1.0000
  C   C1261     1.0  0.69809  0.98521  0.03527  1.0000
  H   H1513     1.0  0.97950  0.67339  0.04601  1.0000
  H   H1514     1.0  0.97151  0.64458  0.05655  1.0000
  H   H1515     1.0  0.59675  0.66951  0.99335  1.0000
  H   H1516     1.0  0.55983  0.65874  0.99661  1.0000
  H   H1517     1.0  0.57192  0.49505  0.01131  1.0000
  S   S325      1.0  0.93971  0.54846  0.99332  1.0000
  C   C1262     1.0  0.62428  0.94509  0.99748  1.0000
  H   H1518     1.0  0.49223  0.58827  0.15653  1.0000
  H   H1519     1.0  0.48643  0.51711  0.08097  1.0000
  C   C1263     1.0  0.51424  0.70382  0.15458  1.0000
  C   C1264     1.0  0.97733  0.50096  0.00922  1.0000
  H   H1520     1.0  0.57454  0.96603  0.99242  1.0000
  H   H1521     1.0  0.52600  0.56332  0.27368  1.0000
  C   C1265     1.0  0.59264  0.66342  0.22958  1.0000
  Fe  Fe157     1.0  0.56329  0.86587  0.18897  1.0000
  S   S326      1.0  0.54088  0.82280  0.19167  1.0000
  S   S327      1.0  0.58050  0.88973  0.20608  1.0000
  Fe  Fe158     1.0  0.56400  0.82011  0.17413  1.0000
  S   S328      1.0  0.58424  0.78971  0.17273  1.0000
  Fe  Fe159     1.0  0.50986  0.82925  0.17829  1.0000
  H   H1522     1.0  0.50293  0.86015  0.32146  1.0000
  S   S329      1.0  0.58876  0.86305  0.17204  1.0000
  S   S330      1.0  0.53048  0.87293  0.17676  1.0000
  Fe  Fe160     1.0  0.54161  0.60785  0.20115  1.0000
  S   S331      1.0  0.50519  0.61430  0.20995  1.0000
  S   S332      1.0  0.56690  0.58953  0.21335  1.0000
  Fe  Fe161     1.0  0.53295  0.63025  0.17451  1.0000
  C   C1266     1.0  0.52822  0.65794  0.26122  1.0000
  Fe  Fe162     1.0  0.52146  0.65318  0.19908  1.0000
  S   S333      1.0  0.52313  0.68972  0.20854  1.0000
  H   H1523     1.0  0.53888  0.65113  0.26913  1.0000
  H   H1524     1.0  0.49024  0.71842  0.19421  1.0000
  S   S334      1.0  0.55942  0.64787  0.19116  1.0000
  S   S335      1.0  0.51938  0.58951  0.18364  1.0000
  Fe  Fe163     1.0  0.56530  0.82152  0.30683  1.0000
  S   S336      1.0  0.60534  0.84533  0.29705  1.0000
  H   H1525     1.0  0.58748  0.66670  0.26609  1.0000
  Fe  Fe164     1.0  0.53603  0.85937  0.29780  1.0000
  S   S337      1.0  0.57461  0.88609  0.28749  1.0000
  S   S338      1.0  0.49890  0.87292  0.29480  1.0000
  Fe  Fe165     1.0  0.57869  0.84919  0.28058  1.0000
  S   S339      1.0  0.58637  0.83753  0.26083  1.0000
  Fe  Fe166     1.0  0.59782  0.87996  0.30500  1.0000
  S   S340      1.0  0.53901  0.82286  0.28994  1.0000
  S   S341      1.0  0.55895  0.85592  0.31577  1.0000
  Fe  Fe167     1.0  0.56939  0.61008  0.28950  1.0000
  S   S342      1.0  0.52498  0.60541  0.29236  1.0000
  S   S343      1.0  0.58635  0.59490  0.27302  1.0000
  Fe  Fe168     1.0  0.52921  0.58984  0.31214  1.0000
  Fe  Fe169     1.0  0.54232  0.64519  0.30057  1.0000
  C   C1267     1.0  0.68116  0.87438  0.31561  1.0000
  S   S344      1.0  0.57302  0.59199  0.30875  1.0000
  S   S345      1.0  0.58669  0.65076  0.29633  1.0000
  H   H1526     1.0  0.57501  0.71960  0.25759  1.0000
  H   H1527     1.0  0.54373  0.70693  0.23812  1.0000
  H   H1528     1.0  0.49929  0.88002  0.20991  1.0000
  C   C1268     1.0  0.53299  0.72851  0.29403  1.0000
  C   C1269     1.0  0.57018  0.92430  0.32263  1.0000
  H   H1529     1.0  0.51923  0.87745  0.26728  1.0000
  C   C1270     1.0  0.57209  0.67168  0.23465  1.0000
  H   H1530     1.0  0.69088  0.81668  0.32264  1.0000
  H   H1531     1.0  0.51100  0.66256  0.26575  1.0000
  H   H1532     1.0  0.55887  0.54160  0.26991  1.0000
  N   N85       1.0  0.54722  0.68099  0.25379  1.0000
  C   C1271     1.0  0.57007  0.59130  0.23008  1.0000
  C   C1272     1.0  0.59039  0.58295  0.23575  1.0000
  C   C1273     1.0  0.59467  0.58419  0.24885  1.0000
  C   C1274     1.0  0.57861  0.59366  0.25662  1.0000
  C   C1275     1.0  0.55752  0.60139  0.25114  1.0000
  C   C1276     1.0  0.55335  0.60037  0.23782  1.0000
  H   H1533     1.0  0.60328  0.57581  0.22991  1.0000
  H   H1534     1.0  0.61089  0.57806  0.25297  1.0000
  H   H1535     1.0  0.54493  0.60860  0.25708  1.0000
  H   H1536     1.0  0.53755  0.60683  0.23355  1.0000
  H   H1537     1.0  0.54646  0.54254  0.29115  1.0000
  C   C1277     1.0  0.57877  0.87511  0.22166  1.0000
  C   C1278     1.0  0.58938  0.89106  0.23185  1.0000
  C   C1279     1.0  0.59009  0.87987  0.24418  1.0000
  C   C1280     1.0  0.58034  0.85260  0.24638  1.0000
  C   C1281     1.0  0.56909  0.83675  0.23625  1.0000
  C   C1282     1.0  0.56822  0.84791  0.22399  1.0000
  H   H1538     1.0  0.59768  0.91214  0.23016  1.0000
  H   H1539     1.0  0.59924  0.89227  0.25187  1.0000
  H   H1540     1.0  0.56179  0.81564  0.23784  1.0000
  H   H1541     1.0  0.56018  0.83531  0.21631  1.0000
  C   C1283     1.0  0.52773  0.52468  0.29045  1.0000
  C   C1284     1.0  0.54156  0.71743  0.19886  1.0000
  C   C1285     1.0  0.55193  0.71478  0.18693  1.0000
  C   C1286     1.0  0.56580  0.73711  0.17910  1.0000
  C   C1287     1.0  0.56849  0.76205  0.18298  1.0000
  C   C1288     1.0  0.55832  0.76466  0.19497  1.0000
  C   C1289     1.0  0.54492  0.74240  0.20291  1.0000
  H   H1542     1.0  0.54899  0.69557  0.18362  1.0000
  H   H1543     1.0  0.57376  0.73497  0.16987  1.0000
  H   H1544     1.0  0.56153  0.78382  0.19831  1.0000
  H   H1545     1.0  0.53710  0.74455  0.21217  1.0000
  C   C1290     1.0  0.55580  0.75576  0.31114  1.0000
  H   H1546     1.0  0.54858  0.50684  0.27091  1.0000
  C   C1291     1.0  0.54195  0.90974  0.32332  1.0000
  C   C1292     1.0  0.56953  0.67361  0.24800  1.0000
  C   C1293     1.0  0.70408  0.89137  0.32159  1.0000
  C   C1294     1.0  0.53054  0.68998  0.24428  1.0000
  H   H1547     1.0  0.62640  0.64963  0.23362  1.0000
  H   H1548     1.0  0.51906  0.67405  0.23803  1.0000
  H   H1549     1.0  0.51463  0.69631  0.24893  1.0000
  H   H1550     1.0  0.56860  0.69630  0.27101  1.0000
  H   H1551     1.0  0.49277  0.85206  0.20060  1.0000
  H   H1552     1.0  0.75218  0.93503  0.32349  1.0000
  H   H1553     1.0  0.51908  0.64118  0.25508  1.0000
  C   C1295     1.0  0.54090  0.52338  0.26874  1.0000
  C   C1296     1.0  0.67644  0.84758  0.31600  1.0000
  H   H1554     1.0  0.66670  0.88206  0.31075  1.0000
  C   C1297     1.0  0.48829  0.72248  0.16848  1.0000
  H   H1555     1.0  0.53741  0.76924  0.29509  1.0000
  C   C1298     1.0  0.60541  0.76955  0.21898  1.0000
  H   H1556     1.0  0.59100  0.75290  0.23774  1.0000
  H   H1557     1.0  0.48792  0.89800  0.31694  1.0000
  H   H1558     1.0  0.55817  0.67587  0.22789  1.0000
  C   C1299     1.0  0.55287  0.70997  0.31123  1.0000
  S   S346      1.0  0.52649  0.67662  0.29268  1.0000
  C   C1300     1.0  0.53840  0.70700  0.29983  1.0000
  H   H1559     1.0  0.62308  0.65265  0.25690  1.0000
  S   S347      1.0  0.49640  0.63902  0.18195  1.0000
  H   H1560     1.0  0.54364  0.90268  0.24800  1.0000
  N   N86       1.0  0.51729  0.52184  0.27725  1.0000
  C   C1301     1.0  0.69480  0.83759  0.32229  1.0000
  H   H1561     1.0  0.51243  0.52686  0.29734  1.0000
  C   C1302     1.0  0.60093  0.77073  0.23195  1.0000
  C   C1303     1.0  0.51225  0.87083  0.25791  1.0000
  H   H1562     1.0  0.50964  0.81803  0.22163  1.0000
  H   H1563     1.0  0.55708  0.69346  0.31578  1.0000
  H   H1564     1.0  0.59886  0.75071  0.21469  1.0000
  C   C1304     1.0  0.55904  0.70251  0.26251  1.0000
  N   N87       1.0  0.63967  0.84162  0.20847  1.0000
  C   C1305     1.0  0.66503  0.84023  0.20234  1.0000
  C   C1306     1.0  0.62035  0.84384  0.19838  1.0000
  C   C1307     1.0  0.64771  0.86611  0.21545  1.0000
  C   C1308     1.0  0.62647  0.81756  0.21669  1.0000
  C   C1309     1.0  0.62178  0.81803  0.22999  1.0000
  C   C1310     1.0  0.61783  0.79257  0.21142  1.0000
  S   S348      1.0  0.56592  0.78577  0.31867  1.0000
  H   H1565     1.0  0.53184  0.90361  0.31445  1.0000
  H   H1566     1.0  0.58090  0.92918  0.31346  1.0000
  H   H1567     1.0  0.66042  0.82392  0.19580  1.0000
  H   H1568     1.0  0.67612  0.85850  0.19648  1.0000
  H   H1569     1.0  0.67955  0.83723  0.20961  1.0000
  H   H1570     1.0  0.61521  0.82747  0.19185  1.0000
  H   H1571     1.0  0.62908  0.86233  0.19234  1.0000
  H   H1572     1.0  0.60061  0.84392  0.20259  1.0000
  H   H1573     1.0  0.66298  0.86624  0.22295  1.0000
  H   H1574     1.0  0.65721  0.88388  0.20900  1.0000
  H   H1575     1.0  0.62944  0.86884  0.21997  1.0000
  H   H1576     1.0  0.62717  0.83601  0.23491  1.0000
  H   H1577     1.0  0.62031  0.79062  0.20136  1.0000
  H   H1578     1.0  0.53548  0.52385  0.25851  1.0000
  H   H1579     1.0  0.60516  0.79594  0.24750  1.0000
  C   C1311     1.0  0.52587  0.88506  0.24703  1.0000
  Fe  Fe170     1.0  0.58649  0.63254  0.31612  1.0000
  C   C1312     1.0  0.51719  0.87644  0.23493  1.0000
  H   H1580     1.0  0.52164  0.72633  0.28527  1.0000
  C   C1313     1.0  0.50068  0.86004  0.20993  1.0000
  C   C1314     1.0  0.54188  0.75287  0.29960  1.0000
  C   C1315     1.0  0.61115  0.65690  0.23756  1.0000
  C   C1316     1.0  0.49436  0.85304  0.23342  1.0000
  H   H1581     1.0  0.65835  0.83454  0.31150  1.0000
  H   H1582     1.0  0.59366  0.66122  0.21942  1.0000
  H   H1583     1.0  0.67574  0.95753  0.32315  1.0000
  S   S349      1.0  0.63224  0.91479  0.31298  1.0000
  H   H1584     1.0  0.53324  0.50741  0.29386  1.0000
  H   H1585     1.0  0.52284  0.86187  0.21008  1.0000
  C   C1317     1.0  0.56130  0.73424  0.31693  1.0000
  C   C1318     1.0  0.60906  0.79491  0.23743  1.0000
  C   C1319     1.0  0.60929  0.65868  0.25066  1.0000
  H   H1586     1.0  0.49240  0.54605  0.28034  1.0000
  C   C1320     1.0  0.58874  0.66675  0.25584  1.0000
  H   H1587     1.0  0.54285  0.70940  0.26650  1.0000
  H   H1588     1.0  0.95768  0.50039  0.27744  1.0000
  H   H1589     1.0  0.52909  0.88826  0.22696  1.0000
  S   S350      1.0  0.54266  0.62951  0.32084  1.0000
  Fe  Fe171     1.0  0.55356  0.86552  0.15997  1.0000
  H   H1590     1.0  0.77473  0.90210  0.31859  1.0000
  S   S351      1.0  0.50268  0.55006  0.32125  1.0000
  C   C1321     1.0  0.50836  0.54442  0.27364  1.0000
  C   C1322     1.0  0.49351  0.49710  0.27652  1.0000
  H   H1591     1.0  0.70603  0.91182  0.32106  1.0000
  H   H1592     1.0  0.49969  0.54282  0.26391  1.0000
  H   H1593     1.0  0.50431  0.76557  0.16726  1.0000
  C   C1323     1.0  0.49337  0.70061  0.16366  1.0000
  C   C1324     1.0  0.50591  0.74775  0.16389  1.0000
  C   C1325     1.0  0.48793  0.81683  0.21990  1.0000
  C   C1326     1.0  0.48975  0.84793  0.25677  1.0000
  S   S352      1.0  0.53064  0.82218  0.16084  1.0000
  Fe  Fe172     1.0  0.48426  0.59934  0.19185  1.0000
  N   N88       1.0  0.48493  0.84287  0.22080  1.0000
  C   C1327     1.0  0.65904  0.73403  0.34373  1.0000
  C   C1328     1.0  0.93575  0.73804  0.44905  1.0000
  H   H1594     1.0  0.74285  0.87920  0.47706  1.0000
  Fe  Fe173     1.0  0.73959  0.95282  0.37370  1.0000
  S   S353      1.0  0.78296  0.96028  0.36643  1.0000
  S   S354      1.0  0.70127  0.92421  0.36442  1.0000
  H   H1595     1.0  0.62795  0.76017  0.33767  1.0000
  H   H1596     1.0  0.69852  0.80736  0.35893  1.0000
  C   C1329     1.0  0.75904  0.94119  0.44576  1.0000
  Fe  Fe174     1.0  0.79024  0.94569  0.38599  1.0000
  S   S355      1.0  0.81243  0.91686  0.38960  1.0000
  S   S356      1.0  0.74686  0.93642  0.39307  1.0000
  H   H1597     1.0  0.70873  0.87140  0.48420  1.0000
  S   S357      1.0  0.94518  0.77086  0.38362  1.0000
  C   C1330     1.0  0.74609  0.89098  0.34832  1.0000
  Fe  Fe175     1.0  0.74892  0.74937  0.40941  1.0000
  S   S358      1.0  0.78600  0.76958  0.39668  1.0000
  S   S359      1.0  0.75538  0.76827  0.42857  1.0000
  Fe  Fe176     1.0  0.71744  0.71499  0.38753  1.0000
  S   S360      1.0  0.75332  0.73213  0.37385  1.0000
  S   S361      1.0  0.67406  0.68878  0.38175  1.0000
  Fe  Fe177     1.0  0.78052  0.72935  0.39044  1.0000
  S   S362      1.0  0.81527  0.71213  0.39157  1.0000
  Fe  Fe178     1.0  0.75567  0.77065  0.38155  1.0000
  S   S363      1.0  0.75278  0.80452  0.36902  1.0000
  S   S364      1.0  0.74418  0.70880  0.40372  1.0000
  S   S365      1.0  0.71906  0.75386  0.39465  1.0000
  C   C1331     1.0  0.57149  0.92488  0.34549  1.0000
  S   S366      1.0  0.81912  0.97236  0.48915  1.0000
  C   C1332     1.0  0.73091  0.87505  0.48620  1.0000
  H   H1598     1.0  0.69913  0.75959  0.47212  1.0000
  H   H1599     1.0  0.79448  0.70825  0.41881  1.0000
  Fe  Fe179     1.0  0.77286  0.95768  0.48943  1.0000
  C   C1333     1.0  0.63914  0.65919  0.34262  1.0000
  C   C1334     1.0  0.66757  0.66582  0.34502  1.0000
  C   C1335     1.0  0.67872  0.67569  0.35675  1.0000
  C   C1336     1.0  0.66147  0.67868  0.36636  1.0000
  C   C1337     1.0  0.63306  0.67226  0.36394  1.0000
  C   C1338     1.0  0.62198  0.66281  0.35212  1.0000
  H   H1600     1.0  0.55090  0.58486  0.33570  1.0000
  H   H1601     1.0  0.70054  0.68027  0.35846  1.0000
  H   H1602     1.0  0.61945  0.67429  0.37132  1.0000
  H   H1603     1.0  0.60012  0.65793  0.35047  1.0000
  C   C1339     1.0  0.90933  0.75456  0.38683  1.0000
  C   C1340     1.0  0.89106  0.76857  0.38494  1.0000
  C   C1341     1.0  0.86227  0.75608  0.38666  1.0000
  C   C1342     1.0  0.85143  0.72929  0.39015  1.0000
  C   C1343     1.0  0.86974  0.71540  0.39233  1.0000
  C   C1344     1.0  0.89855  0.72797  0.39076  1.0000
  H   H1604     1.0  0.89919  0.78916  0.38191  1.0000
  H   H1605     1.0  0.84848  0.76704  0.38494  1.0000
  H   H1606     1.0  0.86156  0.69465  0.39501  1.0000
  H   H1607     1.0  0.91231  0.71694  0.39229  1.0000
  C   C1345     1.0  0.79555  0.88561  0.38398  1.0000
  C   C1346     1.0  0.80870  0.86687  0.38468  1.0000
  C   C1347     1.0  0.79554  0.84176  0.38026  1.0000
  C   C1348     1.0  0.76919  0.83538  0.37509  1.0000
  C   C1349     1.0  0.75584  0.85394  0.37459  1.0000
  C   C1350     1.0  0.76896  0.87901  0.37904  1.0000
  H   H1608     1.0  0.82923  0.87188  0.38854  1.0000
  H   H1609     1.0  0.80596  0.82751  0.38066  1.0000
  H   H1610     1.0  0.73516  0.84881  0.37091  1.0000
  H   H1611     1.0  0.75848  0.89321  0.37870  1.0000
  C   C1351     1.0  0.68147  0.92273  0.35034  1.0000
  C   C1352     1.0  0.66015  0.89911  0.34799  1.0000
  C   C1353     1.0  0.64460  0.89641  0.33675  1.0000
  C   C1354     1.0  0.94095  0.70185  0.46307  1.0000
  H   H1612     1.0  0.68812  0.73500  0.36435  1.0000
  C   C1355     1.0  0.68675  0.94385  0.34134  1.0000
  H   H1613     1.0  0.65567  0.88274  0.35492  1.0000
  H   H1614     1.0  0.84787  0.77092  0.42476  1.0000
  H   H1615     1.0  0.70288  0.96223  0.34301  1.0000
  C   C1356     1.0  0.74355  0.73474  0.47015  1.0000
  C   C1357     1.0  0.76013  0.76070  0.46704  1.0000
  C   C1358     1.0  0.76371  0.77044  0.45426  1.0000
  C   C1359     1.0  0.75113  0.75429  0.44439  1.0000
  C   C1360     1.0  0.73497  0.72816  0.44743  1.0000
  C   C1361     1.0  0.73105  0.71852  0.46027  1.0000
  H   H1616     1.0  0.76991  0.77342  0.47449  1.0000
  H   H1617     1.0  0.77634  0.79064  0.45204  1.0000
  H   H1618     1.0  0.72493  0.71555  0.43996  1.0000
  H   H1619     1.0  0.71813  0.69841  0.46258  1.0000
  N   N89       1.0  0.82354  0.73168  0.43202  1.0000
  H   H1620     1.0  0.76107  0.94432  0.42516  1.0000
  H   H1621     1.0  0.91305  0.65949  0.34613  1.0000
  C   C1362     1.0  0.93970  0.73611  0.42586  1.0000
  H   H1622     1.0  0.56841  0.61325  0.34449  1.0000
  C   C1363     1.0  0.54319  0.91036  0.34630  1.0000
  H   H1623     1.0  0.82956  0.66155  0.35994  1.0000
  H   H1624     1.0  0.87031  0.74467  0.35948  1.0000
  C   C1364     1.0  0.67970  0.75130  0.36322  1.0000
  H   H1625     1.0  0.73260  0.93050  0.33823  1.0000
  C   C1365     1.0  0.71416  0.82513  0.47518  1.0000
  H   H1626     1.0  0.76912  0.93978  0.33847  1.0000
  C   C1366     1.0  0.70516  0.80083  0.46963  1.0000
  H   H1627     1.0  0.63824  0.72582  0.34843  1.0000
  H   H1628     1.0  0.68108  0.66310  0.33778  1.0000
  Fe  Fe180     1.0  0.76153  0.97761  0.39937  1.0000
  H   H1629     1.0  0.69770  0.79931  0.45997  1.0000
  H   H1630     1.0  0.89262  0.71280  0.46409  1.0000
  H   H1631     1.0  0.92632  0.79083  0.43277  1.0000
  N   N90       1.0  0.75616  0.84670  0.42033  1.0000
  C   C1367     1.0  0.78398  0.86711  0.42060  1.0000
  C   C1368     1.0  0.74936  0.83293  0.43310  1.0000
  C   C1369     1.0  0.75760  0.82710  0.41130  1.0000
  C   C1370     1.0  0.73556  0.85927  0.41685  1.0000
  C   C1371     1.0  0.71995  0.85416  0.40552  1.0000
  C   C1372     1.0  0.73128  0.87801  0.42474  1.0000
  C   C1373     1.0  0.70147  0.86722  0.40234  1.0000
  C   C1374     1.0  0.71262  0.89081  0.42150  1.0000
  C   C1375     1.0  0.69778  0.88544  0.41031  1.0000
  H   H1632     1.0  0.78552  0.88132  0.42802  1.0000
  H   H1633     1.0  0.80038  0.85844  0.42255  1.0000
  H   H1634     1.0  0.78926  0.87863  0.41131  1.0000
  H   H1635     1.0  0.72832  0.81778  0.43330  1.0000
  H   H1636     1.0  0.75023  0.84645  0.44075  1.0000
  H   H1637     1.0  0.76405  0.82257  0.43576  1.0000
  H   H1638     1.0  0.76356  0.83621  0.40159  1.0000
  H   H1639     1.0  0.77345  0.81818  0.41407  1.0000
  H   H1640     1.0  0.73760  0.81058  0.41091  1.0000
  H   H1641     1.0  0.72189  0.84045  0.39885  1.0000
  H   H1642     1.0  0.74270  0.88325  0.43338  1.0000
  H   H1643     1.0  0.69024  0.86353  0.39351  1.0000
  H   H1644     1.0  0.71002  0.90535  0.42758  1.0000
  H   H1645     1.0  0.68377  0.89582  0.40769  1.0000
  H   H1646     1.0  0.82403  0.75196  0.41379  1.0000
  C   C1376     1.0  0.72322  0.88184  0.32812  1.0000
  H   H1647     1.0  0.86619  0.73510  0.42867  1.0000
  C   C1377     1.0  0.56814  0.59334  0.34232  1.0000
  H   H1648     1.0  0.92267  0.68279  0.37864  1.0000
  H   H1649     1.0  0.59900  0.61448  0.39263  1.0000
  C   C1378     1.0  0.66525  0.77992  0.34853  1.0000
  H   H1650     1.0  0.56124  0.59179  0.37907  1.0000
  H   H1651     1.0  0.96095  0.70299  0.45864  1.0000
  H   H1652     1.0  0.77907  0.71988  0.43129  1.0000
  H   H1653     1.0  0.62141  0.59266  0.34984  1.0000
  H   H1654     1.0  0.64752  0.62647  0.38535  1.0000
  S   S367      1.0  0.97240  0.71235  0.39280  1.0000
  H   H1655     1.0  0.53270  0.55744  0.36798  1.0000
  H   H1656     1.0  0.91023  0.71454  0.47889  1.0000
  C   C1379     1.0  0.93051  0.76188  0.44672  1.0000
  C   C1380     1.0  0.58495  0.93175  0.33368  1.0000
  C   C1381     1.0  0.72414  0.82750  0.48783  1.0000
  H   H1657     1.0  0.76144  0.92219  0.44646  1.0000
  H   H1658     1.0  0.71328  0.75081  0.34379  1.0000
  N   N91       1.0  0.92610  0.69201  0.35846  1.0000
  C   C1382     1.0  0.70580  0.77838  0.47645  1.0000
  C   C1383     1.0  0.93445  0.75948  0.42391  1.0000
  S   S368      1.0  0.75452  0.93602  0.47184  1.0000
  C   C1384     1.0  0.89927  0.69644  0.35843  1.0000
  C   C1385     1.0  0.87411  0.67482  0.35866  1.0000
  C   C1386     1.0  0.89715  0.72187  0.35848  1.0000
  N   N92       1.0  0.67661  0.75828  0.34961  1.0000
  H   H1659     1.0  0.92746  0.77283  0.45452  1.0000
  C   C1387     1.0  0.70419  0.76673  0.34324  1.0000
  H   H1660     1.0  0.82737  0.70616  0.36065  1.0000
  H   H1661     1.0  0.91217  0.65456  0.36925  1.0000
  C   C1388     1.0  0.75617  0.95316  0.45693  1.0000
  H   H1662     1.0  0.95793  0.76566  0.46984  1.0000
  H   H1663     1.0  0.62839  0.87810  0.33507  1.0000
  H   H1664     1.0  0.94787  0.67262  0.37066  1.0000
  C   C1389     1.0  0.63089  0.61567  0.37930  1.0000
  C   C1390     1.0  0.84719  0.70348  0.35969  1.0000
  H   H1665     1.0  0.53330  0.58930  0.36155  1.0000
  C   C1391     1.0  0.84489  0.72079  0.42810  1.0000
  C   C1392     1.0  0.91104  0.72465  0.46933  1.0000
  C   C1393     1.0  0.92718  0.67477  0.36972  1.0000
  S   S369      1.0  0.73762  0.72200  0.48620  1.0000
  C   C1394     1.0  0.49562  0.85918  0.33146  1.0000
  C   C1395     1.0  0.52750  0.90230  0.33517  1.0000
  H   H1666     1.0  0.71317  0.84173  0.46937  1.0000
  C   C1396     1.0  0.79611  0.71240  0.42910  1.0000
  H   H1667     1.0  0.66828  0.71831  0.34464  1.0000
  C   C1397     1.0  0.64485  0.82233  0.34647  1.0000
  C   C1398     1.0  0.75880  0.95367  0.43370  1.0000
  C   C1399     1.0  0.92924  0.67908  0.34678  1.0000
  H   H1668     1.0  0.78578  0.71169  0.45275  1.0000
  C   C1400     1.0  0.65023  0.91736  0.32765  1.0000
  H   H1669     1.0  0.87407  0.65495  0.35853  1.0000
  H   H1670     1.0  0.92388  0.68669  0.45843  1.0000
  N   N93       1.0  0.49798  0.88542  0.33567  1.0000
  C   C1401     1.0  0.75498  0.97797  0.43275  1.0000
  H   H1671     1.0  0.52076  0.56121  0.35229  1.0000
  H   H1672     1.0  0.60700  0.94247  0.33306  1.0000
  H   H1673     1.0  0.53424  0.90537  0.35576  1.0000
  H   H1674     1.0  0.65949  0.74486  0.36845  1.0000
  H   H1675     1.0  0.97014  0.71252  0.35908  1.0000
  N   N94       1.0  0.74773  0.89915  0.33460  1.0000
  H   H1676     1.0  0.58325  0.93051  0.35406  1.0000
  C   C1402     1.0  0.63692  0.60926  0.36729  1.0000
  H   H1677     1.0  0.77426  0.87696  0.33047  1.0000
  H   H1678     1.0  0.77641  0.86183  0.48680  1.0000
  H   H1679     1.0  0.84230  0.71505  0.41802  1.0000
  C   C1403     1.0  0.58193  0.59605  0.37537  1.0000
  H   H1680     1.0  0.71936  0.78366  0.34773  1.0000
  C   C1404     1.0  0.95032  0.71654  0.35894  1.0000
  H   H1681     1.0  0.74726  0.87108  0.35001  1.0000
  H   H1682     1.0  0.93444  0.76780  0.41429  1.0000
  C   C1405     1.0  0.66924  0.82508  0.35290  1.0000
  H   H1683     1.0  0.94154  0.69458  0.47315  1.0000
  H   H1684     1.0  0.94961  0.72707  0.36766  1.0000
  H   H1685     1.0  0.55072  0.54057  0.34419  1.0000
  H   H1686     1.0  0.56624  0.53798  0.35935  1.0000
  C   C1406     1.0  0.60349  0.60905  0.38334  1.0000
  H   H1687     1.0  0.58754  0.59601  0.33693  1.0000
  H   H1688     1.0  0.65827  0.61515  0.36405  1.0000
  H   H1689     1.0  0.94955  0.67591  0.34647  1.0000
  H   H1690     1.0  0.95162  0.73005  0.35046  1.0000
  C   C1407     1.0  0.71785  0.85438  0.32828  1.0000
  C   C1408     1.0  0.67942  0.80426  0.35390  1.0000
  C   C1409     1.0  0.53684  0.57089  0.35930  1.0000
  H   H1691     1.0  0.94515  0.70756  0.43894  1.0000
  C   C1410     1.0  0.61558  0.59640  0.35922  1.0000
  C   C1411     1.0  0.82675  0.73765  0.44564  1.0000
  C   C1412     1.0  0.85172  0.75600  0.44992  1.0000
  C   C1413     1.0  0.80566  0.72561  0.45500  1.0000
  C   C1414     1.0  0.85513  0.76219  0.46271  1.0000
  C   C1415     1.0  0.80948  0.73171  0.46778  1.0000
  C   C1416     1.0  0.83400  0.75010  0.47160  1.0000
  H   H1692     1.0  0.79226  0.69322  0.43443  1.0000
  C   C1417     1.0  0.82697  0.75600  0.42407  1.0000
  H   H1693     1.0  0.86862  0.76594  0.44337  1.0000
  H   H1694     1.0  0.87402  0.77670  0.46580  1.0000
  H   H1695     1.0  0.79301  0.72251  0.47476  1.0000
  H   H1696     1.0  0.83642  0.75519  0.48146  1.0000
  C   C1418     1.0  0.63049  0.79880  0.34106  1.0000
  C   C1419     1.0  0.58739  0.58944  0.36298  1.0000
  H   H1697     1.0  0.68032  0.84348  0.35709  1.0000
  H   H1698     1.0  0.72639  0.89093  0.35272  1.0000
  H   H1699     1.0  0.76330  0.90442  0.35372  1.0000
  C   C1420     1.0  0.96057  0.74643  0.46877  1.0000
  H   H1700     1.0  0.58730  0.55372  0.34564  1.0000
  H   H1701     1.0  0.50831  0.85022  0.33740  1.0000
  H   H1702     1.0  0.73846  0.89365  0.49124  1.0000
  C   C1421     1.0  0.94035  0.72543  0.43820  1.0000
  H   H1703     1.0  0.94396  0.72642  0.41776  1.0000
  H   H1704     1.0  0.91501  0.73959  0.35849  1.0000
  N   N95       1.0  0.93704  0.72774  0.46227  1.0000
  H   H1705     1.0  0.81161  0.76509  0.42691  1.0000
  C   C1422     1.0  0.92983  0.77235  0.43433  1.0000
  N   N96       1.0  0.56522  0.57640  0.35410  1.0000
  C   C1423     1.0  0.87142  0.72516  0.35906  1.0000
  H   H1706     1.0  0.84365  0.70299  0.43415  1.0000
  C   C1424     1.0  0.56751  0.55108  0.35070  1.0000
  C   C1425     1.0  0.84851  0.67836  0.35939  1.0000
  Fe  Fe181     1.0  0.98006  0.75454  0.38709  1.0000
  H   H1707     1.0  0.90868  0.74373  0.47117  1.0000
  H   H1708     1.0  0.49450  0.87089  0.35533  1.0000
  H   H1709     1.0  0.69426  0.76780  0.36822  1.0000
  C   C1426     1.0  0.64036  0.77781  0.34205  1.0000
  H   H1710     1.0  0.92809  0.69121  0.33808  1.0000
  H   H1711     1.0  0.70293  0.77248  0.33302  1.0000
  H   H1712     1.0  0.63699  0.83845  0.34562  1.0000
  H   H1713     1.0  0.96323  0.73879  0.47853  1.0000
  H   H1714     1.0  0.98031  0.75014  0.46342  1.0000
  C   C1427     1.0  0.71541  0.78007  0.48884  1.0000
  H   H1715     1.0  0.48689  0.90092  0.35245  1.0000
  C   C1428     1.0  0.75044  0.92729  0.33358  1.0000
  H   H1716     1.0  0.79217  0.91040  0.33343  1.0000
  C   C1429     1.0  0.67126  0.94113  0.33008  1.0000
  S   S370      1.0  0.62647  0.64599  0.32772  1.0000
  C   C1430     1.0  0.75311  0.97776  0.45597  1.0000
  H   H1717     1.0  0.61145  0.79676  0.33607  1.0000
  H   H1718     1.0  0.65652  0.73741  0.33335  1.0000
  C   C1431     1.0  0.77327  0.89702  0.32902  1.0000
  H   H1719     1.0  0.73132  0.84566  0.33315  1.0000
  H   H1720     1.0  0.57196  0.73631  0.32588  1.0000
  S   S371      1.0  0.80581  0.98563  0.39389  1.0000
  C   C1432     1.0  0.48510  0.88176  0.34858  1.0000
  Fe  Fe182     1.0  0.77058  0.93050  0.63577  1.0000
  S   S372      1.0  0.74139  0.94420  0.62378  1.0000
  S   S373      1.0  0.75583  0.88973  0.64574  1.0000
  H   H1721     1.0  0.69785  0.62140  0.61272  1.0000
  Fe  Fe183     1.0  0.77742  0.96113  0.60994  1.0000
  S   S374      1.0  0.78015  0.94946  0.58955  1.0000
  N   N97       1.0  0.68016  0.63813  0.62725  1.0000
  S   S375      1.0  0.80553  0.94541  0.62164  1.0000
  S   S376      1.0  0.96241  0.76500  0.65013  1.0000
  Fe  Fe184     1.0  0.80723  0.70891  0.63683  1.0000
  S   S377      1.0  0.76446  0.68047  0.63399  1.0000
  H   H1722     1.0  0.72055  0.63519  0.62538  1.0000
  Fe  Fe185     1.0  0.78754  0.75515  0.63985  1.0000
  S   S378      1.0  0.74318  0.72988  0.63780  1.0000
  S   S379      1.0  0.80673  0.79975  0.63874  1.0000
  Fe  Fe186     1.0  0.75271  0.69914  0.65057  1.0000
  Fe  Fe187     1.0  0.75862  0.71306  0.62152  1.0000
  S   S380      1.0  0.73514  0.71063  0.60303  1.0000
  H   H1723     1.0  0.87909  0.71097  0.50589  1.0000
  S   S381      1.0  0.80234  0.73959  0.62294  1.0000
  H   H1724     1.0  0.75715  0.86880  0.53467  1.0000
  C   C1433     1.0  0.74187  0.85903  0.61313  1.0000
  H   H1725     1.0  0.92015  0.80630  0.49469  1.0000
  H   H1726     1.0  0.89759  0.72144  0.53092  1.0000
  Fe  Fe188     1.0  0.81516  0.95507  0.50914  1.0000
  S   S382      1.0  0.84213  0.93274  0.51636  1.0000
  S   S383      1.0  0.76896  0.93731  0.50900  1.0000
  Fe  Fe189     1.0  0.78334  0.73857  0.53023  1.0000
  S   S384      1.0  0.80990  0.78104  0.52941  1.0000
  S   S385      1.0  0.78930  0.71520  0.54799  1.0000
  H   H1727     1.0  0.72414  0.77896  0.61327  1.0000
  H   H1728     1.0  0.83667  0.96018  0.53805  1.0000
  Fe  Fe190     1.0  0.82038  0.77540  0.50938  1.0000
  S   S386      1.0  0.86301  0.79471  0.50073  1.0000
  Fe  Fe191     1.0  0.77285  0.78759  0.52103  1.0000
  S   S387      1.0  0.75868  0.81865  0.52867  1.0000
  S   S388      1.0  0.79692  0.73221  0.51062  1.0000
  S   S389      1.0  0.74530  0.74535  0.52265  1.0000
  H   H1729     1.0  0.83672  0.95079  0.64685  1.0000
  C   C1434     1.0  0.88299  0.77437  0.50021  1.0000
  C   C1435     1.0  0.87143  0.74740  0.50308  1.0000
  H   H1730     1.0  0.80298  0.81596  0.59480  1.0000
  C   C1436     1.0  0.91657  0.74325  0.50129  1.0000
  C   C1437     1.0  0.92801  0.77004  0.49792  1.0000
  C   C1438     1.0  0.91117  0.78551  0.49718  1.0000
  H   H1731     1.0  0.70646  0.66481  0.64015  1.0000
  Fe  Fe192     1.0  0.77016  0.97557  0.51670  1.0000
  H   H1732     1.0  0.87841  0.96101  0.55967  1.0000
  H   H1733     1.0  0.83023  0.95565  0.55468  1.0000
  C   C1439     1.0  0.82076  0.90098  0.52135  1.0000
  C   C1440     1.0  0.79546  0.89712  0.52745  1.0000
  C   C1441     1.0  0.77699  0.87167  0.53023  1.0000
  C   C1442     1.0  0.78377  0.85001  0.52691  1.0000
  C   C1443     1.0  0.80955  0.85379  0.52126  1.0000
  C   C1444     1.0  0.82812  0.87931  0.51854  1.0000
  H   H1734     1.0  0.79001  0.91377  0.52997  1.0000
  H   H1735     1.0  0.71282  0.65603  0.61321  1.0000
  H   H1736     1.0  0.81484  0.83712  0.51861  1.0000
  C   C1445     1.0  0.65564  0.56681  0.63994  1.0000
  C   C1446     1.0  0.75167  0.71390  0.58789  1.0000
  C   C1447     1.0  0.73893  0.72032  0.57700  1.0000
  C   C1448     1.0  0.75086  0.72200  0.56477  1.0000
  C   C1449     1.0  0.77526  0.71645  0.56327  1.0000
  C   C1450     1.0  0.78808  0.71021  0.57418  1.0000
  C   C1451     1.0  0.77661  0.70933  0.58644  1.0000
  H   H1737     1.0  0.71955  0.72374  0.57798  1.0000
  H   H1738     1.0  0.74063  0.72659  0.55646  1.0000
  H   H1739     1.0  0.80683  0.70570  0.57312  1.0000
  H   H1740     1.0  0.78658  0.70423  0.59471  1.0000
  H   H1741     1.0  0.73138  0.86405  0.62100  1.0000
  C   C1452     1.0  0.92852  0.74495  0.64673  1.0000
  C   C1453     1.0  0.90711  0.75541  0.64605  1.0000
  C   C1454     1.0  0.88021  0.73955  0.64293  1.0000
  H   H1742     1.0  0.76944  0.84413  0.50190  1.0000
  S   S390      1.0  0.98307  0.71575  0.63116  1.0000
  C   C1455     1.0  0.92269  0.71846  0.64466  1.0000
  H   H1743     1.0  0.92540  0.73820  0.61859  1.0000
  C   C1456     1.0  0.68907  0.66335  0.63363  1.0000
  S   S391      1.0  0.84200  0.69278  0.63602  1.0000
  C   C1457     1.0  0.76877  0.86426  0.64267  1.0000
  C   C1458     1.0  0.79262  0.86886  0.63524  1.0000
  C   C1459     1.0  0.80365  0.84872  0.63394  1.0000
  C   C1460     1.0  0.79045  0.82354  0.63967  1.0000
  C   C1461     1.0  0.76583  0.81854  0.64657  1.0000
  C   C1462     1.0  0.75527  0.83894  0.64820  1.0000
  H   H1744     1.0  0.80279  0.88799  0.63064  1.0000
  H   H1745     1.0  0.82270  0.85276  0.62857  1.0000
  H   H1746     1.0  0.95270  0.84497  0.54444  1.0000
  H   H1747     1.0  0.76159  0.79989  0.58192  1.0000
  Fe  Fe193     1.0  0.98170  0.74791  0.50670  1.0000
  C   C1463     1.0  0.77353  0.94552  0.56386  1.0000
  C   C1464     1.0  0.76739  0.95297  0.55152  1.0000
  C   C1465     1.0  0.74672  0.78243  0.61318  1.0000
  H   H1748     1.0  0.78116  0.92935  0.56519  1.0000
  H   H1749     1.0  0.77011  0.94246  0.54347  1.0000
  N   N98       1.0  0.91693  0.71517  0.60200  1.0000
  C   C1466     1.0  0.92930  0.69664  0.60813  1.0000
  C   C1467     1.0  0.92869  0.74054  0.60807  1.0000
  C   C1468     1.0  0.88669  0.70433  0.60472  1.0000
  C   C1469     1.0  0.92230  0.71944  0.58808  1.0000
  C   C1470     1.0  0.94056  0.70955  0.58160  1.0000
  C   C1471     1.0  0.90952  0.73445  0.58060  1.0000
  C   C1472     1.0  0.94512  0.71398  0.56845  1.0000
  C   C1473     1.0  0.91427  0.73880  0.56745  1.0000
  C   C1474     1.0  0.93204  0.72855  0.56139  1.0000
  C   C1475     1.0  0.66320  0.58918  0.63164  1.0000
  H   H1750     1.0  0.66300  0.58632  0.62155  1.0000
  H   H1751     1.0  0.92149  0.67716  0.60392  1.0000
  H   H1752     1.0  0.95140  0.74933  0.60621  1.0000
  H   H1753     1.0  0.83984  0.92283  0.63952  1.0000
  H   H1754     1.0  0.91925  0.75510  0.60454  1.0000
  H   H1755     1.0  0.87661  0.68659  0.59931  1.0000
  H   H1756     1.0  0.88198  0.69854  0.61499  1.0000
  H   H1757     1.0  0.87614  0.71868  0.60241  1.0000
  H   H1758     1.0  0.95212  0.69879  0.58647  1.0000
  H   H1759     1.0  0.89585  0.74305  0.58490  1.0000
  H   H1760     1.0  0.95946  0.70654  0.56375  1.0000
  H   H1761     1.0  0.90413  0.75017  0.56194  1.0000
  H   H1762     1.0  0.93595  0.73205  0.55122  1.0000
  H   H1763     1.0  0.94982  0.77900  0.49604  1.0000
  H   H1764     1.0  0.77657  0.88650  0.58571  1.0000
  C   C1476     1.0  0.75817  0.82718  0.60292  1.0000
  C   C1477     1.0  0.75722  0.97363  0.54964  1.0000
  H   H1765     1.0  0.92445  0.69336  0.61853  1.0000
  H   H1766     1.0  0.88426  0.85487  0.65684  1.0000
  H   H1767     1.0  0.75064  0.76862  0.59021  1.0000
  C   C1478     1.0  0.67123  0.61475  0.63626  1.0000
  H   H1768     1.0  0.91033  0.82073  0.51579  1.0000
  C   C1479     1.0  0.79091  0.80408  0.60309  1.0000
  H   H1769     1.0  0.72784  0.87032  0.51102  1.0000
  H   H1770     1.0  0.80034  0.81387  0.61184  1.0000
  C   C1480     1.0  0.88810  0.73176  0.50338  1.0000
  H   H1771     1.0  0.64991  0.54749  0.63621  1.0000
  H   H1772     1.0  0.91141  0.77586  0.64778  1.0000
  H   H1773     1.0  0.73512  0.82086  0.62111  1.0000
  H   H1774     1.0  0.95226  0.70439  0.60728  1.0000
  N   N99       1.0  0.92915  0.81322  0.53311  1.0000
  C   C1481     1.0  0.91734  0.82977  0.52498  1.0000
  C   C1482     1.0  0.93646  0.82518  0.54554  1.0000
  C   C1483     1.0  0.95522  0.81378  0.52684  1.0000
  C   C1484     1.0  0.90852  0.78649  0.53515  1.0000
  C   C1485     1.0  0.91366  0.76351  0.53185  1.0000
  C   C1486     1.0  0.88233  0.78286  0.54079  1.0000
  C   C1487     1.0  0.89352  0.73864  0.53387  1.0000
  C   C1488     1.0  0.86246  0.75791  0.54281  1.0000
  C   C1489     1.0  0.86790  0.73586  0.53924  1.0000
  H   H1775     1.0  0.93265  0.84969  0.52273  1.0000
  H   H1776     1.0  0.74907  0.76294  0.61245  1.0000
  H   H1777     1.0  0.89909  0.83256  0.52945  1.0000
  H   H1778     1.0  0.91845  0.82774  0.55038  1.0000
  C   C1490     1.0  0.65572  0.56922  0.65305  1.0000
  H   H1779     1.0  0.97017  0.83413  0.52525  1.0000
  H   H1780     1.0  0.95140  0.80545  0.51731  1.0000
  C   C1491     1.0  0.89601  0.70271  0.64145  1.0000
  H   H1781     1.0  0.79399  0.78474  0.60330  1.0000
  H   H1782     1.0  0.93278  0.76414  0.52740  1.0000
  H   H1783     1.0  0.87676  0.79930  0.54352  1.0000
  H   H1784     1.0  0.88314  0.96143  0.54271  1.0000
  H   H1785     1.0  0.84244  0.75562  0.54697  1.0000
  H   H1786     1.0  0.95914  0.61084  0.65825  1.0000
  C   C1492     1.0  0.83752  0.97103  0.54681  1.0000
  H   H1787     1.0  0.78102  0.84311  0.58513  1.0000
  C   C1493     1.0  0.65709  0.63799  0.61878  1.0000
  C   C1494     1.0  0.72064  0.85124  0.50637  1.0000
  H   H1788     1.0  0.84766  0.88224  0.51380  1.0000
  H   H1789     1.0  0.75533  0.78944  0.62254  1.0000
  C   C1495     1.0  0.83473  0.92987  0.64861  1.0000
  H   H1790     1.0  0.73236  0.80445  0.50401  1.0000
  H   H1791     1.0  0.96610  0.80288  0.53273  1.0000
  H   H1792     1.0  0.89175  0.68228  0.63970  1.0000
  H   H1793     1.0  0.88836  0.93939  0.64605  1.0000
  H   H1794     1.0  0.85203  0.71665  0.54055  1.0000
  C   C1496     1.0  0.70378  0.63762  0.61932  1.0000
  H   H1795     1.0  0.81255  0.91892  0.65085  1.0000
  N   N100      1.0  0.76122  0.80108  0.60251  1.0000
  C   C1497     1.0  0.75356  0.87777  0.60331  1.0000
  C   C1498     1.0  0.87476  0.71321  0.64053  1.0000
  C   C1499     1.0  0.76750  0.87169  0.59330  1.0000
  S   S392      1.0  0.78597  0.78669  0.50080  1.0000
  H   H1796     1.0  0.75195  0.89715  0.60350  1.0000
  H   H1797     1.0  0.66311  0.65563  0.61203  1.0000
  S   S393      1.0  0.78510  0.96701  0.64685  1.0000
  S   S394      1.0  0.93753  0.72399  0.50330  1.0000
  H   H1798     1.0  0.72793  0.78741  0.58939  1.0000
  H   H1799     1.0  0.72464  0.83697  0.51331  1.0000
  H   H1800     1.0  0.65046  0.62064  0.61288  1.0000
  Fe  Fe194     1.0  0.76179  0.74368  0.50286  1.0000
  H   H1801     1.0  0.63873  0.63783  0.62442  1.0000
  H   H1802     1.0  0.67623  0.63493  0.65418  1.0000
  C   C1500     1.0  0.76994  0.95879  0.57446  1.0000
  C   C1501     1.0  0.74989  0.78884  0.59049  1.0000
  H   H1803     1.0  0.86382  0.74777  0.64226  1.0000
  C   C1502     1.0  0.76985  0.84681  0.59307  1.0000
  H   H1804     1.0  0.94451  0.81276  0.55208  1.0000
  H   H1805     1.0  0.93855  0.70989  0.64589  1.0000
  C   C1503     1.0  0.74416  0.83411  0.61303  1.0000
  H   H1806     1.0  0.69786  0.84524  0.50528  1.0000
  H   H1807     1.0  0.69643  0.68057  0.62665  1.0000
  C   C1504     1.0  0.88424  0.97409  0.55086  1.0000
  H   H1808     1.0  0.66868  0.98534  0.64363  1.0000
  H   H1809     1.0  0.67193  0.66578  0.63928  1.0000
  C   C1505     1.0  0.67061  0.61646  0.64969  1.0000
  H   H1810     1.0  0.84981  0.73854  0.50532  1.0000
  H   H1811     1.0  0.75556  0.79929  0.65110  1.0000
  C   C1506     1.0  0.72455  0.80419  0.49446  1.0000
  S   S395      1.0  0.79618  0.72624  0.65403  1.0000
  H   H1812     1.0  0.89200  0.90150  0.65475  1.0000
  C   C1507     1.0  0.88159  0.94396  0.65541  1.0000
  H   H1813     1.0  0.77375  0.87822  0.50090  1.0000
  H   H1814     1.0  0.82239  0.98146  0.54565  1.0000
  H   H1815     1.0  0.88310  0.96495  0.65432  1.0000
  H   H1816     1.0  0.73673  0.83517  0.65393  1.0000
  C   C1508     1.0  0.76486  0.85959  0.49596  1.0000
  S   S396      1.0  0.74887  0.98314  0.53421  1.0000
  C   C1509     1.0  0.75981  0.97951  0.57262  1.0000
  H   H1817     1.0  0.91464  0.66681  0.65746  1.0000
  N   N101      1.0  0.73482  0.85295  0.49390  1.0000
  C   C1510     1.0  0.66303  0.59395  0.65789  1.0000
  H   H1818     1.0  0.71614  0.76256  0.49408  1.0000
  Fe  Fe195     1.0  0.81767  0.98321  0.63150  1.0000
  Fe  Fe196     1.0  0.75870  0.98206  0.63390  1.0000
  H   H1819     1.0  0.82522  0.98459  0.56802  1.0000
  C   C1511     1.0  0.87173  0.88880  0.65795  1.0000
  C   C1512     1.0  0.73140  0.62896  0.67226  1.0000
  H   H1820     1.0  0.71736  0.52193  0.80729  1.0000
  S   S397      1.0  0.84925  0.52177  0.80853  1.0000
  H   H1821     1.0  0.76508  0.66017  0.73948  1.0000
  Fe  Fe197     1.0  0.91405  0.53312  0.73884  1.0000
  S   S398      1.0  0.87796  0.50415  0.72950  1.0000
  S   S399      1.0  0.92448  0.52689  0.75957  1.0000
  Fe  Fe198     1.0  0.93569  0.56584  0.71344  1.0000
  S   S400      1.0  0.90126  0.53881  0.70254  1.0000
  H   H1822     1.0  0.79319  0.49391  0.76674  1.0000
  Fe  Fe199     1.0  0.87403  0.53971  0.71899  1.0000
  S   S401      1.0  0.83511  0.54752  0.71371  1.0000
  Fe  Fe200     1.0  0.90845  0.50558  0.71399  1.0000
  S   S402      1.0  0.90788  0.56887  0.72941  1.0000
  S   S403      1.0  0.94512  0.53243  0.72382  1.0000
  H   H1823     1.0  0.80520  0.54964  0.81143  1.0000
  S   S404      1.0  0.64089  0.53808  0.72708  1.0000
  S   S405      1.0  0.96932  0.60306  0.70502  1.0000
  N   N102      1.0  0.76209  0.53960  0.80653  1.0000
  S   S406      1.0  0.70443  0.54168  0.73222  1.0000
  C   C1513     1.0  0.97538  0.61932  0.68954  1.0000
  Fe  Fe201     1.0  0.66697  0.53709  0.74422  1.0000
  S   S407      1.0  0.67400  0.56521  0.76010  1.0000
  Fe  Fe202     1.0  0.67780  0.53953  0.71506  1.0000
  S   S408      1.0  0.70022  0.56512  0.69733  1.0000
  H   H1824     1.0  0.86850  0.52854  0.76240  1.0000
  H   H1825     1.0  0.66177  0.51500  0.80203  1.0000
  C   C1514     1.0  0.80346  0.52646  0.72029  1.0000
  C   C1515     1.0  0.77895  0.52791  0.71511  1.0000
  C   C1516     1.0  0.75333  0.51295  0.72063  1.0000
  H   H1826     1.0  0.94109  0.71084  0.67582  1.0000
  H   H1827     1.0  0.70451  0.49104  0.76502  1.0000
  C   C1517     1.0  0.77641  0.49360  0.73616  1.0000
  H   H1828     1.0  0.77966  0.54059  0.70675  1.0000
  H   H1829     1.0  0.73457  0.51440  0.71658  1.0000
  H   H1830     1.0  0.70388  0.50050  0.78115  1.0000
  C   C1518     1.0  0.83985  0.63745  0.67422  1.0000
  C   C1519     1.0  0.71657  0.64537  0.67508  1.0000
  C   C1520     1.0  0.69636  0.63694  0.68492  1.0000
  C   C1521     1.0  0.69103  0.61260  0.69182  1.0000
  C   C1522     1.0  0.70586  0.59619  0.68900  1.0000
  C   C1523     1.0  0.72603  0.60460  0.67915  1.0000
  H   H1831     1.0  0.83979  0.52645  0.78164  1.0000
  H   H1832     1.0  0.92655  0.64296  0.66541  1.0000
  H   H1833     1.0  0.67523  0.60642  0.69924  1.0000
  H   H1834     1.0  0.73759  0.59212  0.67680  1.0000
  H   H1835     1.0  0.95429  0.51966  0.69617  1.0000
  C   C1524     1.0  0.65566  0.97806  0.66330  1.0000
  C   C1525     1.0  0.87037  0.52314  0.79498  1.0000
  C   C1526     1.0  0.89697  0.52199  0.79619  1.0000
  C   C1527     1.0  0.91325  0.52327  0.78524  1.0000
  C   C1528     1.0  0.90315  0.52565  0.77299  1.0000
  C   C1529     1.0  0.87649  0.52669  0.77177  1.0000
  C   C1530     1.0  0.86024  0.52549  0.78272  1.0000
  C   C1531     1.0  0.76013  0.56310  0.81243  1.0000
  H   H1836     1.0  0.93072  0.66955  0.69735  1.0000
  C   C1532     1.0  0.68089  0.55674  0.80363  1.0000
  C   C1533     1.0  0.69027  0.58106  0.79686  1.0000
  C   C1534     1.0  0.68784  0.58290  0.78363  1.0000
  C   C1535     1.0  0.67626  0.56044  0.77682  1.0000
  C   C1536     1.0  0.66701  0.53578  0.78346  1.0000
  C   C1537     1.0  0.66923  0.53392  0.79690  1.0000
  H   H1837     1.0  0.69926  0.59876  0.80191  1.0000
  H   H1838     1.0  0.69486  0.60202  0.77865  1.0000
  H   H1839     1.0  0.78771  0.51544  0.80868  1.0000
  C   C1538     1.0  0.73627  0.51720  0.80957  1.0000
  H   H1840     1.0  0.91161  0.70197  0.68652  1.0000
  N   N103      1.0  0.91766  0.66929  0.67785  1.0000
  H   H1841     1.0  0.66318  0.59572  0.66812  1.0000
  C   C1539     1.0  0.91943  0.69719  0.67746  1.0000
  C   C1540     1.0  0.78518  0.53311  0.81263  1.0000
  C   C1541     1.0  0.88872  0.65170  0.68022  1.0000
  C   C1542     1.0  0.88118  0.63096  0.68985  1.0000
  C   C1543     1.0  0.86720  0.65418  0.67236  1.0000
  C   C1544     1.0  0.85376  0.61420  0.69156  1.0000
  H   H1842     1.0  0.84855  0.59830  0.69885  1.0000
  C   C1545     1.0  0.83313  0.61750  0.68380  1.0000
  H   H1843     1.0  0.95824  0.55330  0.69200  1.0000
  H   H1844     1.0  0.80033  0.83871  0.66863  1.0000
  H   H1845     1.0  0.74219  0.56835  0.80893  1.0000
  H   H1846     1.0  0.72950  0.97502  0.66489  1.0000
  C   C1546     1.0  0.93706  0.66603  0.68770  1.0000
  H   H1847     1.0  0.84831  0.95703  0.67001  1.0000
  H   H1848     1.0  0.82383  0.63983  0.66807  1.0000
  C   C1547     1.0  0.78348  0.61771  0.74031  1.0000
  C   C1548     1.0  0.75199  0.49596  0.73123  1.0000
  H   H1849     1.0  0.85699  0.93182  0.67900  1.0000
  C   C1549     1.0  0.79159  0.54902  0.77248  1.0000
  S   S409      1.0  0.65353  0.49341  0.74627  1.0000
  S   S410      1.0  0.66457  0.49509  0.71509  1.0000
  H   H1850     1.0  0.65749  0.51838  0.77830  1.0000
  C   C1550     1.0  0.76971  0.60234  0.71931  1.0000
  H   H1851     1.0  0.82260  0.92580  0.67326  1.0000
  C   C1551     1.0  0.84993  0.89839  0.66059  1.0000
  H   H1852     1.0  0.90741  0.70228  0.66964  1.0000
  Fe  Fe203     1.0  0.68908  0.49794  0.73299  1.0000
  H   H1853     1.0  0.73439  0.66113  0.73181  1.0000
  H   H1854     1.0  0.73619  0.62129  0.75178  1.0000
  H   H1855     1.0  0.80706  0.54233  0.79050  1.0000
  C   C1552     1.0  0.75155  0.65310  0.73125  1.0000
  N   N104      1.0  0.74092  0.62410  0.73116  1.0000
  S   S411      1.0  0.72155  0.67595  0.66637  1.0000
  H   H1856     1.0  0.93856  0.64610  0.68791  1.0000
  H   H1857     1.0  0.60584  0.98052  0.69370  1.0000
  C   C1553     1.0  0.76448  0.61448  0.73021  1.0000
  H   H1858     1.0  0.94702  0.58785  0.67961  1.0000
  H   H1859     1.0  0.93399  0.52286  0.78625  1.0000
  C   C1554     1.0  0.96207  0.60743  0.67871  1.0000
  H   H1860     1.0  0.73434  0.51104  0.81987  1.0000
  H   H1861     1.0  0.90517  0.52054  0.80555  1.0000
  H   H1862     1.0  0.94921  0.67641  0.66320  1.0000
  C   C1555     1.0  0.81049  0.59712  0.72884  1.0000
  H   H1863     1.0  0.83869  0.82317  0.66362  1.0000
  C   C1556     1.0  0.76555  0.54468  0.79255  1.0000
  H   H1864     1.0  0.89605  0.62696  0.69612  1.0000
  C   C1557     1.0  0.74439  0.54945  0.78526  1.0000
  C   C1558     1.0  0.78957  0.54509  0.78576  1.0000
  C   C1559     1.0  0.74645  0.55310  0.77199  1.0000
  C   C1560     1.0  0.76992  0.55264  0.76559  1.0000
  H   H1865     1.0  0.81003  0.54905  0.76748  1.0000
  C   C1561     1.0  0.79257  0.59410  0.71868  1.0000
  H   H1866     1.0  0.72596  0.55026  0.78981  1.0000
  C   C1562     1.0  0.92742  0.66370  0.66545  1.0000
  H   H1867     1.0  0.76389  0.66195  0.72242  1.0000
  H   H1868     1.0  0.70507  0.61715  0.74350  1.0000
  H   H1869     1.0  0.71952  0.59155  0.74406  1.0000
  C   C1563     1.0  0.80221  0.50905  0.73075  1.0000
  H   H1870     1.0  0.82105  0.50784  0.73480  1.0000
  C   C1564     1.0  0.72145  0.61677  0.72046  1.0000
  H   H1871     1.0  0.73156  0.62571  0.71117  1.0000
  H   H1872     1.0  0.77907  0.58047  0.81038  1.0000
  H   H1873     1.0  0.72969  0.55627  0.76665  1.0000
  H   H1874     1.0  0.77136  0.55519  0.75528  1.0000
  H   H1875     1.0  0.78108  0.62709  0.74881  1.0000
  H   H1876     1.0  0.82788  0.59022  0.72831  1.0000
  S   S412      1.0  0.68583  0.55664  0.82033  1.0000
  H   H1877     1.0  0.68456  0.64928  0.68715  1.0000
  C   C1565     1.0  0.80599  0.60894  0.73964  1.0000
  H   H1878     1.0  0.78171  0.52877  0.82308  1.0000
  C   C1566     1.0  0.82412  0.87952  0.66456  1.0000
  H   H1879     1.0  0.74688  0.63493  0.66471  1.0000
  H   H1880     1.0  0.75718  0.55990  0.82295  1.0000
  H   H1881     1.0  0.95850  0.67992  0.68582  1.0000
  H   H1882     1.0  0.75637  0.59872  0.71116  1.0000
  H   H1883     1.0  0.71275  0.59511  0.71981  1.0000
  H   H1884     1.0  0.81196  0.60435  0.68511  1.0000
  H   H1885     1.0  0.79632  0.58503  0.71028  1.0000
  C   C1567     1.0  0.84490  0.93562  0.67082  1.0000
  C   C1568     1.0  0.72490  0.61319  0.74312  1.0000
  H   H1886     1.0  0.73568  0.49981  0.80437  1.0000
  H   H1887     1.0  0.95499  0.53059  0.67987  1.0000
  H   H1888     1.0  0.82011  0.61138  0.74750  1.0000
  H   H1889     1.0  0.87131  0.66886  0.66457  1.0000
  H   H1890     1.0  0.70350  0.62351  0.72155  1.0000
  C   C1569     1.0  0.96887  0.62063  0.66659  1.0000
  Fe  Fe204     1.0  0.62950  0.49371  0.72835  1.0000
  C   C1570     1.0  0.96429  0.53650  0.68924  1.0000
  H   H1891     1.0  0.89656  0.94256  0.66280  1.0000
  H   H1892     1.0  0.71595  0.98080  0.68693  1.0000
  C   C1571     1.0  0.84204  0.84402  0.66308  1.0000
  H   H1893     1.0  0.66392  0.96229  0.66479  1.0000
  H   H1894     1.0  0.80623  0.88510  0.66626  1.0000
  C   C1572     1.0  0.82042  0.85282  0.66589  1.0000
  H   H1895     1.0  0.64332  0.97580  0.68257  1.0000
  C   C1573     1.0  0.86764  0.86196  0.65916  1.0000
  N   N105      1.0  0.85301  0.92649  0.65890  1.0000
  C   C1574     1.0  0.64361  0.98607  0.67348  1.0000
  H   H1896     1.0  0.65024  0.55193  0.65952  1.0000
  Fe  Fe205     1.0  0.62474  0.52595  0.97754  1.0000
  C   C1575     1.0  0.81623  0.51947  0.92680  1.0000
  Fe  Fe206     1.0  0.67874  0.49885  0.86115  1.0000
  Fe  Fe207     1.0  0.64197  0.51876  0.94963  1.0000
  C   C1576     1.0  0.76152  0.58196  0.89521  1.0000
  S   S413      1.0  0.63701  0.52878  0.92864  1.0000
  H   H1897     1.0  0.82702  0.52784  0.87919  1.0000
  Fe  Fe208     1.0  0.68161  0.52172  0.97119  1.0000
  S   S414      1.0  0.72755  0.54044  0.97484  1.0000
  C   C1577     1.0  0.95288  0.53758  0.89099  1.0000
  S   S415      1.0  0.65967  0.54921  0.96401  1.0000
  Fe  Fe209     1.0  0.67120  0.52113  0.83413  1.0000
  S   S416      1.0  0.94373  0.53659  0.95543  1.0000
  Fe  Fe210     1.0  0.86412  0.50824  0.96137  1.0000
  S   S417      1.0  0.88886  0.55089  0.96299  1.0000
  H   H1898     1.0  0.76736  0.52478  0.87424  1.0000
  Fe  Fe211     1.0  0.90971  0.54594  0.94489  1.0000
  S   S418      1.0  0.91709  0.57523  0.92792  1.0000
  Fe  Fe212     1.0  0.92076  0.53752  0.97351  1.0000
  H   H1899     1.0  0.78688  0.56066  0.97431  1.0000
  S   S419      1.0  0.88370  0.50419  0.94285  1.0000
  H   H1900     1.0  0.69922  0.49065  0.90770  1.0000
  H   H1901     1.0  0.79208  0.54757  0.88368  1.0000
  S   S420      1.0  0.69800  0.50372  0.88087  1.0000
  C   C1578     1.0  0.93367  0.49788  0.91843  1.0000
  C   C1579     1.0  0.78391  0.49297  0.91196  1.0000
  N   N106      1.0  0.78697  0.50697  0.88830  1.0000
  C   C1580     1.0  0.96608  0.54187  0.91734  1.0000
  C   C1581     1.0  0.72770  0.56743  0.91244  1.0000
  S   S421      1.0  0.64762  0.51551  0.85284  1.0000
  C   C1582     1.0  0.68495  0.50122  0.90640  1.0000
  Fe  Fe213     1.0  0.88022  0.53333  0.85565  1.0000
  H   H1902     1.0  0.73349  0.52302  0.94671  1.0000
  S   S422      1.0  0.89107  0.56709  0.86867  1.0000
  C   C1583     1.0  0.55757  0.97169  0.98797  1.0000
  N   N107      1.0  0.95953  0.51558  0.91215  1.0000
  C   C1584     1.0  0.68000  0.50964  0.89405  1.0000
  H   H1903     1.0  0.96995  0.54151  0.92776  1.0000
  C   C1585     1.0  0.79383  0.49722  0.92435  1.0000
  S   S423      1.0  0.83953  0.52057  0.84568  1.0000
  S   S424      1.0  0.90414  0.53135  0.83789  1.0000
  H   H1904     1.0  0.81997  0.49350  0.88294  1.0000
  H   H1905     1.0  0.76094  0.52876  0.93526  1.0000
  H   H1906     1.0  0.72563  0.51800  0.93029  1.0000
  H   H1907     1.0  0.54124  0.95318  0.98547  1.0000
  H   H1908     1.0  0.80330  0.58626  0.90014  1.0000
  H   H1909     1.0  0.82953  0.54844  0.89715  1.0000
  C   C1586     1.0  0.58014  0.97682  0.96762  1.0000
  H   H1910     1.0  0.94416  0.51427  0.86131  1.0000
  C   C1587     1.0  0.90799  0.57070  0.91169  1.0000
  C   C1588     1.0  0.91595  0.59305  0.90340  1.0000
  C   C1589     1.0  0.91043  0.59123  0.89039  1.0000
  C   C1590     1.0  0.89719  0.56697  0.88528  1.0000
  C   C1591     1.0  0.88896  0.54425  0.89349  1.0000
  C   C1592     1.0  0.89415  0.54616  0.90673  1.0000
  C   C1593     1.0  0.77563  0.57294  0.91639  1.0000
  H   H1911     1.0  0.94603  0.55359  0.87260  1.0000
  H   H1912     1.0  0.87845  0.52538  0.88969  1.0000
  H   H1913     1.0  0.88723  0.52883  0.91308  1.0000
  C   C1594     1.0  0.75227  0.52545  0.97156  1.0000
  C   C1595     1.0  0.78215  0.58095  0.90359  1.0000
  H   H1914     1.0  0.70620  0.56214  0.91517  1.0000
  C   C1596     1.0  0.79288  0.50327  0.96566  1.0000
  C   C1597     1.0  0.80080  0.52947  0.96880  1.0000
  C   C1598     1.0  0.78056  0.54045  0.97178  1.0000
  C   C1599     1.0  0.77594  0.52780  0.88399  1.0000
  H   H1915     1.0  0.71368  0.57982  0.93691  1.0000
  H   H1916     1.0  0.82250  0.54116  0.96909  1.0000
  C   C1600     1.0  0.79650  0.51100  0.90158  1.0000
  C   C1601     1.0  0.65328  0.52034  0.91553  1.0000
  H   H1917     1.0  0.92657  0.61207  0.90706  1.0000
  H   H1918     1.0  0.71147  0.55585  0.94960  1.0000
  S   S425      1.0  0.70458  0.50876  0.84314  1.0000
  C   C1602     1.0  0.66141  0.52318  0.89249  1.0000
  C   C1603     1.0  0.64846  0.52881  0.90319  1.0000
  H   H1919     1.0  0.75709  0.57132  0.95348  1.0000
  H   H1920     1.0  0.76650  0.58793  0.88526  1.0000
  H   H1921     1.0  0.65755  0.52994  0.88306  1.0000
  H   H1922     1.0  0.63467  0.53991  0.90190  1.0000
  H   H1923     1.0  0.76756  0.59625  0.94085  1.0000
  H   H1924     1.0  0.60165  0.49191  0.89315  1.0000
  S   S426      1.0  0.60490  0.49827  0.96225  1.0000
  H   H1925     1.0  0.91673  0.60890  0.88420  1.0000
  H   H1926     1.0  0.62732  0.93370  0.98985  1.0000
  C   C1604     1.0  0.73430  0.57480  0.89959  1.0000
  H   H1927     1.0  0.91570  0.50362  0.91550  1.0000
  H   H1928     1.0  0.95323  0.55532  0.89527  1.0000
  H   H1929     1.0  0.71809  0.57482  0.89300  1.0000
  H   H1930     1.0  0.80359  0.50424  0.86981  1.0000
  C   C1605     1.0  0.74437  0.49930  0.96834  1.0000
  H   H1931     1.0  0.93481  0.49842  0.92897  1.0000
  H   H1932     1.0  0.69698  0.54517  0.93485  1.0000
  H   H1933     1.0  0.67485  0.49915  0.92649  1.0000
  H   H1934     1.0  0.75872  0.52791  0.89038  1.0000
  C   C1606     1.0  0.94959  0.49283  0.87827  1.0000
  C   C1607     1.0  0.95341  0.49315  0.89144  1.0000
  H   H1935     1.0  0.78309  0.57108  0.94276  1.0000
  H   H1936     1.0  0.79218  0.57155  0.92237  1.0000
  S   S427      1.0  0.64797  0.50060  0.98566  1.0000
  H   H1937     1.0  0.56406  0.96024  0.96329  1.0000
  N   N108      1.0  0.74177  0.55843  0.93490  1.0000
  C   C1608     1.0  0.71487  0.56001  0.93914  1.0000
  C   C1609     1.0  0.74048  0.53088  0.93686  1.0000
  C   C1610     1.0  0.76335  0.57504  0.94324  1.0000
  C   C1611     1.0  0.74834  0.56679  0.92131  1.0000
  H   H1938     1.0  0.59500  0.96873  0.97243  1.0000
  C   C1612     1.0  0.67127  0.50612  0.91707  1.0000
  C   C1613     1.0  0.81042  0.50828  0.87976  1.0000
  S   S428      1.0  0.66545  0.49268  0.95619  1.0000
  Fe  Fe214     1.0  0.86277  0.51439  0.82865  1.0000
  C   C1614     1.0  0.94737  0.51469  0.87150  1.0000
  C   C1615     1.0  0.76460  0.48832  0.96538  1.0000
  H   H1939     1.0  0.84631  0.55497  0.91885  1.0000
  C   C1616     1.0  0.81896  0.53374  0.90449  1.0000
  C   C1617     1.0  0.82866  0.53778  0.91691  1.0000
  C   C1618     1.0  0.95581  0.51578  0.89818  1.0000
  H   H1940     1.0  0.82411  0.52235  0.93639  1.0000
  C   C1619     1.0  0.94869  0.53689  0.87785  1.0000
  S   S429      1.0  0.89381  0.49479  0.97320  1.0000
  S   S430      1.0  0.87629  0.49345  0.86361  1.0000
  Fe  Fe215     1.0  0.91547  0.49475  0.95478  1.0000
  H   H1941     1.0  0.57547  0.63620  0.99149  1.0000
  S   S431      1.0  0.59274  0.53703  0.98922  1.0000
  Fe  Fe216     1.0  0.89660  0.48993  0.84527  1.0000
  H   H1942     1.0  0.51162  0.97836  0.98384  1.0000
  S   S432      1.0  0.81738  0.48835  0.96192  1.0000
  H   H1943     1.0  0.94858  0.54925  0.91629  1.0000
  H   H1944     1.0  0.72269  0.48748  0.96819  1.0000
  C   C1620     1.0  0.98242  0.50597  0.91576  1.0000
