data_image0
_chemical_formula_structural       HFeCHFeHSNHFeS3FeSHS2H5FeS2H2SHSFeSCSFeS2HC2H2CSHC3SC2H2FeH2C2H3CH5SHC2SHC6H5C9H6C6H4C6H4C2HC2H2C2HC2FeCNHS2C3HCH3Fe2H3CH2SHC5SH3NHC3NCHCNCHCHCH4CH5CHSC2H2CHNCH8C2H2C4HFeHSCHCH2CHCFeHCHCH2C2H2FeCH2CSHC2HCFeS2FeS2FeSFeS3FeHSC2HCHC2SFeS2FeS2FeSFeHS3H4SFeSFeS3FeS2FeS2FeSFeS3H2FeS2CSCFeCFeS3H2CFeS3HFeSHSC6H5C4H3CHCHCHNSH3C6H4C5H2C7H6C3H2SH2SC7H4C4H2C6H5CH2C9H4C6H4C3H2C6H4C2HC2H2NFeNC6HCH2CH2CNH2C3H3SH2CH4CH3NCHCHCSCSH2CHSHCHC2NC6HCH6SH3FeSCH2C3H3FeCH3C2S3HCNH2CH2C2HC2HCFeH2NHCNCH2C7HC3HS2CH5NC9H15CH4C7NH8CHCH4CH3FeCHCNCH4FeHS2HSNFeHNH2C3FeC2FeC3HNC2H2CH3CH2CH2CNCHCSH4SH3C2H2C2HSCHC3HCH2C2H2CHCNSCSHC2SH2CH2C2H5CHSCH3CH3CSH10C2SHCSHFeH2CHCH2CH2C2H2FeHCFeHSC3HCH2CH5C3HC3HC2H2C2H3FeC3H4CH3FeCHCH2C3H2SCH5SCHC2FeC3HC2HCH5SH2CH2C2H3CH5CH2CHCHNCHSC4H3CNHCFeSCFeSFeSFeS3HFeSH2SHFeSFeSHSHFeCSCHS2C2SHCHC2H2C4HC2HNFeC2H3CHFeS2FeS2FeHFeS3HSHFeSCFeSFeHS2H2C2H2CH2CHSHCSHC2HCH2C2H6C6H4C2HCH2C2HCH4CH3CHC2SC3H8CHFeHC3H3CH2SH2CH2CH2CHSHCSCSC5HC2HC2SH2C7HCH2C6H4C3H3C7H2NC4H2CHC3NC2H3CFeSC2HCH3CH6CH3C2H2CNC8H2CH3CSH4NC6HCH15CHSH4CHC3H5CH2NH2NHC2HCH2CH10C4HC2H2CHCNCH2CHSHC7H3SCH2CHC6NHCH4FeHFeSFeS2FeSFeS3HSHSCFeSH2SH2SH2CH5CHC3SH2SNFeSHFeS2FeSFeS3FeSCFeS2FeCFeS3CH2C4FeH3CHCH3SHC4HSH4CHC2H2C3H3C6H5CHC3HSH3CH2C4H3C4FeC8H4CNH2C2HC4H2C2HCH2CHC3HSHCHC2HC2HFeHC3H3C6HCH2C6H4CSC3H4SCHC2HCH8SCH2CHC2H3NC2H2CHC3H4CHCSH4C2HCH3C3H2CH7CH3C4H5NH3CH2CHCH2NC2H3C2HNCHNCHFeH2NH8NC3SCH4CHC8H4C2H2SH5C2H2CH2CSCHCSH2C4HSHCH2C2H3FeH3CH5SHC2FeSHNCHCFeCH3CHCNCNC2HCHC2H2FeSNHCHC2SH2CFeSHFeSNHNSNH2FeS2FeS2FeS2FeS2FeSFeS3FeS2FeS2FeSFeS3FeS2FeS3H2FeHSCHFeHFeSHFeS2FeS2FeSFeS3FeS2FeS2FeSFeS3CHFeHC3H2C6H4C3H2SH3SCHNHSCHCH2C6H5C6H4C2HSHCH3C6H4C6H4C6H4C6H4C6H4C6H10SC2FeC2FeCSCH2C2HC7H4CH4S2C3HC3H5CHC5NC7H6CH6CHFeC2HCSCFeHC3S2H2CSHCSH2CNC9H14C2H3C3HC4HCHSH2C2HC3NHC4HSHCHCNHSC2HCSCFeH2NC9H15CH4CHCHC2HFeHSH4C2SH4FeHCH2CH2CH2CH3SH2Fe2HCH2CHCH4CH2CHCH3NC9H13CHC2NHNC9H15CHCH3CHCH2C2H3CNH2CHCHNC9H14NH3FeSC2HC3S2C3SCH2CHCNCHC2H2SCHC3H2C3HC3HC3HCHSC2H2CFeH2CHC2FeH2SC2H2CNH2C2HCHCHCHCH3SC2HCHCH4CHC3H3SH5NHCSH10C2H4C2SH3CHNH3S2C3SH2CHCH3CHCHC2HFeC2H3CSHFeCSH3CHC4H3C3H3CHC3H5FeCHC3HCHSHSHNH6SHSNHFeS2FeS2FeS2FeS2FeSFeS4CH2FeSHNSFeS2HCFeS2FeS2FeSFeS3FeS2FeS2FeSFeS3FeS2FeCFeSFeS2HSHFeSFeSHSFeSHFeS2FeSFeS3C3HC3H4C6H5CHC4SFeH2C6H4C6H4C6H4C6H4C6H7CS2H2CHC7H4C6H3SFeHC6H4C6H6CH3CHSCHSHCHCH3CHC4SNC9FeHFeCH9SHNC9HSH5CH6NC9H14NC4HCH2CHCHCH2CSHSH2Fe2C2H2C2HSNC9H14NC6H11C2H3CHCHCHCHCNCHCHCHCFeCH2CHCHNC6H14CSHFeSHFeHCSC2H3C2NCH3CHCHSHC2H2C2HCH4C2NCHCH2C3HC2H3C2H3NC9H11C2H2CSC2H2CH3FeHCH6C3H2CHCHCHSCHSFeH2NC3HC2HCHSNH9CH2C4H2CH4CHC2S2NFeC2H2C2HN2CHSCH2CH4C2SC2H5C2HCS2HFeC3HCHCH2CHNC2SC2H2CH6CFeC2FeCHC2HCH5SHCH3CSH2C2HCSCH2C2H2CH2SH2C2Fe2HCH2FeHC2HC3H4CH6CHFeH3C2FeH3C2HC3H3C2H2C2H2FeSC2FeSHFeS2FeSFeHS2C2HFeSHFeS2FeHFeS3C3H5SCH4FeS2FeS2FeSFeS3H2FeS2C2FeSCSFeS2FeS2FeSFeS3HCH4FeSCSHC4H2CH2CH3CNHC3HC2H4C6H4C3HCH11CHSC6H7C3HCH2NC2H2C4H4C6H4CSC4SCH3C4H6C6H4CHFeCHCH2CHCHC3H3CH3SCHC8H3CH2CHCNC3HCFeH7CH4CH3C6SCHC4H3C2NC2HSHC2HCHSHNHCH3CH2CHC2H2NC2H2CH3C2H2NC3H6C2HCNC2H3CH2CH4C2HC2H2CHCNC9H13SFeHC2SC2H2C2HC2H2CHC3HCH5NHCH4C2FeCH2CHC2SCH2C3HC2SNHCFeS2FeHCFeH2CS2C4HCH4FeS2FeSFeCS2HCH3CHCSC2HSCFeSHFeSFeSHSH2SHCNFeS2FeS2FeSFeS3HCH4C2SH2C3HNHCSC6HCH2C3H2C6H2CH5CHCH2CH3CHCH6C8H4C6H6CHCHC3FeHCHCHNCSH2C2H3C6H5CHCHCFeHCHCHCSCHC3HSHCSH4NH5C2NCH5C2H3CHCH4CH4C3SC2H3NC9H14C2H2C2HSH2C3H9CSH2C2H2NHC2SC2H3CNS2CHCH3CFeCNC9H14NC6H10NHCH3C2HCH5CSC6HC8H2CSCHSCSNHC2SCSH2CH2CFeHC3H2C2HC2HSH4FeS2FeSCSC2H4SCHS2CHNCNFeS2FeS2FeSFeS3FeS2FeS2FeSFeS3FeH2FeS2Fe2S3FeHSFeS2FeSHS2C7H4C6H4C5H2C6H4C6H4C6H6C2H3C7H6CHCFeHC6H4C2H2CSCHCH5C8H4CHFeH2CHS2CHCH3SNHCH3SNH2CH5CH2CFeH3CHSHCH2C3HC2NH2C2HSHCSC2NH2CH3FeCHC2HNHC2HSCH3NC10H3NH2SH6NC9H19C2FeCNCHC3HC2H2C2H4SCHC2H2CHCH2FeCH2NH3CH2CH10C3HC3HCHFeCNC9H14C3H5CS2CH2SFeSC2HFeHC2H2FeH4CHC2FeHCH2C2H2SC2H4CSHS2C2HSC2HNCH3SCH2C5HCH5CH2C2H5CH3C3HCHC2H4CHCHFeCH5C2H2FeCHC6H2FeS2FeSFeS4FeS2FeSFeHFeSNSFeCH3C2HSH4SFeS2FeSHFeS3FeSFeS2FeSFeS3H2SH5FeSHFe2S2FeS2FeSFeS3FeS2FeS2FeSFeS3FeS2FeS2FeSFeS3HCHC5H3C6H4C6H4CH2C3H4C6H4C7H4C6H3C6H5C6H5C2NH5C3H4C2H2CHCNC3HSC6H3NC6H4C6H4C2H2SH5CHCH5C3H2CH2NC9H14SCHCH2CH3C2H3CHCH4C5H7C2H4FeCSH3CH3C3H2NC10H3C2HCH7NC2HCH3SC3S2HCH2CH4C2H2C2NHCHCH2C2SFeH6NC9H11CH2C3HC3HC3H3CHCNHCHCHCNCHC3H2C2H3CHCHCFeHCHCHNC9H15CH2SCH6CSH2C3H3CH2NH3C6HCH2SCHCH5CHC5NHCNC2SC2HC2H2C3H2C3H4CHCH2C2FeSH3C2H2FeH2CS2H2CH9C2HC2FeHNHCH3CHC4S2C5H3CSHCH2CHCSCHCSCH2CNC2HC2HC2FeHCHC2HCH2CSH3CFeHC2HCHCH3C3H4CH2CH2FeH4CH5CH4SCHNH3CHCHSHCFeHCHCH2CHC3H4CH2CHC2H3CHSHCHSC2SCSCHCHCH2SH2CHCH2C2FeS2FeS2FeCFeS3HSC2HCH3SHFeCFeSHCFeSFeS2FeSFeS3CFeS2FeS2FeSFeS3FeSFeS3CH2SCFeS2FeSFeS3H3FeSCFeSHSCSHC2H2CH2C6H4C6H4SC3FeH2C6H4C6H4C3H2C6H4C6HFeH3C4H4C6H4C2H3C2H2C7H4C6H5C5H2NC2HCH4CHCNHFe2HSH2CH4C2H2CHCFeH5C4HFeHC2H2S2HC2HCH2NHCH3CH2CH3C2H5C3HSFeH3C2HCH4CHCH4CH2C2H4FeCH3SCH7CH4CHSC2S2HC2HCHNH2CH3CHSHCHNC2SCH2C2H4CH4C2H3C3H2C2H3CHSH3C3HC2HCHC2HCSNCNHFeNC9H14CH3CHCHC2H2C3H2C3HCHFeHCHCHC4HFeH3CHSH5SNC2NH2C2N2H3FeHSCHC3HCH2CHCHCH2NH3SCSCHC2H3SCHCSH3CHSC2H2CH3CHCH9CHNHCH4C2HCHCHCH2CS2FeS2FeS2FeSFeS3FeSFeS3FeS2HC3H2S2HCH3FeS2FeS2FeS2FeSFeS3HSCSCSHSH2FeSFeCSC2HC2H2CHCS2H2SFeS2FeS2FeSFeS2FeS2FeS2FeSFeS2C6H4CH2SC6H3C2H2C8NH6CH3C7H4C6H4C6HCH4CHSC8H4C6HCHCNHC7H4C6H4C6H4C6H4CHC2SH2C6H5CHCH4CFeC2HSCHCHC2HNHCHCHCSHCH2C2SHFeCH2CNCHCSNHNC6HCH12C2HCH2CH4NH2CH4CHC2H3NC9H14C2FeN2FeC8H6CHCH2CHSC2HC2HC2NCHCH2C3H4CFeHC2HSHNH4C2H2FeSCFeH3CH3CNHSCH7CSHCH8FeHC4H3CHSHC3HCHCHSHC2SHSH2NC9H15CHCH4SFeC3FeH2CHC2FeNCFeH2Fe2C6HC2SHFeH3CH5C2H2CNH2C2HC2H5SH2FeHC4HCHCHC4HCSH4CNCH2CHCH2CHCH2C4HFeH3SCHCHCH3C2H6C4HSCHC2SHCH3CHSH5CH2CHFeH2CHSNC2HCSH5CFeH2C3HC2HSC2HCHCHSH4SH3C4HC2H4C2H4NCH2CH2CHC2FeH2CHSH4CHCHFeHC2H2CHSHCSNC2SCHC2HFeCH4SHCHFeS2FeS2FeCFeS3FeSFeS2FeSFeS2H2CHCSH6CFeH2FeS2FeSFeHS2FeS2FeS2FeSFeS3CNSFeSCFe2SC3HC2HCH3CH2NSNSNH3SHCSH3CH2CNC4H2CHC6H4FeC3HNH5C4HNSC6H4SCHCHCH2CHC2HSHCHC7H4C3H2C3H2C4H3NH2SCSCHC7H4C6H5C4H2C3HCHC5HC3H2SNC9H14C2H2S2H2CHC3H4CHC2NH3CH2C2H2CH2C4HNC2H2CHCH2CH2C2HC2H2CHC4HC3H2C2H6CHC2HCHCH2CHCH4CHCHCH3C5H2CH3C4H2CHSHC2H3CHNHNH3CSCHCH2NC9H12CH3CHSH3CHC2SHCH7C3HCH2CHNCHSHCH2N2HC8H2C2H5SH4CH2CHCSHCHC2HCH3SH3CHCH3C2HNH3CFeCHCSH4C2HCHCHC2SH2C4HC3HCH3FeH2CSH3FeS2FeSFeS3FeSCFeS2FeSFeS5CHSH2S2CHS2CFeS2H3FeSFeS3FeSFe2SCFeSFeCS3C6H7CHCHC7H5C5H4CHC6H4SCH3C6H4C5H2CH2C6H4C6H4C4HNH3SC2H2SHC2HC2H2C3SH3C2HCSHSC3HFeCNC9H14CH3CHC3FeH4CHCHCHCH2C4HCH4NHSH4SHNHSHC2H4CH2SC2HC2NH3CNC8H15FeHCHCFeSC4H2CH4CH2FeHCSCHCSHFeHC2HCFeH2CH3C3HCHCHCH2C2H2C3HC2H2CSCH2CHNC4HCH5CH5NH2C2SCH2NHFeSC2HC3HCH3CHCHNHSH3C4HCHCH2C2H3CFeCH2CH3C2H3CHCFeCSC2HSC2HFeS2FeS2FeS2FeH2CFeSHSCS3FeSHSHSC2FeS2FeSCHC2H2CFeS2FeS2FeSFeS3FeSHFeSHFeS2FeS2FeS2FeSFeS3FeS2HSHFeSFeS3FeHSFeS2FeSNHS2HC6H4C6H4C6H4C6H2C6H4C2HCHNSC6H4C6H4C6H4FeH3CH3C5H2C2SH3C2H2CHC7H3C2HC5H2SC6H4C6H3C3HFeNCH2CH2C2HSH2CHFeHC2NC9HCH2CHSCH3CH2CH3C2HC2H8SC3H5CNC6H11C2SHCH6SH3FeH2CNHC7H7NC9H5FeH8SCHSCH2CSHSHCHCHFeC6H3C2FeHFeH3CHSC2SHCH2FeH3NC9H16CH2NC9H5CH8NC7H2NH7CH3CH3C4SH3CHSH2SCHNHCHFeCHFeCFe2SNC6SH13C2H4CSCFe2HCSCH3NCH2C2HCSNC4HC2HSH9FeH2SH5C2H3CH2CHCH3FeS2CHCHNH5NH3NHCHCH3C2HFeH3CS2HCFeCH2C3NCFeCH5CHCHC2H2SH3C2H5C2H5CSC2H5C2HC2H4CHCHC3HCH2CHCH3FeHC2H2CH4C2SHC2SH2SH6FeCHCSHFeS2FeS2FeS2FeSFeS3NHCH2CFeSCFeS2FeS2FeSFeS3H2NCH5SHCSHSCFeSH2SH2C3HC3H2C6H5C2HC8H4C6H4C6H5C2HCHCFeH2CSH3SC6H5C4H2CHC6H3CHCHNH3C4H2SH3FeCHCSHCH9C2HCHCHC2H2C2H5CH5CHNC5HCH13S2H3CH3CH3SHCHCH2C2HCHCHNC7HSH4CH2C2H3NC9H16C3HC8HCHC2HCH6C2H2C2H2CH3SHSH4FeHNC2HCHCH3FeC2NH4CHCHCHNC5HC2HC2S2H2C2FeC2HCHCH2FeCH2CSCNSHSHS2C3FeHCHCHCH4NCHNH4CFeS2FeSHFeSFeS3CHC2HCHC4HCFeS2FeS2FeSFeS3FeSHCHCNSHSCFeS2FeSFeHFeCS2FeS2FeH2FeSFeS3H2S2C2H2C4HC2H2CNH2CHFeHCHCHC6H4C6H5NH6C2H2C2HC2SCHNC5H2C3H2C6H5C4H5C6H4CHC2HCH3C5NH5CHCH2CHCH4CHSCH2CH2SH3C2H4C3H2NCHCHSNC9HC2H2C3H6C2HCHCNHC9H13NHC3H6CHCHCH2C3H3CH8CH8CHNH2C2HC2H2C2H3CH3CH5C3HSHNHCHCHC3H2CHCFeCH2CH2CHC2H3FeC2HCH3C2HS2H2C2H2SH3CH2CH5CHSNCHC2HC3HSCSFe2S2HCFeCH2FeS2FeS2FeSCHSH2FeS2FeSHFeSFeS2HC2HCH4CHSFeS2H3FeNFeSHSHFe2S2FeS2FeHFeS3FeH2C3HCH2CH3CHSCSC3HCHC3H2C7H5CSH3C6H4CH2CH2CH3C2NCH3CH2SH2C3FeHFeH2C6H4CH2SCNH3C7H6CH2NHCHC2HC3HC5H3CSHNCH4CHCNH3CHCH2CHCH3SFeCSH2CH2CH2CHCHCH3CH2C5HCH2C3HCSHCH3CH4C2H2CH2S2CFeNH3CHCHCNFeS2C2FeS2FeS3FeS2HNCFeSFeSHCHSH2CFeHFeS2FeS2FeSFeS4FeS2FeS2FeSFeS3CFeSHFeS2FeSFeS3HSHSHCHCSHFeS2FeSFeSFeS2HC6HFeH2CNHC3H4C6H4SCHC6H4C6H4C6H4C6H4CSC6H2SH2C3H2CHC8H4C6H4C6H5CH3SHC2H2C6H4CHC2H2NC4FeC3H10CHCHCNC6H6CHNC9H12NC9H14C2HCH2SCH2CH2SNH2SH2CH3FeHCHCH2CFeHCHC2HCHC3SH7C3HCHFeC2NCSC2NH2FeCHCHCHNC8H13CH2CHC3HCHCH6CHC2SC2SH2C2FeHCH8NC4HCHSHC4HC2HC2NH2C2HC2H2C3HCHSCHNH3CH3C2H3C3FeCH3FeCHSCHCH2CHNFeHCS2CHFeC3H2SCHCHCH2C3HCH2CHSH4CHCH2NHCH3CH5FeCSHC2HCH2CH3C2SCHCH2CH4C3H2C2H2C2NC2HCH4CH3C3H3NCHCHC6SNH3C2H2CS2H2CH2C2HC2H5C2H3C2FeC2FeH5SH2CH4NHCH3CSHNH3SH2CHCHC3SFeHSHCHNH6FeSHSH3CH4C6SC2HCH3C2HCHC3H2CHCHC2HSHCHCHSH6CHCH4CHNCSCHC3HSHCH2FeS2HSFeSFeS3HFeS2FeS2FeSFeS3CFeS2FeS2FeSFeS3FeS2CSFeSFeS3HCH4NCH3C6H5C6H3C6H4CHCHCHCHCHC6H6CHCHC2FeHCH2CH2C8H4CH2CFeH2C3H2C6H7C5H2CH3C2NC2HC6H3NH3CH2C2HSH2CH4FeH4CH3C2H2NC9H3CH10CH2C3HNC9H3C2H5SH5CSH2CHCH2CH2SHCHCH2CH2CH4C2H2C5H6NC2HCHCSH3C2H5C3HC3H4N2HCH3C2H2CNC2H3CHCH8SC4HCH2CHCH2CHC5H3CHN2C6HFeH5C2H3C2HCHCFeH2CH7CH2SCH2C2H3C2S2H3CHC3SHSCH2CHCSN
_chemical_formula_sum              "H5184 Fe576 C4320 S1152 N288"
_cell_length_a       98.3285
_cell_length_b       99.7125
_cell_length_c       100.1
_cell_angle_alpha    73.4874
_cell_angle_beta     73.4991
_cell_angle_gamma    73.5153

_space_group_name_H-M_alt    "P 1"
_space_group_IT_number       1

loop_
  _space_group_symop_operation_xyz
  'x, y, z'

loop_
  _atom_site_type_symbol
  _atom_site_label
  _atom_site_symmetry_multiplicity
  _atom_site_fract_x
  _atom_site_fract_y
  _atom_site_fract_z
  _atom_site_occupancy
  H   H1        1.0  0.49758  0.13175  0.12979  1.0000
  Fe  Fe1       1.0  0.48130  0.07665  0.18074  1.0000
  C   C1        1.0  0.34208  0.01004  0.40464  1.0000
  H   H2        1.0  0.41865  0.10188  0.25018  1.0000
  Fe  Fe2       1.0  0.47090  0.09871  0.19883  1.0000
  H   H3        1.0  0.45874  0.09157  0.14257  1.0000
  S   S1        1.0  0.45393  0.11772  0.20486  1.0000
  N   N1        1.0  0.34756  0.00116  0.41751  1.0000
  H   H4        1.0  0.47091  0.10226  0.15389  1.0000
  Fe  Fe3       1.0  0.48269  0.06761  0.21199  1.0000
  S   S2        1.0  0.48122  0.05032  0.23239  1.0000
  S   S3        1.0  0.48816  0.08823  0.21146  1.0000
  S   S4        1.0  0.46427  0.07837  0.20091  1.0000
  Fe  Fe4       1.0  0.46173  0.17166  0.10775  1.0000
  S   S5        1.0  0.47008  0.15353  0.09634  1.0000
  H   H5        1.0  0.25833  0.00886  0.43733  1.0000
  S   S6        1.0  0.42914  0.16861  0.15749  1.0000
  S   S7        1.0  0.43780  0.18016  0.11531  1.0000
  H   H6        1.0  0.47634  0.11882  0.14498  1.0000
  H   H7        1.0  0.35726  0.01707  0.41960  1.0000
  H   H8        1.0  0.24140  0.06143  0.43571  1.0000
  H   H9        1.0  0.46473  0.03258  0.20358  1.0000
  H   H10       1.0  0.36449  0.99553  0.39085  1.0000
  Fe  Fe5       1.0  0.24176  0.06319  0.47090  1.0000
  S   S8        1.0  0.26068  0.07362  0.46047  1.0000
  S   S9        1.0  0.22119  0.06928  0.46303  1.0000
  H   H11       1.0  0.49088  0.18165  0.16120  1.0000
  H   H12       1.0  0.33268  0.99621  0.35504  1.0000
  S   S10       1.0  0.47666  0.07168  0.16222  1.0000
  H   H13       1.0  0.47349  0.15415  0.15966  1.0000
  S   S11       1.0  0.30543  0.00009  0.37486  1.0000
  Fe  Fe6       1.0  0.27424  0.05131  0.46506  1.0000
  S   S12       1.0  0.29390  0.04267  0.44933  1.0000
  C   C2        1.0  0.46769  0.16189  0.18467  1.0000
  S   S13       1.0  0.25526  0.04074  0.47352  1.0000
  Fe  Fe7       1.0  0.41978  0.01118  0.27881  1.0000
  S   S14       1.0  0.40824  0.02278  0.29653  1.0000
  S   S15       1.0  0.42544  0.02314  0.25576  1.0000
  H   H14       1.0  0.23744  0.06039  0.41965  1.0000
  C   C3        1.0  0.47737  0.01964  0.18854  1.0000
  C   C4        1.0  0.10421  0.15884  0.47704  1.0000
  H   H15       1.0  0.34005  0.00328  0.39858  1.0000
  H   H16       1.0  0.48839  0.99984  0.29316  1.0000
  C   C5        1.0  0.09486  0.18347  0.47934  1.0000
  S   S16       1.0  0.43605  0.01277  0.32096  1.0000
  H   H17       1.0  0.29927  0.06242  0.39914  1.0000
  C   C6        1.0  0.49293  0.13879  0.18367  1.0000
  C   C7        1.0  0.37315  0.99870  0.34154  1.0000
  C   C8        1.0  0.28446  0.99612  0.44237  1.0000
  S   S17       1.0  0.27757  0.02398  0.40183  1.0000
  C   C9        1.0  0.43156  0.14264  0.13840  1.0000
  C   C10       1.0  0.34395  0.99686  0.35139  1.0000
  H   H18       1.0  0.47377  0.00328  0.27552  1.0000
  H   H19       1.0  0.13539  0.18522  0.44016  1.0000
  Fe  Fe8       1.0  0.42435  0.00662  0.30830  1.0000
  H   H20       1.0  0.32555  0.99963  0.42870  1.0000
  H   H21       1.0  0.47331  0.18673  0.17146  1.0000
  C   C11       1.0  0.33666  0.99272  0.42641  1.0000
  C   C12       1.0  0.36409  0.00299  0.33183  1.0000
  H   H22       1.0  0.21088  0.13103  0.48241  1.0000
  H   H23       1.0  0.29084  0.07527  0.41882  1.0000
  H   H24       1.0  0.44530  0.08176  0.26893  1.0000
  C   C13       1.0  0.45966  0.00108  0.33285  1.0000
  H   H25       1.0  0.45846  0.01171  0.33439  1.0000
  H   H26       1.0  0.06152  0.15232  0.48287  1.0000
  H   H27       1.0  0.47356  0.09148  0.12752  1.0000
  H   H28       1.0  0.22593  0.09381  0.43303  1.0000
  H   H29       1.0  0.28759  0.00648  0.44024  1.0000
  S   S18       1.0  0.14643  0.13383  0.47685  1.0000
  H   H30       1.0  0.25547  0.06582  0.39787  1.0000
  C   C14       1.0  0.48333  0.17800  0.17140  1.0000
  C   C15       1.0  0.42337  0.05459  0.27027  1.0000
  S   S19       1.0  0.06974  0.17490  0.45818  1.0000
  H   H31       1.0  0.44045  0.06326  0.29060  1.0000
  C   C16       1.0  0.28939  0.03812  0.43573  1.0000
  C   C17       1.0  0.30035  0.03094  0.42614  1.0000
  C   C18       1.0  0.29681  0.02664  0.41560  1.0000
  C   C19       1.0  0.28231  0.02957  0.41464  1.0000
  C   C20       1.0  0.27140  0.03702  0.42403  1.0000
  C   C21       1.0  0.27493  0.04126  0.43461  1.0000
  H   H32       1.0  0.31154  0.02865  0.42696  1.0000
  H   H33       1.0  0.30526  0.02124  0.40810  1.0000
  H   H34       1.0  0.26020  0.03937  0.42321  1.0000
  H   H35       1.0  0.26647  0.04700  0.44184  1.0000
  H   H36       1.0  0.46562  0.12180  0.11114  1.0000
  C   C22       1.0  0.23792  0.09019  0.42936  1.0000
  C   C23       1.0  0.28297  0.07379  0.41396  1.0000
  C   C24       1.0  0.19814  0.11594  0.46317  1.0000
  C   C25       1.0  0.21306  0.11145  0.46282  1.0000
  C   C26       1.0  0.22007  0.09701  0.46329  1.0000
  C   C27       1.0  0.21234  0.08718  0.46330  1.0000
  C   C28       1.0  0.19750  0.09175  0.46328  1.0000
  C   C29       1.0  0.19032  0.10604  0.46359  1.0000
  C   C30       1.0  0.49716  0.13848  0.08576  1.0000
  H   H37       1.0  0.23151  0.09357  0.46334  1.0000
  H   H38       1.0  0.19147  0.08417  0.46335  1.0000
  H   H39       1.0  0.17879  0.10947  0.46387  1.0000
  H   H40       1.0  0.49265  0.00681  0.17445  1.0000
  H   H41       1.0  0.11360  0.17921  0.44956  1.0000
  H   H42       1.0  0.45538  0.10023  0.12510  1.0000
  C   C31       1.0  0.46562  0.04290  0.23887  1.0000
  C   C32       1.0  0.46307  0.03447  0.25282  1.0000
  C   C33       1.0  0.45079  0.02835  0.25816  1.0000
  C   C34       1.0  0.44105  0.03051  0.24951  1.0000
  C   C35       1.0  0.44365  0.03891  0.23556  1.0000
  C   C36       1.0  0.45584  0.04513  0.23028  1.0000
  H   H43       1.0  0.47054  0.03277  0.25957  1.0000
  H   H44       1.0  0.44879  0.02204  0.26898  1.0000
  H   H45       1.0  0.43618  0.04059  0.22882  1.0000
  H   H46       1.0  0.45777  0.05143  0.21948  1.0000
  C   C37       1.0  0.44735  0.13133  0.19113  1.0000
  C   C38       1.0  0.45417  0.13210  0.17665  1.0000
  C   C39       1.0  0.44885  0.14364  0.16613  1.0000
  C   C40       1.0  0.43661  0.15422  0.17010  1.0000
  C   C41       1.0  0.42976  0.15324  0.18453  1.0000
  C   C42       1.0  0.43520  0.14195  0.19499  1.0000
  H   H47       1.0  0.46353  0.12393  0.17358  1.0000
  H   H48       1.0  0.45397  0.14419  0.15496  1.0000
  H   H49       1.0  0.42024  0.16133  0.18764  1.0000
  H   H50       1.0  0.42989  0.14145  0.20614  1.0000
  C   C43       1.0  0.47237  0.11921  0.11918  1.0000
  C   C44       1.0  0.48894  0.15114  0.09001  1.0000
  H   H51       1.0  0.48296  0.11239  0.11492  1.0000
  C   C45       1.0  0.49113  0.01205  0.18307  1.0000
  C   C46       1.0  0.11173  0.18073  0.43870  1.0000
  H   H52       1.0  0.43267  0.10925  0.23647  1.0000
  H   H53       1.0  0.48968  0.17142  0.09291  1.0000
  C   C47       1.0  0.49083  0.03592  0.14643  1.0000
  C   C48       1.0  0.45084  0.12065  0.13946  1.0000
  H   H54       1.0  0.21917  0.11909  0.46239  1.0000
  C   C49       1.0  0.08270  0.17317  0.46803  1.0000
  C   C50       1.0  0.09285  0.16011  0.47049  1.0000
  Fe  Fe9       1.0  0.16813  0.13452  0.47958  1.0000
  C   C51       1.0  0.44266  0.11521  0.15316  1.0000
  N   N2        1.0  0.24165  0.08069  0.41918  1.0000
  H   H55       1.0  0.23893  0.09778  0.40071  1.0000
  S   S20       1.0  0.37069  0.00923  0.31342  1.0000
  S   S21       1.0  0.46686  0.16613  0.12932  1.0000
  C   C52       1.0  0.46307  0.09827  0.13209  1.0000
  C   C53       1.0  0.49590  0.16164  0.08975  1.0000
  C   C54       1.0  0.48249  0.04887  0.15002  1.0000
  H   H56       1.0  0.22228  0.09284  0.41152  1.0000
  C   C55       1.0  0.26809  0.07868  0.41918  1.0000
  H   H57       1.0  0.19832  0.15535  0.47440  1.0000
  H   H58       1.0  0.47218  0.05363  0.14692  1.0000
  H   H59       1.0  0.48692  0.03071  0.14060  1.0000
  Fe  Fe10      1.0  0.44351  0.17644  0.13644  1.0000
  Fe  Fe11      1.0  0.26064  0.07371  0.48289  1.0000
  H   H60       1.0  0.34985  0.01660  0.39736  1.0000
  H   H61       1.0  0.23447  0.08164  0.40027  1.0000
  H   H62       1.0  0.33153  0.01762  0.40747  1.0000
  C   C56       1.0  0.47594  0.16447  0.15931  1.0000
  H   H63       1.0  0.42359  0.11915  0.16992  1.0000
  H   H64       1.0  0.43537  0.09337  0.22143  1.0000
  S   S22       1.0  0.43678  0.99610  0.29014  1.0000
  H   H65       1.0  0.47470  0.12938  0.11956  1.0000
  C   C57       1.0  0.25750  0.07632  0.41344  1.0000
  C   C58       1.0  0.34854  0.01112  0.42560  1.0000
  C   C59       1.0  0.23587  0.06768  0.42681  1.0000
  C   C60       1.0  0.34945  0.00219  0.33684  1.0000
  C   C61       1.0  0.43642  0.06383  0.28138  1.0000
  S   S23       1.0  0.18931  0.13385  0.46340  1.0000
  H   H66       1.0  0.28386  0.99503  0.43178  1.0000
  H   H67       1.0  0.42043  0.08659  0.23370  1.0000
  H   H68       1.0  0.26520  0.08398  0.42792  1.0000
  N   N3        1.0  0.48029  0.16390  0.17246  1.0000
  H   H69       1.0  0.22402  0.07042  0.43169  1.0000
  C   C62       1.0  0.42856  0.05395  0.28205  1.0000
  C   C63       1.0  0.45356  0.08500  0.23865  1.0000
  C   C64       1.0  0.43433  0.07509  0.25655  1.0000
  N   N4        1.0  0.43762  0.08619  0.24338  1.0000
  C   C65       1.0  0.36763  0.99341  0.35610  1.0000
  H   H70       1.0  0.10236  0.17577  0.44038  1.0000
  C   C66       1.0  0.49342  0.15221  0.17381  1.0000
  N   N5        1.0  0.46506  0.11198  0.13348  1.0000
  C   C67       1.0  0.44483  0.13465  0.13218  1.0000
  H   H71       1.0  0.24837  0.00755  0.45569  1.0000
  C   C68       1.0  0.19819  0.15125  0.48569  1.0000
  H   H72       1.0  0.43753  0.07444  0.22835  1.0000
  C   C69       1.0  0.10540  0.17063  0.48121  1.0000
  H   H73       1.0  0.49181  0.13031  0.08592  1.0000
  H   H74       1.0  0.11219  0.14884  0.47859  1.0000
  H   H75       1.0  0.44654  0.10468  0.15937  1.0000
  H   H76       1.0  0.28209  0.01427  0.45973  1.0000
  C   C70       1.0  0.23406  0.08856  0.40739  1.0000
  H   H77       1.0  0.28142  0.05785  0.38882  1.0000
  H   H78       1.0  0.26165  0.01820  0.44856  1.0000
  H   H79       1.0  0.45019  0.13980  0.12175  1.0000
  H   H80       1.0  0.48469  0.16657  0.14964  1.0000
  H   H81       1.0  0.42729  0.15342  0.13287  1.0000
  C   C71       1.0  0.27768  0.06405  0.39703  1.0000
  H   H82       1.0  0.35094  0.00545  0.43625  1.0000
  S   S24       1.0  0.48621  0.09804  0.17763  1.0000
  C   C72       1.0  0.43247  0.08504  0.23123  1.0000
  C   C73       1.0  0.26278  0.06872  0.40228  1.0000
  H   H83       1.0  0.48845  0.13186  0.98961  1.0000
  H   H84       1.0  0.50041  0.17279  0.11280  1.0000
  C   C74       1.0  0.42945  0.12335  0.15929  1.0000
  H   H85       1.0  0.12132  0.17442  0.43236  1.0000
  N   N6        1.0  0.27051  0.99543  0.45303  1.0000
  C   C75       1.0  0.08351  0.18473  0.47282  1.0000
  H   H86       1.0  0.34234  0.00565  0.32941  1.0000
  H   H87       1.0  0.41391  0.14355  0.15684  1.0000
  H   H88       1.0  0.43483  0.10282  0.25448  1.0000
  H   H89       1.0  0.46820  0.02020  0.18428  1.0000
  H   H90       1.0  0.48298  0.13637  0.19084  1.0000
  H   H91       1.0  0.41734  0.04680  0.27078  1.0000
  H   H92       1.0  0.42656  0.04571  0.29170  1.0000
  H   H93       1.0  0.45921  0.07410  0.23690  1.0000
  C   C76       1.0  0.28775  0.06653  0.40289  1.0000
  C   C77       1.0  0.43063  0.10065  0.24628  1.0000
  H   H94       1.0  0.09221  0.15107  0.46693  1.0000
  H   H95       1.0  0.45819  0.17113  0.18367  1.0000
  C   C78       1.0  0.43920  0.07432  0.26888  1.0000
  C   C79       1.0  0.35305  0.99234  0.36104  1.0000
  C   C80       1.0  0.27199  0.99571  0.46727  1.0000
  C   C81       1.0  0.48732  0.05548  0.15784  1.0000
  H   H96       1.0  0.42218  0.06442  0.24888  1.0000
  Fe  Fe12      1.0  0.39496  0.00591  0.30496  1.0000
  H   H97       1.0  0.48506  0.03204  0.21294  1.0000
  S   S25       1.0  0.49932  0.06415  0.19188  1.0000
  C   C82       1.0  0.42624  0.06490  0.25765  1.0000
  H   H98       1.0  0.48588  0.10243  0.13902  1.0000
  C   C83       1.0  0.27821  0.00629  0.46880  1.0000
  H   H99       1.0  0.24190  0.08450  0.43929  1.0000
  H   H100      1.0  0.24242  0.09997  0.42448  1.0000
  C   C84       1.0  0.42394  0.13705  0.15193  1.0000
  H   H101      1.0  0.45646  0.09283  0.22847  1.0000
  C   C85       1.0  0.47499  0.10878  0.14324  1.0000
  Fe  Fe13      1.0  0.47075  0.18838  0.12343  1.0000
  H   H102      1.0  0.45831  0.08707  0.24648  1.0000
  C   C86       1.0  0.50069  0.04928  0.16175  1.0000
  H   H103      1.0  0.28379  0.01547  0.48306  1.0000
  C   C87       1.0  0.47547  0.02667  0.19935  1.0000
  H   H104      1.0  0.46609  0.17315  0.15770  1.0000
  H   H105      1.0  0.46359  0.15242  0.18520  1.0000
  C   C88       1.0  0.27913  0.00718  0.48219  1.0000
  C   C89       1.0  0.25922  0.00803  0.44842  1.0000
  H   H106      1.0  0.47052  0.16068  0.19502  1.0000
  H   H107      1.0  0.48806  0.17763  0.18039  1.0000
  Fe  Fe14      1.0  0.29228  0.00349  0.39644  1.0000
  C   C90       1.0  0.48733  0.02625  0.20467  1.0000
  H   H108      1.0  0.38429  0.99975  0.33788  1.0000
  H   H109      1.0  0.33814  0.01914  0.42773  1.0000
  C   C91       1.0  0.45011  0.99862  0.32626  1.0000
  S   S26       1.0  0.40483  0.99577  0.28605  1.0000
  H   H110      1.0  0.47819  0.99186  0.34246  1.0000
  C   C92       1.0  0.47717  0.99264  0.28188  1.0000
  C   C93       1.0  0.50155  0.01867  0.19925  1.0000
  H   H111      1.0  0.09610  0.19118  0.41966  1.0000
  C   C94       1.0  0.36189  0.99129  0.41415  1.0000
  Fe  Fe15      1.0  0.04342  0.07914  0.56911  1.0000
  S   S27       1.0  0.06117  0.07308  0.55065  1.0000
  S   S28       1.0  0.01975  0.08043  0.57114  1.0000
  Fe  Fe16      1.0  0.06362  0.08685  0.58226  1.0000
  S   S29       1.0  0.08312  0.08170  0.56495  1.0000
  S   S30       1.0  0.06723  0.09349  0.60029  1.0000
  Fe  Fe17      1.0  0.06784  0.09284  0.55033  1.0000
  S   S31       1.0  0.07280  0.10934  0.53042  1.0000
  Fe  Fe18      1.0  0.07473  0.06234  0.56705  1.0000
  S   S32       1.0  0.08887  0.04004  0.56856  1.0000
  S   S33       1.0  0.04910  0.09987  0.56743  1.0000
  S   S34       1.0  0.05628  0.06659  0.58569  1.0000
  Fe  Fe19      1.0  0.16934  0.01111  0.55600  1.0000
  H   H112      1.0  0.33692  0.99270  0.59251  1.0000
  S   S35       1.0  0.15693  0.03404  0.55082  1.0000
  C   C95       1.0  0.14068  0.18348  0.60839  1.0000
  C   C96       1.0  0.01611  0.07785  0.55602  1.0000
  H   H113      1.0  0.49331  0.14334  0.96448  1.0000
  C   C97       1.0  0.44099  0.00150  0.85621  1.0000
  H   H114      1.0  0.46339  0.00232  0.68323  1.0000
  C   C98       1.0  0.49224  0.17142  0.82519  1.0000
  C   C99       1.0  0.24289  0.02624  0.64928  1.0000
  S   S36       1.0  0.19338  0.00778  0.55284  1.0000
  Fe  Fe20      1.0  0.44987  0.05943  0.82510  1.0000
  S   S37       1.0  0.46268  0.05404  0.80423  1.0000
  S   S38       1.0  0.44824  0.04109  0.84414  1.0000
  Fe  Fe21      1.0  0.44233  0.09112  0.81242  1.0000
  S   S39       1.0  0.45440  0.08849  0.79019  1.0000
  S   S40       1.0  0.42949  0.11157  0.81969  1.0000
  Fe  Fe22      1.0  0.44431  0.06933  0.79500  1.0000
  S   S41       1.0  0.43812  0.06358  0.77727  1.0000
  Fe  Fe23      1.0  0.47168  0.07324  0.80114  1.0000
  H   H115      1.0  0.48494  0.99225  0.89245  1.0000
  S   S42       1.0  0.43071  0.07330  0.81631  1.0000
  S   S43       1.0  0.46041  0.07734  0.82289  1.0000
  S   S44       1.0  0.47467  0.12014  0.89482  1.0000
  H   H116      1.0  0.03061  0.05886  0.52995  1.0000
  H   H117      1.0  0.15893  0.10344  0.53044  1.0000
  H   H118      1.0  0.47970  0.04714  0.93728  1.0000
  H   H119      1.0  0.48308  0.03072  0.65914  1.0000
  S   S45       1.0  0.47462  0.04825  0.89162  1.0000
  Fe  Fe24      1.0  0.09104  0.15848  0.59601  1.0000
  S   S46       1.0  0.07212  0.15789  0.58803  1.0000
  Fe  Fe25      1.0  0.11842  0.13828  0.60432  1.0000
  S   S47       1.0  0.13028  0.11540  0.60398  1.0000
  S   S48       1.0  0.09626  0.14634  0.61719  1.0000
  S   S49       1.0  0.11242  0.14922  0.58339  1.0000
  Fe  Fe26      1.0  0.21079  0.08825  0.59599  1.0000
  S   S50       1.0  0.23519  0.08349  0.59215  1.0000
  S   S51       1.0  0.19558  0.10407  0.60875  1.0000
  Fe  Fe27      1.0  0.21108  0.06857  0.57810  1.0000
  S   S52       1.0  0.23535  0.06197  0.57225  1.0000
  S   S53       1.0  0.19569  0.06088  0.57082  1.0000
  Fe  Fe28      1.0  0.23425  0.06056  0.59534  1.0000
  S   S54       1.0  0.24860  0.04075  0.60613  1.0000
  Fe  Fe29      1.0  0.23471  0.08518  0.56943  1.0000
  S   S55       1.0  0.24986  0.09743  0.55233  1.0000
  S   S56       1.0  0.20979  0.06505  0.60147  1.0000
  S   S57       1.0  0.21048  0.09207  0.57292  1.0000
  H   H120      1.0  0.15608  0.15952  0.52172  1.0000
  H   H121      1.0  0.22991  0.03085  0.63428  1.0000
  Fe  Fe30      1.0  0.39373  0.01895  0.75535  1.0000
  S   S58       1.0  0.40518  0.02358  0.73212  1.0000
  S   S59       1.0  0.39274  0.03107  0.77221  1.0000
  C   C100      1.0  0.13916  0.17709  0.62288  1.0000
  S   S60       1.0  0.39597  0.99541  0.72940  1.0000
  C   C101      1.0  0.41763  0.10222  0.78567  1.0000
  Fe  Fe31      1.0  0.41392  0.99977  0.73583  1.0000
  C   C102      1.0  0.22490  0.99659  0.52048  1.0000
  Fe  Fe32      1.0  0.38603  0.01878  0.72746  1.0000
  S   S61       1.0  0.37830  0.02978  0.70676  1.0000
  S   S62       1.0  0.40380  0.99523  0.75919  1.0000
  S   S63       1.0  0.37357  0.01613  0.75042  1.0000
  H   H122      1.0  0.22633  0.00430  0.49785  1.0000
  H   H123      1.0  0.48479  0.01984  0.68268  1.0000
  C   C103      1.0  0.03031  0.18523  0.62329  1.0000
  Fe  Fe33      1.0  0.30955  0.02418  0.64621  1.0000
  S   S64       1.0  0.33160  0.02388  0.64905  1.0000
  S   S65       1.0  0.29493  0.04484  0.63723  1.0000
  S   S66       1.0  0.12765  0.15614  0.60507  1.0000
  H   H124      1.0  0.44759  0.03166  0.70135  1.0000
  Fe  Fe34      1.0  0.32529  0.01013  0.67086  1.0000
  S   S67       1.0  0.32792  0.01138  0.69235  1.0000
  H   H125      1.0  0.37296  0.10260  0.79864  1.0000
  S   S68       1.0  0.30257  0.01211  0.66868  1.0000
  C   C104      1.0  0.36485  0.02384  0.70268  1.0000
  C   C105      1.0  0.36367  0.02663  0.68841  1.0000
  C   C106      1.0  0.35283  0.02232  0.68495  1.0000
  C   C107      1.0  0.34283  0.01552  0.69580  1.0000
  C   C108      1.0  0.34393  0.01290  0.71005  1.0000
  C   C109      1.0  0.35496  0.01688  0.71346  1.0000
  H   H126      1.0  0.37125  0.03205  0.67999  1.0000
  H   H127      1.0  0.35215  0.02441  0.67392  1.0000
  H   H128      1.0  0.33621  0.00774  0.71854  1.0000
  H   H129      1.0  0.35560  0.01487  0.72449  1.0000
  H   H130      1.0  0.18358  0.16103  0.51746  1.0000
  C   C110      1.0  0.42547  0.00128  0.70234  1.0000
  C   C111      1.0  0.42507  0.00313  0.68810  1.0000
  C   C112      1.0  0.49733  0.15705  0.80263  1.0000
  C   C113      1.0  0.49949  0.04090  0.84812  1.0000
  H   H131      1.0  0.49865  0.09847  0.93485  1.0000
  H   H132      1.0  0.41753  0.00832  0.70864  1.0000
  H   H133      1.0  0.41657  0.01127  0.68373  1.0000
  C   C114      1.0  0.22244  0.11619  0.51935  1.0000
  H   H134      1.0  0.18397  0.04200  0.54404  1.0000
  C   C115      1.0  0.25586  0.00181  0.65593  1.0000
  H   H135      1.0  0.22636  0.02435  0.61624  1.0000
  C   C116      1.0  0.16256  0.16485  0.60255  1.0000
  H   H136      1.0  0.45975  0.12046  0.85780  1.0000
  N   N7        1.0  0.04058  0.10574  0.51474  1.0000
  S   S69       1.0  0.15930  0.15155  0.49233  1.0000
  H   H137      1.0  0.44530  0.00744  0.80279  1.0000
  H   H138      1.0  0.49397  0.05576  0.92547  1.0000
  H   H139      1.0  0.45055  0.02586  0.81261  1.0000
  C   C117      1.0  0.26147  0.04214  0.61463  1.0000
  C   C118      1.0  0.26268  0.05543  0.61567  1.0000
  C   C119      1.0  0.27301  0.05614  0.62258  1.0000
  C   C120      1.0  0.28215  0.04358  0.62854  1.0000
  C   C121      1.0  0.28089  0.03030  0.62752  1.0000
  C   C122      1.0  0.27065  0.02959  0.62053  1.0000
  H   H140      1.0  0.25562  0.06516  0.61125  1.0000
  H   H141      1.0  0.27387  0.06645  0.62337  1.0000
  H   H142      1.0  0.28776  0.02055  0.63217  1.0000
  H   H143      1.0  0.26975  0.01925  0.61986  1.0000
  C   C123      1.0  0.25363  0.09533  0.53475  1.0000
  C   C124      1.0  0.25973  0.10563  0.52380  1.0000
  C   C125      1.0  0.28802  0.06913  0.55175  1.0000
  C   C126      1.0  0.47329  0.09931  0.84288  1.0000
  C   C127      1.0  0.25061  0.08388  0.53142  1.0000
  H   H144      1.0  0.26213  0.11445  0.52633  1.0000
  H   H145      1.0  0.24594  0.07586  0.53987  1.0000
  C   C128      1.0  0.32280  0.05014  0.66961  1.0000
  C   C129      1.0  0.14835  0.11219  0.60547  1.0000
  C   C130      1.0  0.15199  0.11905  0.61394  1.0000
  C   C131      1.0  0.16643  0.11616  0.61526  1.0000
  C   C132      1.0  0.17737  0.10677  0.60776  1.0000
  C   C133      1.0  0.17370  0.09988  0.59932  1.0000
  C   C134      1.0  0.15920  0.10254  0.59825  1.0000
  H   H146      1.0  0.14360  0.12628  0.61977  1.0000
  H   H147      1.0  0.16910  0.12112  0.62220  1.0000
  H   H148      1.0  0.18201  0.09247  0.59366  1.0000
  H   H149      1.0  0.15641  0.09726  0.59167  1.0000
  H   H150      1.0  0.31947  0.05304  0.65924  1.0000
  H   H151      1.0  0.11742  0.11948  0.57672  1.0000
  C   C135      1.0  0.47839  0.11977  0.91106  1.0000
  C   C136      1.0  0.47288  0.13172  0.91718  1.0000
  C   C137      1.0  0.47712  0.13193  0.92932  1.0000
  H   H152      1.0  0.49887  0.16432  0.94631  1.0000
  H   H153      1.0  0.48946  0.04520  0.81728  1.0000
  S   S70       1.0  0.26227  0.09356  0.48796  1.0000
  H   H154      1.0  0.46525  0.14079  0.91264  1.0000
  H   H155      1.0  0.47302  0.14134  0.93385  1.0000
  S   S71       1.0  0.49898  0.08725  0.98096  1.0000
  C   C138      1.0  0.25361  0.08291  0.51704  1.0000
  C   C139      1.0  0.42600  0.05348  0.77672  1.0000
  C   C140      1.0  0.41398  0.05101  0.78785  1.0000
  C   C141      1.0  0.40403  0.04398  0.78635  1.0000
  C   C142      1.0  0.40606  0.03915  0.77384  1.0000
  C   C143      1.0  0.41826  0.04135  0.76287  1.0000
  C   C144      1.0  0.42806  0.04857  0.76427  1.0000
  H   H156      1.0  0.41199  0.05504  0.79734  1.0000
  H   H157      1.0  0.39453  0.04252  0.79482  1.0000
  H   H158      1.0  0.41995  0.03779  0.75315  1.0000
  H   H159      1.0  0.43724  0.05051  0.75553  1.0000
  C   C145      1.0  0.43845  0.12222  0.82431  1.0000
  C   C146      1.0  0.43233  0.12759  0.83680  1.0000
  C   C147      1.0  0.43852  0.13715  0.84001  1.0000
  C   C148      1.0  0.45090  0.12646  0.81509  1.0000
  H   H160      1.0  0.42261  0.12451  0.84393  1.0000
  H   H161      1.0  0.43360  0.14130  0.84957  1.0000
  C   C149      1.0  0.45437  0.04319  0.85812  1.0000
  C   C150      1.0  0.46028  0.03104  0.86756  1.0000
  C   C151      1.0  0.46614  0.03256  0.87816  1.0000
  C   C152      1.0  0.46599  0.04623  0.87942  1.0000
  C   C153      1.0  0.45957  0.05838  0.87033  1.0000
  C   C154      1.0  0.45387  0.05686  0.85962  1.0000
  H   H162      1.0  0.46058  0.02044  0.86655  1.0000
  H   H163      1.0  0.47068  0.02314  0.88541  1.0000
  H   H164      1.0  0.45919  0.06896  0.87142  1.0000
  H   H165      1.0  0.44887  0.06627  0.85268  1.0000
  H   H166      1.0  0.15415  0.08794  0.52909  1.0000
  C   C155      1.0  0.26244  0.10481  0.50954  1.0000
  H   H167      1.0  0.04675  0.08273  0.52214  1.0000
  H   H168      1.0  0.22957  0.11388  0.49204  1.0000
  C   C156      1.0  0.22939  0.99731  0.53229  1.0000
  C   C157      1.0  0.22985  0.00477  0.50697  1.0000
  C   C158      1.0  0.24020  0.00786  0.63882  1.0000
  C   C159      1.0  0.20045  0.01248  0.58574  1.0000
  C   C160      1.0  0.21107  0.01871  0.58687  1.0000
  C   C161      1.0  0.20946  0.03371  0.58281  1.0000
  C   C162      1.0  0.19735  0.04236  0.57744  1.0000
  C   C163      1.0  0.18661  0.03612  0.57677  1.0000
  C   C164      1.0  0.18806  0.02128  0.58109  1.0000
  H   H169      1.0  0.22078  0.01197  0.59023  1.0000
  H   H170      1.0  0.21782  0.03850  0.58334  1.0000
  H   H171      1.0  0.17730  0.04274  0.57256  1.0000
  H   H172      1.0  0.17968  0.01664  0.58043  1.0000
  C   C165      1.0  0.06907  0.11131  0.59588  1.0000
  C   C166      1.0  0.07920  0.11469  0.60105  1.0000
  C   C167      1.0  0.08050  0.12891  0.59814  1.0000
  C   C168      1.0  0.07129  0.13993  0.59055  1.0000
  C   C169      1.0  0.06133  0.13655  0.58513  1.0000
  C   C170      1.0  0.06036  0.12220  0.58762  1.0000
  H   H173      1.0  0.08597  0.10634  0.60742  1.0000
  H   H174      1.0  0.08843  0.13132  0.60211  1.0000
  H   H175      1.0  0.05422  0.14502  0.57920  1.0000
  H   H176      1.0  0.05245  0.11966  0.58368  1.0000
  C   C171      1.0  0.09116  0.10515  0.52215  1.0000
  C   C172      1.0  0.11451  0.08831  0.51964  1.0000
  C   C173      1.0  0.09959  0.09132  0.52582  1.0000
  H   H177      1.0  0.12109  0.07768  0.52259  1.0000
  H   H178      1.0  0.09463  0.08298  0.53342  1.0000
  C   C174      1.0  0.10770  0.03884  0.56423  1.0000
  C   C175      1.0  0.11695  0.02569  0.56860  1.0000
  C   C176      1.0  0.13208  0.02420  0.56460  1.0000
  C   C177      1.0  0.13801  0.03588  0.55620  1.0000
  C   C178      1.0  0.12876  0.04909  0.55196  1.0000
  C   C179      1.0  0.11362  0.05059  0.55600  1.0000
  H   H179      1.0  0.11238  0.01662  0.57505  1.0000
  H   H180      1.0  0.13915  0.01400  0.56794  1.0000
  H   H181      1.0  0.13326  0.05801  0.54505  1.0000
  H   H182      1.0  0.10658  0.06064  0.55223  1.0000
  C   C180      1.0  0.20123  0.10819  0.52011  1.0000
  C   C181      1.0  0.02613  0.06843  0.54798  1.0000
  H   H183      1.0  0.03298  0.10348  0.49749  1.0000
  C   C182      1.0  0.11416  0.10602  0.55047  1.0000
  C   C183      1.0  0.17135  0.06892  0.50853  1.0000
  H   H184      1.0  0.03620  0.06255  0.55113  1.0000
  H   H185      1.0  0.09853  0.16375  0.51333  1.0000
  N   N8        1.0  0.28205  0.05765  0.56311  1.0000
  Fe  Fe35      1.0  0.11984  0.16769  0.58502  1.0000
  N   N9        1.0  0.43121  0.01740  0.81986  1.0000
  C   C184      1.0  0.41533  0.02285  0.82458  1.0000
  C   C185      1.0  0.43850  0.02964  0.81516  1.0000
  C   C186      1.0  0.47949  0.00625  0.84121  1.0000
  C   C187      1.0  0.43688  0.00687  0.83192  1.0000
  C   C188      1.0  0.43566  0.01112  0.84468  1.0000
  C   C189      1.0  0.22090  0.10841  0.49940  1.0000
  H   H186      1.0  0.19591  0.08982  0.49269  1.0000
  C   C190      1.0  0.44185  0.03319  0.69312  1.0000
  H   H187      1.0  0.47716  0.07097  0.90208  1.0000
  H   H188      1.0  0.41270  0.02885  0.83314  1.0000
  C   C191      1.0  0.25938  0.09352  0.50609  1.0000
  H   H189      1.0  0.20619  0.09669  0.52398  1.0000
  H   H190      1.0  0.24218  0.02070  0.49501  1.0000
  C   C192      1.0  0.12483  0.01310  0.53409  1.0000
  N   N10       1.0  0.20217  0.04614  0.52647  1.0000
  H   H191      1.0  0.27406  0.99879  0.50487  1.0000
  H   H192      1.0  0.48966  0.11664  0.80620  1.0000
  C   C193      1.0  0.18987  0.15442  0.50990  1.0000
  C   C194      1.0  0.11480  0.14934  0.54687  1.0000
  C   C195      1.0  0.34749  0.99496  0.60764  1.0000
  H   H193      1.0  0.24353  0.99772  0.60814  1.0000
  H   H194      1.0  0.42777  0.00253  0.80974  1.0000
  H   H195      1.0  0.49021  0.15007  0.78778  1.0000
  S   S72       1.0  0.36061  0.99649  0.62780  1.0000
  H   H196      1.0  0.25619  0.99227  0.61949  1.0000
  H   H197      1.0  0.16766  0.14869  0.62164  1.0000
  C   C196      1.0  0.14453  0.02527  0.51979  1.0000
  H   H198      1.0  0.09097  0.12648  0.50915  1.0000
  H   H199      1.0  0.11584  0.99666  0.52279  1.0000
  H   H200      1.0  0.29641  0.06467  0.54306  1.0000
  H   H201      1.0  0.22312  0.03831  0.53216  1.0000
  C   C197      1.0  0.43352  0.01139  0.80718  1.0000
  H   H202      1.0  0.49616  0.03394  0.95841  1.0000
  H   H203      1.0  0.06031  0.09204  0.52058  1.0000
  H   H204      1.0  0.42294  0.09062  0.78812  1.0000
  N   N11       1.0  0.46488  0.02433  0.67547  1.0000
  C   C198      1.0  0.19934  0.07020  0.50865  1.0000
  H   H205      1.0  0.25140  0.01071  0.61085  1.0000
  C   C199      1.0  0.11244  0.11292  0.50615  1.0000
  H   H206      1.0  0.48160  0.09505  0.83400  1.0000
  C   C200      1.0  0.39025  0.00025  0.67471  1.0000
  S   S73       1.0  0.49248  0.12110  0.95017  1.0000
  C   C201      1.0  0.45784  0.06520  0.92624  1.0000
  S   S74       1.0  0.16837  0.11651  0.49880  1.0000
  H   H207      1.0  0.48637  0.15883  0.80902  1.0000
  H   H208      1.0  0.12012  0.14137  0.54006  1.0000
  C   C202      1.0  0.23875  0.01415  0.50538  1.0000
  H   H209      1.0  0.42231  0.99592  0.63858  1.0000
  S   S75       1.0  0.25353  0.02728  0.51563  1.0000
  H   H210      1.0  0.03025  0.09839  0.53677  1.0000
  C   C203      1.0  0.20344  0.03277  0.52206  1.0000
  H   H211      1.0  0.18175  0.13744  0.60459  1.0000
  C   C204      1.0  0.24699  0.00093  0.61623  1.0000
  C   C205      1.0  0.27374  0.05256  0.54342  1.0000
  N   N12       1.0  0.15407  0.08877  0.55061  1.0000
  C   C206      1.0  0.16456  0.09130  0.55730  1.0000
  C   C207      1.0  0.15351  0.07341  0.55570  1.0000
  C   C208      1.0  0.15992  0.09174  0.53490  1.0000
  C   C209      1.0  0.13919  0.09767  0.55412  1.0000
  C   C210      1.0  0.13480  0.10572  0.56491  1.0000
  C   C211      1.0  0.12837  0.09800  0.54709  1.0000
  H   H212      1.0  0.16176  0.08785  0.56916  1.0000
  C   C212      1.0  0.19471  0.04473  0.54173  1.0000
  H   H213      1.0  0.16510  0.10281  0.55429  1.0000
  H   H214      1.0  0.16451  0.06626  0.55367  1.0000
  H   H215      1.0  0.14672  0.07045  0.55031  1.0000
  H   H216      1.0  0.14885  0.07080  0.56739  1.0000
  H   H217      1.0  0.17157  0.08635  0.53196  1.0000
  H   H218      1.0  0.13076  0.09200  0.53892  1.0000
  S   S76       1.0  0.16654  0.99595  0.57751  1.0000
  H   H219      1.0  0.49693  0.06414  0.88192  1.0000
  H   H220      1.0  0.01995  0.18614  0.62090  1.0000
  H   H221      1.0  0.46854  0.09026  0.85016  1.0000
  Fe  Fe36      1.0  0.25588  0.04354  0.49477  1.0000
  S   S77       1.0  0.49919  0.17778  0.85871  1.0000
  C   C213      1.0  0.26093  0.03356  0.54862  1.0000
  H   H222      1.0  0.40568  0.00879  0.65725  1.0000
  H   H223      1.0  0.19289  0.10874  0.51430  1.0000
  C   C214      1.0  0.49921  0.99688  0.85344  1.0000
  C   C215      1.0  0.26870  0.03813  0.56748  1.0000
  C   C216      1.0  0.48757  0.10770  0.91756  1.0000
  H   H224      1.0  0.36151  0.08869  0.79025  1.0000
  H   H225      1.0  0.30206  0.04164  0.56143  1.0000
  H   H226      1.0  0.06770  0.18083  0.63159  1.0000
  Fe  Fe37      1.0  0.19087  0.99170  0.57359  1.0000
  C   C217      1.0  0.27485  0.04954  0.55791  1.0000
  H   H227      1.0  0.25560  0.02751  0.54505  1.0000
  H   H228      1.0  0.48660  0.06152  0.94757  1.0000
  H   H229      1.0  0.21386  0.10725  0.49302  1.0000
  C   C218      1.0  0.47682  0.07666  0.91028  1.0000
  C   C219      1.0  0.49962  0.07300  0.87327  1.0000
  S   S78       1.0  0.00590  0.07055  0.51728  1.0000
  S   S79       1.0  0.13381  0.17806  0.56512  1.0000
  S   S80       1.0  0.24061  0.06514  0.49290  1.0000
  H   H230      1.0  0.29651  0.07519  0.68490  1.0000
  C   C220      1.0  0.48935  0.04751  0.82755  1.0000
  N   N13       1.0  0.23484  0.00350  0.62861  1.0000
  H   H231      1.0  0.33865  0.00321  0.61145  1.0000
  H   H232      1.0  0.44457  0.02895  0.65967  1.0000
  C   C221      1.0  0.48346  0.01951  0.83620  1.0000
  H   H233      1.0  0.38019  0.01062  0.62912  1.0000
  H   H234      1.0  0.48816  0.18032  0.81667  1.0000
  C   C222      1.0  0.49224  0.09630  0.80122  1.0000
  C   C223      1.0  0.29104  0.05132  0.67234  1.0000
  H   H235      1.0  0.46783  0.04514  0.66281  1.0000
  C   C224      1.0  0.41838  0.04044  0.68677  1.0000
  C   C225      1.0  0.05633  0.17652  0.61886  1.0000
  H   H236      1.0  0.47803  0.04895  0.83411  1.0000
  C   C226      1.0  0.05162  0.09198  0.51551  1.0000
  Fe  Fe38      1.0  0.14595  0.11718  0.49747  1.0000
  H   H237      1.0  0.15946  0.15984  0.57881  1.0000
  H   H238      1.0  0.47680  0.02778  0.82969  1.0000
  N   N14       1.0  0.47977  0.10594  0.85038  1.0000
  H   H239      1.0  0.47292  0.11557  0.86858  1.0000
  C   C227      1.0  0.27368  0.99777  0.49447  1.0000
  N   N15       1.0  0.47213  0.06828  0.92494  1.0000
  C   C228      1.0  0.29424  0.04769  0.56931  1.0000
  H   H240      1.0  0.17414  0.17704  0.57409  1.0000
  H   H241      1.0  0.40196  0.08815  0.81050  1.0000
  C   C229      1.0  0.47074  0.07663  0.93556  1.0000
  C   C230      1.0  0.47885  0.07166  0.94641  1.0000
  C   C231      1.0  0.46087  0.09020  0.93534  1.0000
  C   C232      1.0  0.47718  0.07981  0.95630  1.0000
  C   C233      1.0  0.45936  0.09829  0.94523  1.0000
  C   C234      1.0  0.46751  0.09310  0.95569  1.0000
  C   C235      1.0  0.15360  0.13945  0.55571  1.0000
  H   H242      1.0  0.40051  0.12648  0.79105  1.0000
  C   C236      1.0  0.19363  0.05829  0.51767  1.0000
  C   C237      1.0  0.11350  0.16948  0.52701  1.0000
  C   C238      1.0  0.39385  0.99729  0.65027  1.0000
  H   H243      1.0  0.06502  0.18314  0.65412  1.0000
  S   S81       1.0  0.09952  0.17460  0.63555  1.0000
  S   S82       1.0  0.46761  0.16280  0.88855  1.0000
  C   C239      1.0  0.49166  0.09509  0.85621  1.0000
  H   H244      1.0  0.26720  0.05670  0.58383  1.0000
  H   H245      1.0  0.45441  0.09479  0.92735  1.0000
  H   H246      1.0  0.48352  0.07580  0.96445  1.0000
  H   H247      1.0  0.45208  0.10879  0.94460  1.0000
  H   H248      1.0  0.46658  0.09952  0.96317  1.0000
  N   N16       1.0  0.10969  0.06998  0.59775  1.0000
  C   C240      1.0  0.10760  0.08408  0.58762  1.0000
  C   C241      1.0  0.10295  0.06051  0.59375  1.0000
  C   C242      1.0  0.10172  0.07182  0.61236  1.0000
  C   C243      1.0  0.12540  0.06442  0.59739  1.0000
  C   C244      1.0  0.13347  0.05158  0.59284  1.0000
  C   C245      1.0  0.13318  0.07210  0.60145  1.0000
  C   C246      1.0  0.14829  0.04660  0.59283  1.0000
  C   C247      1.0  0.14797  0.06699  0.60142  1.0000
  C   C248      1.0  0.15549  0.05425  0.59719  1.0000
  H   H249      1.0  0.11418  0.08327  0.57672  1.0000
  H   H250      1.0  0.09608  0.08833  0.58675  1.0000
  H   H251      1.0  0.11061  0.09237  0.59098  1.0000
  H   H252      1.0  0.10773  0.05937  0.58252  1.0000
  H   H253      1.0  0.09105  0.06493  0.59444  1.0000
  H   H254      1.0  0.10406  0.04967  0.60098  1.0000
  H   H255      1.0  0.10469  0.08023  0.61556  1.0000
  H   H256      1.0  0.08974  0.07522  0.61324  1.0000
  H   H257      1.0  0.10384  0.06162  0.62043  1.0000
  H   H258      1.0  0.12862  0.04517  0.58923  1.0000
  H   H259      1.0  0.12787  0.08212  0.60475  1.0000
  H   H260      1.0  0.15422  0.03673  0.58942  1.0000
  H   H261      1.0  0.15361  0.07291  0.60483  1.0000
  H   H262      1.0  0.16695  0.05034  0.59729  1.0000
  H   H263      1.0  0.21713  0.05732  0.52850  1.0000
  C   C249      1.0  0.13958  0.01269  0.52685  1.0000
  H   H264      1.0  0.24190  0.00708  0.53980  1.0000
  H   H265      1.0  0.21688  0.12093  0.52881  1.0000
  H   H266      1.0  0.14743  0.00262  0.52665  1.0000
  H   H267      1.0  0.44005  0.00511  0.86576  1.0000
  C   C250      1.0  0.21714  0.04757  0.52519  1.0000
  C   C251      1.0  0.09363  0.15619  0.53670  1.0000
  C   C252      1.0  0.09199  0.15806  0.52257  1.0000
  C   C253      1.0  0.08431  0.14846  0.54792  1.0000
  C   C254      1.0  0.08175  0.15245  0.51991  1.0000
  C   C255      1.0  0.07423  0.14273  0.54512  1.0000
  C   C256      1.0  0.07295  0.14474  0.53115  1.0000
  N   N17       1.0  0.11995  0.99960  0.54169  1.0000
  H   H268      1.0  0.41840  0.03838  0.66600  1.0000
  H   H269      1.0  0.41422  0.01467  0.63388  1.0000
  H   H270      1.0  0.23096  0.12220  0.51277  1.0000
  H   H271      1.0  0.48582  0.99696  0.63214  1.0000
  H   H272      1.0  0.42155  0.04087  0.70695  1.0000
  H   H273      1.0  0.21819  0.01065  0.61627  1.0000
  H   H274      1.0  0.46439  0.10720  0.83816  1.0000
  H   H275      1.0  0.02486  0.09428  0.51483  1.0000
  C   C257      1.0  0.49938  0.15194  0.79040  1.0000
  H   H276      1.0  0.08479  0.14673  0.55896  1.0000
  C   C258      1.0  0.00292  0.08515  0.55209  1.0000
  H   H277      1.0  0.06740  0.13664  0.55383  1.0000
  H   H278      1.0  0.06520  0.14020  0.52901  1.0000
  H   H279      1.0  0.47011  0.00484  0.83858  1.0000
  H   H280      1.0  0.26897  0.03531  0.57868  1.0000
  C   C259      1.0  0.06162  0.11741  0.49952  1.0000
  H   H281      1.0  0.48964  0.01471  0.64284  1.0000
  H   H282      1.0  0.33249  0.05463  0.66780  1.0000
  H   H283      1.0  0.32639  0.03826  0.67237  1.0000
  Fe  Fe39      1.0  0.15771  0.13330  0.51140  1.0000
  C   C260      1.0  0.19127  0.08097  0.49974  1.0000
  H   H284      1.0  0.19484  0.14281  0.58934  1.0000
  C   C261      1.0  0.49717  0.10670  0.80438  1.0000
  N   N18       1.0  0.40162  0.10454  0.79116  1.0000
  C   C262      1.0  0.10439  0.00191  0.54929  1.0000
  H   H285      1.0  0.47114  0.03454  0.68842  1.0000
  H   H286      1.0  0.18475  0.17074  0.49158  1.0000
  H   H287      1.0  0.41053  0.03035  0.81565  1.0000
  H   H288      1.0  0.42112  0.00446  0.62051  1.0000
  Fe  Fe40      1.0  0.33856  0.00328  0.64151  1.0000
  H   H289      1.0  0.46608  0.13997  0.81055  1.0000
  S   S83       1.0  0.31715  0.00471  0.63674  1.0000
  S   S84       1.0  0.45830  0.15464  0.83336  1.0000
  H   H290      1.0  0.42060  0.10638  0.77391  1.0000
  S   S85       1.0  0.44530  0.15169  0.87690  1.0000
  N   N19       1.0  0.21231  0.11627  0.51080  1.0000
  Fe  Fe41      1.0  0.45830  0.15864  0.85471  1.0000
  H   H291      1.0  0.27794  0.06109  0.53533  1.0000
  N   N20       1.0  0.10466  0.16160  0.53988  1.0000
  H   H292      1.0  0.24056  0.03741  0.64980  1.0000
  H   H293      1.0  0.29041  0.03972  0.57900  1.0000
  C   C263      1.0  0.39468  0.09656  0.78552  1.0000
  C   C264      1.0  0.45057  0.14187  0.83045  1.0000
  C   C265      1.0  0.14907  0.16463  0.62738  1.0000
  Fe  Fe42      1.0  0.49435  0.03035  0.89404  1.0000
  C   C266      1.0  0.39559  0.08092  0.77006  1.0000
  C   C267      1.0  0.26181  0.03033  0.56288  1.0000
  Fe  Fe43      1.0  0.46690  0.14279  0.88304  1.0000
  C   C268      1.0  0.13491  0.03858  0.51945  1.0000
  C   C269      1.0  0.49158  0.10779  0.92991  1.0000
  C   C270      1.0  0.23860  0.00642  0.53061  1.0000
  H   H294      1.0  0.26614  0.04708  0.52784  1.0000
  N   N21       1.0  0.40080  0.00033  0.63482  1.0000
  C   C271      1.0  0.49722  0.00447  0.64302  1.0000
  C   C272      1.0  0.12052  0.11360  0.56830  1.0000
  H   H295      1.0  0.47572  0.12684  0.83640  1.0000
  H   H296      1.0  0.30305  0.07461  0.66635  1.0000
  C   C273      1.0  0.11020  0.11371  0.56114  1.0000
  H   H297      1.0  0.10612  0.10618  0.54485  1.0000
  H   H298      1.0  0.49880  0.13839  0.89429  1.0000
  H   H299      1.0  0.31490  0.07653  0.67588  1.0000
  C   C274      1.0  0.12094  0.09920  0.51001  1.0000
  H   H300      1.0  0.41386  0.08800  0.77008  1.0000
  H   H301      1.0  0.10212  0.00843  0.55739  1.0000
  C   C275      1.0  0.19051  0.15989  0.49535  1.0000
  H   H302      1.0  0.29236  0.99185  0.64038  1.0000
  H   H303      1.0  0.30034  0.05350  0.57274  1.0000
  C   C276      1.0  0.05699  0.18243  0.62969  1.0000
  N   N22       1.0  0.31087  0.05523  0.68116  1.0000
  C   C277      1.0  0.30611  0.07106  0.67689  1.0000
  H   H304      1.0  0.29917  0.03543  0.70512  1.0000
  C   C278      1.0  0.17923  0.05818  0.51761  1.0000
  S   S86       1.0  0.13973  0.09600  0.50345  1.0000
  H   H305      1.0  0.25130  0.07410  0.51443  1.0000
  H   H306      1.0  0.19064  0.15116  0.60419  1.0000
  H   H307      1.0  0.18512  0.17569  0.58628  1.0000
  H   H308      1.0  0.43574  0.03598  0.82345  1.0000
  S   S87       1.0  0.45822  0.18030  0.85783  1.0000
  H   H309      1.0  0.10920  0.14369  0.55732  1.0000
  H   H310      1.0  0.26202  0.07192  0.57022  1.0000
  H   H311      1.0  0.46237  0.10322  0.86932  1.0000
  C   C279      1.0  0.29855  0.04845  0.68340  1.0000
  C   C280      1.0  0.29379  0.03877  0.69631  1.0000
  H   H312      1.0  0.32144  0.04027  0.69745  1.0000
  H   H313      1.0  0.32608  0.05723  0.69210  1.0000
  C   C281      1.0  0.49908  0.13418  0.98443  1.0000
  C   C282      1.0  0.47281  0.02375  0.68631  1.0000
  H   H314      1.0  0.45565  0.12256  0.80537  1.0000
  S   S88       1.0  0.47979  0.14842  0.86077  1.0000
  C   C283      1.0  0.41518  0.00399  0.63187  1.0000
  H   H315      1.0  0.49192  0.09845  0.91288  1.0000
  C   C284      1.0  0.27148  0.06458  0.57437  1.0000
  C   C285      1.0  0.31689  0.05195  0.69407  1.0000
  C   C286      1.0  0.28198  0.03275  0.69808  1.0000
  H   H316      1.0  0.27863  0.02529  0.70796  1.0000
  C   C287      1.0  0.03619  0.18854  0.66320  1.0000
  H   H317      1.0  0.13005  0.18161  0.63060  1.0000
  H   H318      1.0  0.09908  0.11962  0.56398  1.0000
  C   C288      1.0  0.48855  0.08331  0.86756  1.0000
  C   C289      1.0  0.02289  0.06625  0.53609  1.0000
  H   H319      1.0  0.30848  0.05558  0.70319  1.0000
  H   H320      1.0  0.29438  0.05804  0.66198  1.0000
  C   C290      1.0  0.09751  0.11585  0.51211  1.0000
  H   H321      1.0  0.14213  0.10611  0.57097  1.0000
  C   C291      1.0  0.45674  0.13642  0.81802  1.0000
  N   N23       1.0  0.17424  0.15831  0.59168  1.0000
  S   S89       1.0  0.49927  0.01656  0.91484  1.0000
  C   C292      1.0  0.16061  0.15852  0.61743  1.0000
  S   S90       1.0  0.09767  0.17836  0.59569  1.0000
  H   H322      1.0  0.26692  0.11300  0.50113  1.0000
  C   C293      1.0  0.27924  0.04526  0.67424  1.0000
  C   C294      1.0  0.27467  0.03605  0.68710  1.0000
  S   S91       1.0  0.27603  0.05233  0.48660  1.0000
  H   H323      1.0  0.08080  0.15393  0.50902  1.0000
  H   H324      1.0  0.26566  0.03122  0.68843  1.0000
  C   C295      1.0  0.23680  0.02228  0.64033  1.0000
  H   H325      1.0  0.27389  0.04747  0.66548  1.0000
  H   H326      1.0  0.47981  0.00500  0.67035  1.0000
  C   C296      1.0  0.15691  0.14274  0.54079  1.0000
  C   C297      1.0  0.46825  0.11146  0.86204  1.0000
  H   H327      1.0  0.46942  0.01616  0.69654  1.0000
  H   H328      1.0  0.15216  0.18230  0.58719  1.0000
  H   H329      1.0  0.16200  0.14341  0.59196  1.0000
  H   H330      1.0  0.11988  0.16245  0.51944  1.0000
  H   H331      1.0  0.12153  0.17355  0.52980  1.0000
  C   C298      1.0  0.24308  0.01505  0.51720  1.0000
  H   H332      1.0  0.12352  0.15288  0.54908  1.0000
  S   S92       1.0  0.50167  0.01267  0.88222  1.0000
  C   C299      1.0  0.16767  0.15170  0.58428  1.0000
  H   H333      1.0  0.03525  0.15466  0.49346  1.0000
  H   H334      1.0  0.17595  0.14642  0.57606  1.0000
  H   H335      1.0  0.19105  0.16458  0.57341  1.0000
  C   C300      1.0  0.37295  0.08873  0.78595  1.0000
  H   H336      1.0  0.15610  0.12844  0.56156  1.0000
  H   H337      1.0  0.40665  0.04409  0.68970  1.0000
  H   H338      1.0  0.22666  0.09738  0.50386  1.0000
  C   C301      1.0  0.48662  0.12005  0.93561  1.0000
  S   S93       1.0  0.43540  0.99829  0.66142  1.0000
  H   H339      1.0  0.25702  0.02182  0.57044  1.0000
  H   H340      1.0  0.17580  0.08502  0.55396  1.0000
  H   H341      1.0  0.46732  0.03306  0.65268  1.0000
  H   H342      1.0  0.50143  0.14782  0.94078  1.0000
  H   H343      1.0  0.04078  0.17676  0.66524  1.0000
  H   H344      1.0  0.14358  0.14761  0.57469  1.0000
  H   H345      1.0  0.06618  0.17067  0.61297  1.0000
  H   H346      1.0  0.21039  0.02349  0.52792  1.0000
  H   H347      1.0  0.42266  0.10782  0.79056  1.0000
  H   H348      1.0  0.38728  0.10352  0.81223  1.0000
  C   C302      1.0  0.38095  0.08081  0.77573  1.0000
  C   C303      1.0  0.39886  0.10003  0.80700  1.0000
  S   S94       1.0  0.16505  0.12887  0.53175  1.0000
  H   H349      1.0  0.48465  0.16402  0.82929  1.0000
  C   C304      1.0  0.26689  0.04463  0.53893  1.0000
  S   S95       1.0  0.13509  0.13270  0.51169  1.0000
  H   H350      1.0  0.29326  0.07508  0.55600  1.0000
  Fe  Fe44      1.0  0.10483  0.16550  0.61591  1.0000
  H   H351      1.0  0.38350  0.12290  0.79165  1.0000
  H   H352      1.0  0.45861  0.05831  0.91888  1.0000
  C   C305      1.0  0.48480  0.11849  0.84011  1.0000
  H   H353      1.0  0.40516  0.10468  0.81153  1.0000
  C   C306      1.0  0.39539  0.12013  0.78712  1.0000
  H   H354      1.0  0.39710  0.12391  0.77529  1.0000
  H   H355      1.0  0.40181  0.07464  0.76216  1.0000
  C   C307      1.0  0.14654  0.15034  0.56315  1.0000
  H   H356      1.0  0.49027  0.12364  0.84496  1.0000
  H   H357      1.0  0.37586  0.07449  0.77220  1.0000
  C   C308      1.0  0.49535  0.02193  0.83994  1.0000
  C   C309      1.0  0.39114  0.01270  0.62739  1.0000
  H   H358      1.0  0.44952  0.07511  0.92353  1.0000
  H   H359      1.0  0.48100  0.09825  0.80065  1.0000
  Fe  Fe45      1.0  0.47869  0.16927  0.86571  1.0000
  H   H360      1.0  0.22806  0.10510  0.52365  1.0000
  C   C310      1.0  0.37964  0.09658  0.79074  1.0000
  Fe  Fe46      1.0  0.44699  0.17252  0.88065  1.0000
  H   H361      1.0  0.48789  0.07846  0.90859  1.0000
  S   S96       1.0  0.42893  0.18541  0.89502  1.0000
  C   C311      1.0  0.40243  0.08865  0.77482  1.0000
  C   C312      1.0  0.44896  0.02980  0.67960  1.0000
  C   C313      1.0  0.04257  0.14421  0.49517  1.0000
  H   H362      1.0  0.27925  0.07731  0.54704  1.0000
  C   C314      1.0  0.42501  0.03723  0.67343  1.0000
  H   H363      1.0  0.27637  0.07104  0.57838  1.0000
  H   H364      1.0  0.19278  0.02988  0.52419  1.0000
  C   C315      1.0  0.11527  0.02688  0.53346  1.0000
  H   H365      1.0  0.43536  0.03733  0.80544  1.0000
  H   H366      1.0  0.19534  0.11255  0.52977  1.0000
  H   H367      1.0  0.22372  0.04765  0.51415  1.0000
  H   H368      1.0  0.20841  0.03369  0.51044  1.0000
  H   H369      1.0  0.08933  0.18061  0.54509  1.0000
  C   C316      1.0  0.00962  0.07341  0.53225  1.0000
  C   C317      1.0  0.20502  0.13123  0.50527  1.0000
  C   C318      1.0  0.04655  0.11832  0.50580  1.0000
  H   H370      1.0  0.09708  0.00740  0.54173  1.0000
  C   C319      1.0  0.50205  0.14083  0.96992  1.0000
  C   C320      1.0  0.12030  0.03937  0.52614  1.0000
  C   C321      1.0  0.19694  0.14030  0.51482  1.0000
  H   H371      1.0  0.42920  0.01963  0.79829  1.0000
  C   C322      1.0  0.47098  0.03373  0.66195  1.0000
  C   C323      1.0  0.24991  0.99775  0.64694  1.0000
  H   H372      1.0  0.40954  0.01388  0.82880  1.0000
  H   H373      1.0  0.11286  0.04977  0.52601  1.0000
  C   C324      1.0  0.03432  0.10785  0.52953  1.0000
  C   C325      1.0  0.14710  0.16798  0.54076  1.0000
  H   H374      1.0  0.38948  0.02249  0.63142  1.0000
  H   H375      1.0  0.12779  0.99773  0.56028  1.0000
  H   H376      1.0  0.43061  0.02199  0.84585  1.0000
  Fe  Fe47      1.0  0.13741  0.14950  0.49125  1.0000
  C   C326      1.0  0.43569  0.99470  0.67949  1.0000
  C   C327      1.0  0.42679  0.03849  0.69654  1.0000
  C   C328      1.0  0.02894  0.10417  0.50891  1.0000
  H   H377      1.0  0.45362  0.05947  0.93731  1.0000
  H   H378      1.0  0.39301  0.00459  0.68215  1.0000
  H   H379      1.0  0.19567  0.13642  0.52625  1.0000
  H   H380      1.0  0.20120  0.03605  0.54870  1.0000
  C   C329      1.0  0.14336  0.16462  0.55571  1.0000
  H   H381      1.0  0.09162  0.16609  0.56025  1.0000
  H   H382      1.0  0.26346  0.99391  0.66181  1.0000
  H   H383      1.0  0.16050  0.06847  0.50838  1.0000
  Fe  Fe48      1.0  0.31171  0.99262  0.65939  1.0000
  C   C330      1.0  0.44004  0.03186  0.66992  1.0000
  H   H384      1.0  0.48364  0.04835  0.91848  1.0000
  C   C331      1.0  0.49633  0.18101  0.88595  1.0000
  H   H385      1.0  0.47755  0.08186  0.87203  1.0000
  H   H386      1.0  0.19297  0.05484  0.54522  1.0000
  C   C332      1.0  0.15357  0.15698  0.53328  1.0000
  C   C333      1.0  0.48283  0.05431  0.92667  1.0000
  C   C334      1.0  0.09745  0.17148  0.54973  1.0000
  H   H387      1.0  0.46942  0.08734  0.90790  1.0000
  H   H388      1.0  0.10390  0.02839  0.53876  1.0000
  S   S97       1.0  0.17148  0.99471  0.54379  1.0000
  C   C335      1.0  0.03720  0.13213  0.50341  1.0000
  H   H389      1.0  0.17409  0.04957  0.52434  1.0000
  H   H390      1.0  0.15592  0.02468  0.51463  1.0000
  H   H391      1.0  0.11736  0.12131  0.49856  1.0000
  H   H392      1.0  0.39561  0.01514  0.61564  1.0000
  H   H393      1.0  0.21011  0.07127  0.50801  1.0000
  S   S98       1.0  0.49599  0.07070  0.79406  1.0000
  C   C336      1.0  0.06688  0.12958  0.49140  1.0000
  H   H394      1.0  0.02566  0.13370  0.50802  1.0000
  C   C337      1.0  0.04305  0.17794  0.61562  1.0000
  C   C338      1.0  0.18141  0.16940  0.58095  1.0000
  Fe  Fe49      1.0  0.38485  0.99281  0.75242  1.0000
  C   C339      1.0  0.46791  0.00959  0.67328  1.0000
  C   C340      1.0  0.39745  0.00261  0.66031  1.0000
  C   C341      1.0  0.49507  0.99443  0.63691  1.0000
  H   H395      1.0  0.04271  0.17321  0.60723  1.0000
  C   C342      1.0  0.22271  0.01451  0.62313  1.0000
  C   C343      1.0  0.48726  0.99500  0.84992  1.0000
  H   H396      1.0  0.02449  0.19029  0.66320  1.0000
  C   C344      1.0  0.20538  0.13713  0.49050  1.0000
  H   H397      1.0  0.49224  0.11553  0.83028  1.0000
  H   H398      1.0  0.05670  0.08967  0.50472  1.0000
  H   H399      1.0  0.46311  0.00906  0.66468  1.0000
  H   H400      1.0  0.10545  0.17598  0.55212  1.0000
  H   H401      1.0  0.49124  0.17612  0.83434  1.0000
  S   S99       1.0  0.20315  0.99381  0.58841  1.0000
  H   H402      1.0  0.06967  0.10750  0.50104  1.0000
  H   H403      1.0  0.13879  0.04833  0.51409  1.0000
  C   C345      1.0  0.17744  0.08018  0.49947  1.0000
  H   H404      1.0  0.48871  0.04155  0.85568  1.0000
  H   H405      1.0  0.14457  0.17902  0.53499  1.0000
  C   C346      1.0  0.50175  0.18233  0.89695  1.0000
  C   C347      1.0  0.18583  0.14703  0.59778  1.0000
  H   H406      1.0  0.14759  0.15952  0.63865  1.0000
  H   H407      1.0  0.04261  0.10958  0.53410  1.0000
  H   H408      1.0  0.01925  0.11318  0.50965  1.0000
  C   C348      1.0  0.05738  0.14293  0.48919  1.0000
  H   H409      1.0  0.02499  0.11724  0.53011  1.0000
  H   H410      1.0  0.50133  0.15024  0.87735  1.0000
  H   H411      1.0  0.17141  0.08831  0.49218  1.0000
  H   H412      1.0  0.21361  0.01760  0.63205  1.0000
  H   H413      1.0  0.10659  0.17897  0.52122  1.0000
  C   C349      1.0  0.25245  0.01605  0.65700  1.0000
  H   H414      1.0  0.48502  0.18088  0.88780  1.0000
  H   H415      1.0  0.25745  0.01925  0.66361  1.0000
  C   C350      1.0  0.44363  0.99229  0.83151  1.0000
  H   H416      1.0  0.49468  0.18284  0.90734  1.0000
  C   C351      1.0  0.15205  0.17738  0.59833  1.0000
  H   H417      1.0  0.49240  0.05807  0.82473  1.0000
  N   N24       1.0  0.49943  0.03604  0.83542  1.0000
  C   C352      1.0  0.04418  0.18995  0.63774  1.0000
  H   H418      1.0  0.07844  0.12868  0.48691  1.0000
  S   S100      1.0  0.12013  0.16996  0.48829  1.0000
  C   C353      1.0  0.03080  0.19109  0.63425  1.0000
  C   C354      1.0  0.50196  0.08363  0.79838  1.0000
  C   C355      1.0  0.37922  0.99268  0.67954  1.0000
  C   C356      1.0  0.12867  0.99134  0.55249  1.0000
  H   H419      1.0  0.10114  0.99159  0.55510  1.0000
  H   H420      1.0  0.41468  0.30635  0.99149  1.0000
  H   H421      1.0  0.25570  0.32706  0.10680  1.0000
  C   C357      1.0  0.42046  0.26667  0.00525  1.0000
  N   N25       1.0  0.24451  0.34884  0.09936  1.0000
  H   H422      1.0  0.03878  0.37661  0.32370  1.0000
  C   C358      1.0  0.11319  0.34391  0.27538  1.0000
  Fe  Fe50      1.0  0.35833  0.26487  0.03054  1.0000
  S   S101      1.0  0.35545  0.28667  0.03435  1.0000
  C   C359      1.0  0.04448  0.21993  0.37680  1.0000
  Fe  Fe51      1.0  0.38411  0.25191  0.04481  1.0000
  S   S102      1.0  0.38384  0.27279  0.04920  1.0000
  Fe  Fe52      1.0  0.35972  0.27498  0.05590  1.0000
  S   S103      1.0  0.34913  0.28387  0.07542  1.0000
  Fe  Fe53      1.0  0.37958  0.28260  0.02733  1.0000
  S   S104      1.0  0.38861  0.30033  0.01120  1.0000
  S   S105      1.0  0.36007  0.25338  0.05309  1.0000
  S   S106      1.0  0.38238  0.26153  0.02200  1.0000
  H   H423      1.0  0.34782  0.37952  0.07594  1.0000
  Fe  Fe54      1.0  0.29847  0.36773  0.03992  1.0000
  S   S107      1.0  0.31109  0.34898  0.05291  1.0000
  H   H424      1.0  0.45016  0.23968  0.99958  1.0000
  H   H425      1.0  0.38091  0.37760  0.02751  1.0000
  S   S108      1.0  0.28814  0.35854  0.08156  1.0000
  H   H426      1.0  0.38133  0.21800  0.15048  1.0000
  Fe  Fe55      1.0  0.30877  0.36384  0.06671  1.0000
  S   S109      1.0  0.32874  0.36436  0.07284  1.0000
  Fe  Fe56      1.0  0.28950  0.34537  0.06620  1.0000
  S   S110      1.0  0.28677  0.32286  0.07158  1.0000
  H   H427      1.0  0.09412  0.31888  0.30908  1.0000
  S   S111      1.0  0.27681  0.36290  0.05195  1.0000
  H   H428      1.0  0.35194  0.25146  0.08698  1.0000
  Fe  Fe57      1.0  0.45758  0.31736  0.99919  1.0000
  C   C360      1.0  0.35503  0.35313  0.02494  1.0000
  S   S112      1.0  0.44762  0.30463  0.02025  1.0000
  C   C361      1.0  0.01445  0.26986  0.42438  1.0000
  H   H429      1.0  0.37435  0.25931  0.08052  1.0000
  S   S113      1.0  0.34308  0.26238  0.01881  1.0000
  S   S114      1.0  0.48813  0.19310  0.13100  1.0000
  C   C362      1.0  0.13386  0.19606  0.43377  1.0000
  C   C363      1.0  0.34284  0.25342  0.99555  1.0000
  S   S115      1.0  0.47125  0.33172  0.99925  1.0000
  H   H430      1.0  0.35571  0.22756  0.14829  1.0000
  C   C364      1.0  0.38438  0.34602  0.01168  1.0000
  H   H431      1.0  0.02681  0.23254  0.36759  1.0000
  C   C365      1.0  0.30233  0.37750  0.99048  1.0000
  C   C366      1.0  0.14404  0.21714  0.42316  1.0000
  H   H432      1.0  0.38091  0.36741  0.99853  1.0000
  H   H433      1.0  0.37540  0.31708  0.05005  1.0000
  C   C367      1.0  0.05801  0.30256  0.39654  1.0000
  C   C368      1.0  0.09967  0.32557  0.29976  1.0000
  C   C369      1.0  0.00635  0.39006  0.40585  1.0000
  C   C370      1.0  0.02820  0.28171  0.40229  1.0000
  H   H434      1.0  0.34785  0.23790  0.10263  1.0000
  C   C371      1.0  0.01757  0.25246  0.46403  1.0000
  C   C372      1.0  0.36326  0.33928  0.03002  1.0000
  H   H435      1.0  0.01132  0.25653  0.39135  1.0000
  N   N26       1.0  0.43042  0.25267  0.00939  1.0000
  Fe  Fe58      1.0  0.44397  0.20138  0.11028  1.0000
  C   C373      1.0  0.04819  0.30463  0.40967  1.0000
  C   C374      1.0  0.42350  0.21321  0.08125  1.0000
  H   H436      1.0  0.09161  0.31942  0.28513  1.0000
  H   H437      1.0  0.04759  0.25134  0.33345  1.0000
  H   H438      1.0  0.01440  0.36739  0.41241  1.0000
  C   C375      1.0  0.31277  0.32562  0.98939  1.0000
  H   H439      1.0  0.07952  0.27012  0.40758  1.0000
  Fe  Fe59      1.0  0.06065  0.29619  0.34828  1.0000
  S   S116      1.0  0.04914  0.29964  0.33074  1.0000
  S   S117      1.0  0.07715  0.27568  0.35304  1.0000
  Fe  Fe60      1.0  0.04611  0.32551  0.35425  1.0000
  S   S118      1.0  0.03319  0.33143  0.33746  1.0000
  S   S119      1.0  0.04281  0.34087  0.36799  1.0000
  Fe  Fe61      1.0  0.02954  0.30916  0.34579  1.0000
  H   H440      1.0  0.42914  0.23039  0.01458  1.0000
  Fe  Fe62      1.0  0.05398  0.32162  0.32400  1.0000
  S   S120      1.0  0.06031  0.33234  0.30080  1.0000
  S   S121      1.0  0.04064  0.30397  0.36392  1.0000
  S   S122      1.0  0.06733  0.31735  0.34019  1.0000
  H   H441      1.0  0.09233  0.21510  0.43562  1.0000
  S   S123      1.0  0.05781  0.21812  0.45124  1.0000
  H   H442      1.0  0.38763  0.22710  0.08822  1.0000
  Fe  Fe63      1.0  0.03854  0.21052  0.42608  1.0000
  S   S124      1.0  0.03750  0.23290  0.42724  1.0000
  C   C376      1.0  0.10474  0.19712  0.41785  1.0000
  Fe  Fe64      1.0  0.06117  0.22506  0.42731  1.0000
  S   S125      1.0  0.07922  0.23629  0.41467  1.0000
  Fe  Fe65      1.0  0.03412  0.22384  0.45079  1.0000
  H   H443      1.0  0.03687  0.27053  0.42092  1.0000
  S   S126      1.0  0.06267  0.20330  0.42405  1.0000
  S   S127      1.0  0.03355  0.20191  0.44972  1.0000
  H   H444      1.0  0.13823  0.35367  0.27011  1.0000
  H   H445      1.0  0.01720  0.26860  0.34644  1.0000
  C   C377      1.0  0.03125  0.25584  0.45830  1.0000
  C   C378      1.0  0.03294  0.26958  0.45749  1.0000
  H   H446      1.0  0.43815  0.30697  0.99515  1.0000
  H   H447      1.0  0.31270  0.38059  0.98619  1.0000
  C   C379      1.0  0.00671  0.31413  0.32162  1.0000
  H   H448      1.0  0.04053  0.24786  0.45460  1.0000
  H   H449      1.0  0.04354  0.27212  0.45331  1.0000
  C   C380      1.0  0.43596  0.24141  0.03408  1.0000
  H   H450      1.0  0.37129  0.30929  0.03777  1.0000
  S   S128      1.0  0.12161  0.38688  0.21822  1.0000
  H   H451      1.0  0.42015  0.38714  0.00118  1.0000
  C   C381      1.0  0.44283  0.26382  0.02090  1.0000
  S   S129      1.0  0.40000  0.23103  0.05068  1.0000
  H   H452      1.0  0.10305  0.33509  0.26401  1.0000
  C   C382      1.0  0.14646  0.38928  0.19739  1.0000
  C   C383      1.0  0.33594  0.38201  0.04636  1.0000
  H   H453      1.0  0.38526  0.32567  0.02583  1.0000
  C   C384      1.0  0.06144  0.28131  0.42118  1.0000
  H   H454      1.0  0.34403  0.32787  0.06378  1.0000
  H   H455      1.0  0.13435  0.36820  0.25535  1.0000
  C   C385      1.0  0.04115  0.36105  0.34326  1.0000
  C   C386      1.0  0.25399  0.34874  0.12063  1.0000
  H   H456      1.0  0.36087  0.30787  0.05565  1.0000
  H   H457      1.0  0.24013  0.36976  0.14503  1.0000
  H   H458      1.0  0.30543  0.33953  0.01871  1.0000
  H   H459      1.0  0.04859  0.35293  0.33790  1.0000
  H   H460      1.0  0.01439  0.37899  0.31761  1.0000
  H   H461      1.0  0.01447  0.39036  0.36238  1.0000
  C   C387      1.0  0.07703  0.26538  0.37056  1.0000
  C   C388      1.0  0.09019  0.25673  0.37359  1.0000
  C   C389      1.0  0.09065  0.24782  0.38713  1.0000
  C   C390      1.0  0.07784  0.24696  0.39760  1.0000
  C   C391      1.0  0.06452  0.25534  0.39457  1.0000
  C   C392      1.0  0.06417  0.26482  0.38113  1.0000
  H   H462      1.0  0.10015  0.25704  0.36546  1.0000
  H   H463      1.0  0.10097  0.24148  0.38945  1.0000
  H   H464      1.0  0.05462  0.25481  0.40270  1.0000
  H   H465      1.0  0.05397  0.27146  0.37891  1.0000
  C   C393      1.0  0.39003  0.22376  0.12789  1.0000
  C   C394      1.0  0.44844  0.26399  0.03220  1.0000
  H   H466      1.0  0.26518  0.36643  0.00554  1.0000
  C   C395      1.0  0.02771  0.36883  0.36510  1.0000
  H   H467      1.0  0.03827  0.28479  0.39610  1.0000
  H   H468      1.0  0.10149  0.37131  0.26413  1.0000
  C   C396      1.0  0.36647  0.31524  0.04649  1.0000
  C   C397      1.0  0.12886  0.34541  0.25151  1.0000
  H   H469      1.0  0.41291  0.24234  0.02190  1.0000
  C   C398      1.0  0.03705  0.35815  0.35817  1.0000
  H   H470      1.0  0.00225  0.33329  0.35626  1.0000
  H   H471      1.0  0.22824  0.33659  0.11057  1.0000
  H   H472      1.0  0.22139  0.35388  0.10015  1.0000
  H   H473      1.0  0.05021  0.33142  0.39442  1.0000
  C   C399      1.0  0.37602  0.35959  0.00715  1.0000
  H   H474      1.0  0.37141  0.26286  0.09782  1.0000
  H   H475      1.0  0.07642  0.28883  0.38566  1.0000
  H   H476      1.0  0.01932  0.33002  0.39935  1.0000
  C   C400      1.0  0.41957  0.38496  0.99140  1.0000
  H   H477      1.0  0.15281  0.22253  0.42115  1.0000
  C   C401      1.0  0.12925  0.36130  0.26534  1.0000
  C   C402      1.0  0.37571  0.23102  0.08925  1.0000
  S   S130      1.0  0.01502  0.23568  0.46445  1.0000
  C   C403      1.0  0.07639  0.36373  0.30512  1.0000
  C   C404      1.0  0.07037  0.35171  0.30824  1.0000
  C   C405      1.0  0.06655  0.34814  0.29747  1.0000
  H   H478      1.0  0.04074  0.27042  0.33170  1.0000
  H   H479      1.0  0.25702  0.33222  0.08790  1.0000
  H   H480      1.0  0.07977  0.36612  0.31341  1.0000
  H   H481      1.0  0.06916  0.34494  0.31886  1.0000
  H   H482      1.0  0.11053  0.22365  0.41675  1.0000
  H   H483      1.0  0.32163  0.28263  0.00308  1.0000
  H   H484      1.0  0.33912  0.31768  0.04625  1.0000
  H   H485      1.0  0.33625  0.33495  0.03451  1.0000
  C   C406      1.0  0.00304  0.28178  0.40432  1.0000
  H   H486      1.0  0.34105  0.34525  0.05256  1.0000
  Fe  Fe66      1.0  0.27699  0.37666  0.06623  1.0000
  H   H487      1.0  0.01300  0.39077  0.39509  1.0000
  C   C407      1.0  0.38688  0.22998  0.11443  1.0000
  C   C408      1.0  0.25666  0.33619  0.09738  1.0000
  C   C409      1.0  0.24683  0.36042  0.08643  1.0000
  H   H488      1.0  0.03341  0.31815  0.43238  1.0000
  H   H489      1.0  0.10025  0.20834  0.41265  1.0000
  H   H490      1.0  0.44149  0.23292  0.05470  1.0000
  C   C410      1.0  0.00237  0.21901  0.40131  1.0000
  H   H491      1.0  0.03316  0.31863  0.38946  1.0000
  H   H492      1.0  0.41640  0.20602  0.06648  1.0000
  S   S131      1.0  0.46761  0.19326  0.10102  1.0000
  H   H493      1.0  0.05063  0.32981  0.41256  1.0000
  H   H494      1.0  0.41522  0.26675  0.99669  1.0000
  C   C411      1.0  0.02445  0.36213  0.30677  1.0000
  H   H495      1.0  0.04344  0.29419  0.43250  1.0000
  H   H496      1.0  0.23169  0.33979  0.09139  1.0000
  C   C412      1.0  0.44790  0.25290  0.04436  1.0000
  H   H497      1.0  0.34947  0.32036  0.02807  1.0000
  H   H498      1.0  0.43124  0.23238  0.03562  1.0000
  C   C413      1.0  0.07396  0.36920  0.28066  1.0000
  H   H499      1.0  0.35482  0.37366  0.01024  1.0000
  S   S132      1.0  0.43094  0.22296  0.10087  1.0000
  H   H500      1.0  0.37986  0.34205  0.06357  1.0000
  C   C414      1.0  0.41655  0.21521  0.07010  1.0000
  S   S133      1.0  0.29760  0.38305  0.05282  1.0000
  C   C415      1.0  0.04600  0.26045  0.33848  1.0000
  S   S134      1.0  0.30862  0.37204  0.01649  1.0000
  C   C416      1.0  0.30969  0.33178  0.01198  1.0000
  C   C417      1.0  0.31716  0.31798  0.01722  1.0000
  C   C418      1.0  0.23169  0.36552  0.11604  1.0000
  C   C419      1.0  0.02719  0.31839  0.42456  1.0000
  C   C420      1.0  0.02295  0.35314  0.29913  1.0000
  H   H501      1.0  0.11259  0.37180  0.24643  1.0000
  C   C421      1.0  0.27547  0.36968  0.00134  1.0000
  C   C422      1.0  0.28386  0.36944  0.01069  1.0000
  H   H502      1.0  0.00828  0.34715  0.29072  1.0000
  C   C423      1.0  0.33751  0.37743  0.06056  1.0000
  C   C424      1.0  0.36137  0.36311  0.01376  1.0000
  S   S135      1.0  0.44762  0.19837  0.13221  1.0000
  H   H503      1.0  0.28000  0.36604  0.02205  1.0000
  H   H504      1.0  0.22159  0.37971  0.13059  1.0000
  C   C425      1.0  0.10490  0.33491  0.27419  1.0000
  C   C426      1.0  0.40509  0.30094  0.01400  1.0000
  C   C427      1.0  0.41615  0.30441  0.00223  1.0000
  C   C428      1.0  0.42945  0.30482  0.00428  1.0000
  C   C429      1.0  0.43157  0.30228  0.01805  1.0000
  C   C430      1.0  0.42060  0.29864  0.02989  1.0000
  C   C431      1.0  0.40733  0.29791  0.02785  1.0000
  H   H505      1.0  0.39602  0.23040  0.10539  1.0000
  C   C432      1.0  0.35366  0.24683  0.09807  1.0000
  H   H506      1.0  0.42231  0.29654  0.04058  1.0000
  H   H507      1.0  0.39877  0.29536  0.03700  1.0000
  C   C433      1.0  0.33176  0.29454  0.07430  1.0000
  C   C434      1.0  0.32639  0.30623  0.08087  1.0000
  C   C435      1.0  0.31263  0.31503  0.07985  1.0000
  C   C436      1.0  0.30398  0.31181  0.07277  1.0000
  C   C437      1.0  0.30931  0.30007  0.06626  1.0000
  C   C438      1.0  0.32333  0.29158  0.06680  1.0000
  H   H508      1.0  0.33291  0.30856  0.08665  1.0000
  H   H509      1.0  0.30859  0.32415  0.08481  1.0000
  H   H510      1.0  0.30268  0.29765  0.06066  1.0000
  H   H511      1.0  0.32744  0.28255  0.06171  1.0000
  C   C439      1.0  0.35088  0.25846  0.00182  1.0000
  C   C440      1.0  0.36463  0.26085  0.99422  1.0000
  C   C441      1.0  0.10756  0.33439  0.30136  1.0000
  H   H512      1.0  0.12231  0.34083  0.24730  1.0000
  H   H513      1.0  0.26351  0.34043  0.11827  1.0000
  H   H514      1.0  0.37079  0.26505  0.99877  1.0000
  C   C442      1.0  0.37816  0.33597  0.02294  1.0000
  C   C443      1.0  0.42351  0.22500  0.08616  1.0000
  C   C444      1.0  0.41681  0.23880  0.07968  1.0000
  C   C445      1.0  0.40979  0.24078  0.06862  1.0000
  C   C446      1.0  0.40948  0.22897  0.06392  1.0000
  C   C447      1.0  0.02085  0.28007  0.46189  1.0000
  C   C448      1.0  0.05026  0.29359  0.42203  1.0000
  H   H515      1.0  0.41695  0.24797  0.08334  1.0000
  H   H516      1.0  0.40468  0.25145  0.06374  1.0000
  N   N27       1.0  0.36938  0.24182  0.09821  1.0000
  C   C449      1.0  0.12015  0.21748  0.42069  1.0000
  C   C450      1.0  0.01777  0.23417  0.40113  1.0000
  C   C451      1.0  0.07086  0.27965  0.40814  1.0000
  C   C452      1.0  0.38656  0.36777  0.03355  1.0000
  H   H517      1.0  0.33219  0.25157  0.00135  1.0000
  H   H518      1.0  0.09858  0.20342  0.45090  1.0000
  C   C453      1.0  0.12102  0.20306  0.42852  1.0000
  H   H519      1.0  0.06285  0.27297  0.43070  1.0000
  C   C454      1.0  0.07840  0.37241  0.29128  1.0000
  C   C455      1.0  0.06823  0.35699  0.28371  1.0000
  C   C456      1.0  0.25268  0.35424  0.13245  1.0000
  N   N28       1.0  0.35626  0.32893  0.04193  1.0000
  C   C457      1.0  0.43618  0.25264  0.02157  1.0000
  C   C458      1.0  0.37612  0.25439  0.09153  1.0000
  H   H520      1.0  0.23769  0.37003  0.08655  1.0000
  H   H521      1.0  0.34356  0.35637  0.02958  1.0000
  H   H522      1.0  0.27100  0.38395  0.09508  1.0000
  C   C459      1.0  0.10811  0.36455  0.25642  1.0000
  Fe  Fe67      1.0  0.05768  0.19676  0.44804  1.0000
  S   S136      1.0  0.08688  0.38685  0.28762  1.0000
  C   C460      1.0  0.06911  0.29022  0.39583  1.0000
  C   C461      1.0  0.00945  0.35424  0.29658  1.0000
  H   H523      1.0  0.13724  0.33644  0.25594  1.0000
  C   C462      1.0  0.44182  0.24158  0.04523  1.0000
  H   H524      1.0  0.06514  0.35434  0.27538  1.0000
  H   H525      1.0  0.24823  0.35684  0.07645  1.0000
  H   H526      1.0  0.11979  0.35031  0.29149  1.0000
  C   C463      1.0  0.37233  0.23547  0.11268  1.0000
  H   H527      1.0  0.12289  0.36867  0.27260  1.0000
  H   H528      1.0  0.02218  0.24966  0.34745  1.0000
  H   H529      1.0  0.10058  0.35976  0.25375  1.0000
  H   H530      1.0  0.44381  0.27255  0.01161  1.0000
  H   H531      1.0  0.43885  0.25086  0.98742  1.0000
  H   H532      1.0  0.40129  0.21962  0.12882  1.0000
  C   C464      1.0  0.09833  0.32585  0.28622  1.0000
  H   H533      1.0  0.42866  0.20253  0.08617  1.0000
  H   H534      1.0  0.10818  0.33444  0.31199  1.0000
  H   H535      1.0  0.09562  0.19257  0.48273  1.0000
  C   C465      1.0  0.03559  0.37446  0.33524  1.0000
  C   C466      1.0  0.42215  0.24135  0.01249  1.0000
  H   H536      1.0  0.38804  0.25157  0.09064  1.0000
  H   H537      1.0  0.35771  0.33823  0.05832  1.0000
  C   C467      1.0  0.24341  0.35418  0.11210  1.0000
  N   N29       1.0  0.03724  0.25782  0.35335  1.0000
  C   C468      1.0  0.02226  0.25809  0.35267  1.0000
  C   C469      1.0  0.03626  0.26984  0.35980  1.0000
  C   C470      1.0  0.23086  0.34460  0.10045  1.0000
  C   C471      1.0  0.04436  0.24419  0.36178  1.0000
  C   C472      1.0  0.03758  0.23237  0.36840  1.0000
  C   C473      1.0  0.05851  0.24254  0.36378  1.0000
  C   C474      1.0  0.06516  0.23021  0.37246  1.0000
  C   C475      1.0  0.05811  0.21894  0.37903  1.0000
  H   H538      1.0  0.01498  0.25665  0.36352  1.0000
  H   H539      1.0  0.13456  0.35238  0.24199  1.0000
  C   C476      1.0  0.29739  0.37316  0.00523  1.0000
  H   H540      1.0  0.02977  0.28010  0.35463  1.0000
  H   H541      1.0  0.04711  0.27190  0.35857  1.0000
  H   H542      1.0  0.03107  0.26761  0.37140  1.0000
  C   C477      1.0  0.34478  0.32535  0.03749  1.0000
  S   S137      1.0  0.02261  0.29758  0.45985  1.0000
  H   H543      1.0  0.05699  0.26188  0.33796  1.0000
  H   H544      1.0  0.06447  0.25092  0.35882  1.0000
  H   H545      1.0  0.07577  0.22949  0.37421  1.0000
  H   H546      1.0  0.06314  0.20945  0.38594  1.0000
  N   N30       1.0  0.42510  0.34504  0.03187  1.0000
  C   C478      1.0  0.43278  0.35638  0.03050  1.0000
  C   C479      1.0  0.43164  0.33186  0.04144  1.0000
  C   C480      1.0  0.42801  0.34176  0.01767  1.0000
  C   C481      1.0  0.40924  0.35009  0.03691  1.0000
  C   C482      1.0  0.40155  0.36277  0.02905  1.0000
  C   C483      1.0  0.40095  0.34264  0.04946  1.0000
  H   H547      1.0  0.37405  0.23543  0.07815  1.0000
  C   C484      1.0  0.38596  0.34772  0.05383  1.0000
  H   H548      1.0  0.34828  0.25557  0.10396  1.0000
  H   H549      1.0  0.43037  0.35971  0.04079  1.0000
  H   H550      1.0  0.44481  0.35268  0.02712  1.0000
  H   H551      1.0  0.42983  0.36610  0.02218  1.0000
  H   H552      1.0  0.43019  0.33357  0.05231  1.0000
  H   H553      1.0  0.44359  0.32838  0.03726  1.0000
  H   H554      1.0  0.42704  0.32259  0.04223  1.0000
  H   H555      1.0  0.42474  0.35137  0.00938  1.0000
  H   H556      1.0  0.43983  0.33757  0.01380  1.0000
  H   H557      1.0  0.42228  0.33345  0.01806  1.0000
  H   H558      1.0  0.40708  0.36891  0.01934  1.0000
  H   H559      1.0  0.40581  0.33290  0.05613  1.0000
  H   H560      1.0  0.31854  0.31495  0.02815  1.0000
  H   H561      1.0  0.34625  0.33749  0.99771  1.0000
  H   H562      1.0  0.37005  0.32137  0.99235  1.0000
  C   C485      1.0  0.02739  0.27379  0.41629  1.0000
  H   H563      1.0  0.42613  0.27565  0.00088  1.0000
  S   S138      1.0  0.02558  0.20554  0.41355  1.0000
  H   H564      1.0  0.01842  0.32834  0.42436  1.0000
  H   H565      1.0  0.32917  0.37751  0.04279  1.0000
  H   H566      1.0  0.05724  0.31056  0.38670  1.0000
  H   H567      1.0  0.22362  0.37072  0.10969  1.0000
  C   C486      1.0  0.32251  0.30794  0.00859  1.0000
  H   H568      1.0  0.02753  0.23540  0.40310  1.0000
  C   C487      1.0  0.11421  0.34349  0.28941  1.0000
  C   C488      1.0  0.37878  0.36021  0.04587  1.0000
  C   C489      1.0  0.00719  0.27668  0.46748  1.0000
  H   H569      1.0  0.08651  0.19863  0.44335  1.0000
  H   H570      1.0  0.34975  0.23846  0.12510  1.0000
  H   H571      1.0  0.01138  0.35565  0.34798  1.0000
  H   H572      1.0  0.41745  0.24204  0.00335  1.0000
  H   H573      1.0  0.39577  0.34325  0.00648  1.0000
  C   C490      1.0  0.35044  0.33513  0.98717  1.0000
  H   H574      1.0  0.38088  0.29828  0.98735  1.0000
  H   H575      1.0  0.02460  0.36661  0.37664  1.0000
  N   N31       1.0  0.03666  0.31792  0.41013  1.0000
  H   H576      1.0  0.25673  0.36415  0.08557  1.0000
  H   H577      1.0  0.02053  0.31105  0.40451  1.0000
  N   N32       1.0  0.11982  0.35361  0.26248  1.0000
  H   H578      1.0  0.26745  0.33881  0.09534  1.0000
  C   C491      1.0  0.44272  0.25034  0.99705  1.0000
  C   C492      1.0  0.34951  0.33533  0.05463  1.0000
  H   H579      1.0  0.45224  0.25304  0.05313  1.0000
  C   C493      1.0  0.04345  0.33049  0.40546  1.0000
  H   H580      1.0  0.03511  0.34075  0.40544  1.0000
  H   H581      1.0  0.11434  0.19260  0.41010  1.0000
  C   C494      1.0  0.02708  0.31939  0.40047  1.0000
  H   H582      1.0  0.32801  0.29728  0.01323  1.0000
  H   H583      1.0  0.02167  0.30923  0.42878  1.0000
  H   H584      1.0  0.01747  0.30729  0.31971  1.0000
  H   H585      1.0  0.41171  0.26933  0.01459  1.0000
  H   H586      1.0  0.30146  0.34622  0.99416  1.0000
  H   H587      1.0  0.00562  0.32032  0.29942  1.0000
  H   H588      1.0  0.07505  0.37602  0.27007  1.0000
  H   H589      1.0  0.13056  0.23539  0.41204  1.0000
  H   H590      1.0  0.03902  0.21112  0.38202  1.0000
  H   H591      1.0  0.26100  0.35020  0.13865  1.0000
  C   C495      1.0  0.31901  0.28825  0.99250  1.0000
  C   C496      1.0  0.37881  0.22287  0.14005  1.0000
  C   C497      1.0  0.00715  0.37691  0.41564  1.0000
  C   C498      1.0  0.23041  0.37078  0.12798  1.0000
  H   H592      1.0  0.01442  0.26359  0.43516  1.0000
  C   C499      1.0  0.01606  0.28568  0.39631  1.0000
  C   C500      1.0  0.02196  0.38222  0.35705  1.0000
  H   H593      1.0  0.37083  0.22144  0.09387  1.0000
  H   H594      1.0  0.36717  0.36409  0.04927  1.0000
  C   C501      1.0  0.00871  0.24610  0.39425  1.0000
  H   H595      1.0  0.45327  0.27278  0.03148  1.0000
  C   C502      1.0  0.36112  0.23449  0.12532  1.0000
  N   N33       1.0  0.10869  0.19614  0.43141  1.0000
  C   C503      1.0  0.24090  0.36519  0.13613  1.0000
  H   H596      1.0  0.34497  0.28982  0.99461  1.0000
  H   H597      1.0  0.03501  0.36108  0.30881  1.0000
  C   C504      1.0  0.01244  0.37237  0.31180  1.0000
  H   H598      1.0  0.03226  0.34523  0.29524  1.0000
  S   S139      1.0  0.44723  0.36919  0.99073  1.0000
  H   H599      1.0  0.07554  0.19472  0.47129  1.0000
  C   C505      1.0  0.01454  0.22063  0.40480  1.0000
  C   C506      1.0  0.26021  0.39013  0.09853  1.0000
  C   C507      1.0  0.14518  0.20305  0.43104  1.0000
  C   C508      1.0  0.32051  0.31146  0.99437  1.0000
  C   C509      1.0  0.09599  0.20365  0.44071  1.0000
  C   C510      1.0  0.30747  0.33554  0.99813  1.0000
  C   C511      1.0  0.02574  0.38491  0.34212  1.0000
  H   H600      1.0  0.44938  0.25852  0.99398  1.0000
  H   H601      1.0  0.26299  0.38808  0.11969  1.0000
  H   H602      1.0  0.01667  0.29182  0.38539  1.0000
  S   S140      1.0  0.00716  0.30526  0.35002  1.0000
  C   C512      1.0  0.28065  0.37360  0.98655  1.0000
  H   H603      1.0  0.30696  0.29181  0.99423  1.0000
  H   H604      1.0  0.15484  0.19751  0.43520  1.0000
  C   C513      1.0  0.36440  0.22825  0.13878  1.0000
  H   H605      1.0  0.14170  0.38551  0.19103  1.0000
  C   C514      1.0  0.00562  0.26281  0.46885  1.0000
  C   C515      1.0  0.13153  0.22436  0.41802  1.0000
  C   C516      1.0  0.34655  0.38305  0.06501  1.0000
  C   C517      1.0  0.13892  0.39069  0.21127  1.0000
  C   C518      1.0  0.09211  0.37853  0.77615  1.0000
  C   C519      1.0  0.34206  0.34114  0.97691  1.0000
  N   N34       1.0  0.37688  0.22363  0.92831  1.0000
  H   H606      1.0  0.44987  0.30055  0.97308  1.0000
  C   C520      1.0  0.10834  0.37608  0.86579  1.0000
  H   H607      1.0  0.01571  0.29239  0.78206  1.0000
  H   H608      1.0  0.32876  0.31511  0.96480  1.0000
  H   H609      1.0  0.44073  0.27868  0.97757  1.0000
  H   H610      1.0  0.45922  0.21149  0.91697  1.0000
  Fe  Fe68      1.0  0.28915  0.38031  0.92148  1.0000
  H   H611      1.0  0.16023  0.37847  0.84849  1.0000
  Fe  Fe69      1.0  0.38843  0.25894  0.94457  1.0000
  S   S141      1.0  0.39144  0.27827  0.94929  1.0000
  Fe  Fe70      1.0  0.41453  0.25782  0.91980  1.0000
  S   S142      1.0  0.41987  0.27741  0.92239  1.0000
  S   S143      1.0  0.42820  0.24741  0.90132  1.0000
  Fe  Fe71      1.0  0.41504  0.26770  0.94588  1.0000
  S   S144      1.0  0.42648  0.26913  0.96191  1.0000
  Fe  Fe72      1.0  0.39585  0.28682  0.92571  1.0000
  S   S145      1.0  0.38692  0.31054  0.91839  1.0000
  S   S146      1.0  0.41176  0.24720  0.94318  1.0000
  S   S147      1.0  0.39079  0.26827  0.92102  1.0000
  H   H612      1.0  0.00651  0.24599  0.70688  1.0000
  S   S148      1.0  0.31047  0.36186  0.95166  1.0000
  H   H613      1.0  0.02586  0.21365  0.64666  1.0000
  S   S149      1.0  0.31330  0.37100  0.91672  1.0000
  C   C521      1.0  0.05366  0.32220  0.60716  1.0000
  Fe  Fe73      1.0  0.30808  0.35250  0.93488  1.0000
  S   S150      1.0  0.31828  0.32887  0.93716  1.0000
  H   H614      1.0  0.04331  0.21746  0.63686  1.0000
  H   H615      1.0  0.02872  0.32545  0.76600  1.0000
  S   S151      1.0  0.28376  0.36089  0.93813  1.0000
  H   H616      1.0  0.01761  0.36368  0.66627  1.0000
  H   H617      1.0  0.23265  0.36629  0.96206  1.0000
  S   S152      1.0  0.44996  0.32551  0.94970  1.0000
  H   H618      1.0  0.00704  0.30795  0.67710  1.0000
  H   H619      1.0  0.03763  0.21637  0.65574  1.0000
  C   C522      1.0  0.42357  0.20620  0.91012  1.0000
  H   H620      1.0  0.21497  0.38387  0.91533  1.0000
  H   H621      1.0  0.03010  0.36124  0.67691  1.0000
  H   H622      1.0  0.13269  0.19294  0.60491  1.0000
  H   H623      1.0  0.02747  0.28251  0.75278  1.0000
  H   H624      1.0  0.01464  0.34428  0.49094  1.0000
  C   C523      1.0  0.09252  0.38510  0.90727  1.0000
  H   H625      1.0  0.36837  0.24647  0.92704  1.0000
  C   C524      1.0  0.24180  0.37082  0.95446  1.0000
  C   C525      1.0  0.43607  0.21203  0.88536  1.0000
  C   C526      1.0  0.03208  0.32080  0.66344  1.0000
  S   S153      1.0  0.03512  0.30733  0.56964  1.0000
  H   H626      1.0  0.38997  0.32292  0.94454  1.0000
  H   H627      1.0  0.25372  0.38629  0.93001  1.0000
  S   S154      1.0  0.06400  0.35892  0.64134  1.0000
  N   N35       1.0  0.07056  0.32383  0.62160  1.0000
  Fe  Fe74      1.0  0.07353  0.35898  0.70929  1.0000
  S   S155      1.0  0.05895  0.36953  0.72682  1.0000
  H   H628      1.0  0.39495  0.29111  0.97381  1.0000
  Fe  Fe75      1.0  0.06802  0.32959  0.72471  1.0000
  S   S156      1.0  0.05362  0.33775  0.74399  1.0000
  S   S157      1.0  0.06819  0.30687  0.72419  1.0000
  Fe  Fe76      1.0  0.04390  0.35587  0.72803  1.0000
  S   S158      1.0  0.01983  0.36343  0.72938  1.0000
  Fe  Fe77      1.0  0.07012  0.35073  0.74131  1.0000
  S   S159      1.0  0.07363  0.35580  0.76082  1.0000
  S   S160      1.0  0.05733  0.34726  0.70901  1.0000
  S   S161      1.0  0.08570  0.34066  0.72354  1.0000
  Fe  Fe78      1.0  0.06854  0.25196  0.64425  1.0000
  S   S162      1.0  0.06104  0.27596  0.63986  1.0000
  C   C527      1.0  0.29394  0.37777  0.98118  1.0000
  Fe  Fe79      1.0  0.04473  0.24831  0.67089  1.0000
  S   S163      1.0  0.03577  0.27186  0.66903  1.0000
  S   S164      1.0  0.03234  0.23276  0.68708  1.0000
  Fe  Fe80      1.0  0.03852  0.27220  0.64601  1.0000
  C   C528      1.0  0.04019  0.38398  0.69345  1.0000
  Fe  Fe81      1.0  0.05901  0.27376  0.66334  1.0000
  S   S165      1.0  0.06595  0.29220  0.66690  1.0000
  S   S166      1.0  0.04611  0.24853  0.64819  1.0000
  S   S167      1.0  0.06808  0.24978  0.66738  1.0000
  C   C529      1.0  0.48374  0.21953  0.91099  1.0000
  H   H629      1.0  0.02664  0.38984  0.88000  1.0000
  H   H630      1.0  0.39817  0.20433  0.88745  1.0000
  C   C530      1.0  0.01350  0.23798  0.66918  1.0000
  C   C531      1.0  0.38771  0.21263  0.90643  1.0000
  C   C532      1.0  0.20711  0.38291  0.82886  1.0000
  C   C533      1.0  0.43064  0.37333  0.97151  1.0000
  Fe  Fe82      1.0  0.31369  0.38108  0.93397  1.0000
  H   H631      1.0  0.34769  0.30436  0.97938  1.0000
  H   H632      1.0  0.01667  0.29815  0.74356  1.0000
  H   H633      1.0  0.39315  0.34049  0.91495  1.0000
  C   C534      1.0  0.01007  0.25236  0.71222  1.0000
  H   H634      1.0  0.32784  0.29761  0.96447  1.0000
  C   C535      1.0  0.06102  0.38413  0.87279  1.0000
  H   H635      1.0  0.00922  0.28905  0.76144  1.0000
  H   H636      1.0  0.01599  0.24847  0.66485  1.0000
  H   H637      1.0  0.45812  0.21185  0.89958  1.0000
  S   S168      1.0  0.08619  0.24211  0.62748  1.0000
  H   H638      1.0  0.40600  0.22660  0.87330  1.0000
  C   C536      1.0  0.00461  0.29744  0.67997  1.0000
  C   C537      1.0  0.39976  0.22610  0.88419  1.0000
  C   C538      1.0  0.03735  0.34975  0.60936  1.0000
  C   C539      1.0  0.00213  0.29204  0.66971  1.0000
  H   H639      1.0  0.01189  0.34845  0.76750  1.0000
  S   S169      1.0  0.36920  0.24943  0.95705  1.0000
  H   H640      1.0  0.02853  0.26443  0.59843  1.0000
  H   H641      1.0  0.07565  0.34437  0.61879  1.0000
  H   H642      1.0  0.36470  0.21070  0.94631  1.0000
  H   H643      1.0  0.44086  0.20914  0.87513  1.0000
  C   C540      1.0  0.01694  0.29935  0.49692  1.0000
  H   H644      1.0  0.04984  0.37986  0.69835  1.0000
  C   C541      1.0  0.08584  0.36529  0.76230  1.0000
  C   C542      1.0  0.08277  0.37096  0.77447  1.0000
  H   H645      1.0  0.39163  0.23348  0.93265  1.0000
  H   H646      1.0  0.03086  0.37967  0.70093  1.0000
  C   C543      1.0  0.10788  0.37471  0.75355  1.0000
  C   C544      1.0  0.09853  0.36714  0.75187  1.0000
  C   C545      1.0  0.00391  0.28939  0.69398  1.0000
  H   H647      1.0  0.13628  0.37303  0.85781  1.0000
  H   H648      1.0  0.07161  0.38435  0.64251  1.0000
  H   H649      1.0  0.10134  0.36234  0.74275  1.0000
  C   C546      1.0  0.06693  0.30313  0.70831  1.0000
  C   C547      1.0  0.06246  0.29068  0.70903  1.0000
  C   C548      1.0  0.06188  0.28720  0.69650  1.0000
  C   C549      1.0  0.06606  0.29602  0.68312  1.0000
  C   C550      1.0  0.07050  0.30845  0.68244  1.0000
  C   C551      1.0  0.07077  0.31210  0.69495  1.0000
  H   H650      1.0  0.05958  0.28362  0.71930  1.0000
  H   H651      1.0  0.05852  0.27755  0.69717  1.0000
  H   H652      1.0  0.07396  0.31521  0.67214  1.0000
  H   H653      1.0  0.07445  0.32158  0.69420  1.0000
  H   H654      1.0  0.00590  0.29431  0.70136  1.0000
  C   C552      1.0  0.01870  0.38663  0.58908  1.0000
  H   H655      1.0  0.34051  0.34231  0.95559  1.0000
  C   C553      1.0  0.39526  0.21358  0.89218  1.0000
  C   C554      1.0  0.01684  0.32610  0.72316  1.0000
  C   C555      1.0  0.02230  0.33692  0.72484  1.0000
  H   H656      1.0  0.38221  0.22282  0.94805  1.0000
  S   S170      1.0  0.47340  0.34259  0.96438  1.0000
  H   H657      1.0  0.02413  0.31602  0.72151  1.0000
  H   H658      1.0  0.03365  0.33494  0.72486  1.0000
  H   H659      1.0  0.02231  0.31644  0.50209  1.0000
  C   C556      1.0  0.08038  0.36876  0.67479  1.0000
  H   H660      1.0  0.29777  0.38119  0.96983  1.0000
  H   H661      1.0  0.07230  0.30138  0.62330  1.0000
  C   C557      1.0  0.07172  0.36232  0.65343  1.0000
  C   C558      1.0  0.07491  0.35156  0.66527  1.0000
  C   C559      1.0  0.07920  0.35480  0.67598  1.0000
  C   C560      1.0  0.00833  0.34002  0.76546  1.0000
  H   H662      1.0  0.33151  0.34826  0.97941  1.0000
  H   H663      1.0  0.07365  0.34085  0.66639  1.0000
  H   H664      1.0  0.08155  0.34649  0.68519  1.0000
  C   C561      1.0  0.01387  0.31581  0.76104  1.0000
  C   C562      1.0  0.06583  0.32217  0.63731  1.0000
  C   C563      1.0  0.03746  0.21152  0.64704  1.0000
  C   C564      1.0  0.01303  0.35004  0.72686  1.0000
  Fe  Fe83      1.0  0.04884  0.37936  0.63369  1.0000
  C   C565      1.0  0.46597  0.21050  0.90614  1.0000
  C   C566      1.0  0.39679  0.23773  0.89044  1.0000
  C   C567      1.0  0.03918  0.23653  0.60938  1.0000
  C   C568      1.0  0.18726  0.37885  0.81531  1.0000
  C   C569      1.0  0.03138  0.29839  0.58759  1.0000
  C   C570      1.0  0.04226  0.29397  0.59538  1.0000
  C   C571      1.0  0.03876  0.28887  0.61023  1.0000
  C   C572      1.0  0.02443  0.28805  0.61721  1.0000
  H   H665      1.0  0.07943  0.39000  0.66136  1.0000
  H   H666      1.0  0.08956  0.38279  0.78560  1.0000
  H   H667      1.0  0.05322  0.29516  0.59003  1.0000
  H   H668      1.0  0.04704  0.28608  0.61628  1.0000
  C   C573      1.0  0.47837  0.21870  0.87509  1.0000
  N   N36       1.0  0.47535  0.22112  0.90020  1.0000
  H   H669      1.0  0.47245  0.24410  0.89417  1.0000
  H   H670      1.0  0.01518  0.36651  0.56851  1.0000
  C   C574      1.0  0.37081  0.21062  0.93508  1.0000
  C   C575      1.0  0.39554  0.31852  0.97029  1.0000
  H   H671      1.0  0.25908  0.39015  0.94376  1.0000
  C   C576      1.0  0.08811  0.21438  0.64363  1.0000
  C   C577      1.0  0.09076  0.22328  0.63001  1.0000
  C   C578      1.0  0.09714  0.21708  0.61810  1.0000
  C   C579      1.0  0.10002  0.20214  0.61967  1.0000
  H   H672      1.0  0.35718  0.23755  0.92269  1.0000
  H   H673      1.0  0.08346  0.21906  0.65290  1.0000
  C   C580      1.0  0.09170  0.19939  0.64527  1.0000
  C   C581      1.0  0.02757  0.35636  0.66944  1.0000
  H   H674      1.0  0.05519  0.37664  0.88080  1.0000
  C   C582      1.0  0.36463  0.23630  0.92971  1.0000
  H   H675      1.0  0.03619  0.30401  0.65222  1.0000
  H   H676      1.0  0.03468  0.21699  0.60705  1.0000
  C   C583      1.0  0.38440  0.22436  0.91311  1.0000
  H   H677      1.0  0.05988  0.20453  0.60120  1.0000
  C   C584      1.0  0.02123  0.25693  0.60074  1.0000
  C   C585      1.0  0.10473  0.38048  0.76568  1.0000
  C   C586      1.0  0.00427  0.23372  0.66340  1.0000
  H   H678      1.0  0.40668  0.31177  0.96745  1.0000
  S   S171      1.0  0.11663  0.39029  0.76718  1.0000
  H   H679      1.0  0.36051  0.37720  0.93474  1.0000
  C   C587      1.0  0.01593  0.21523  0.68627  1.0000
  H   H680      1.0  0.02044  0.20798  0.69505  1.0000
  C   C588      1.0  0.04281  0.22251  0.60670  1.0000
  C   C589      1.0  0.08061  0.33379  0.61592  1.0000
  H   H681      1.0  0.36313  0.20986  0.92915  1.0000
  C   C590      1.0  0.07367  0.37609  0.65186  1.0000
  C   C591      1.0  0.23076  0.37342  0.83503  1.0000
  H   H682      1.0  0.02125  0.25351  0.70618  1.0000
  Fe  Fe84      1.0  0.01502  0.32276  0.56374  1.0000
  H   H683      1.0  0.02812  0.25812  0.62425  1.0000
  C   C592      1.0  0.25131  0.37297  0.89800  1.0000
  C   C593      1.0  0.26193  0.37624  0.90277  1.0000
  C   C594      1.0  0.39566  0.34488  0.92251  1.0000
  H   H684      1.0  0.04291  0.37917  0.68397  1.0000
  H   H685      1.0  0.25035  0.36197  0.90017  1.0000
  H   H686      1.0  0.26919  0.36776  0.90853  1.0000
  C   C595      1.0  0.43273  0.28499  0.95834  1.0000
  C   C596      1.0  0.43936  0.28691  0.96812  1.0000
  C   C597      1.0  0.44457  0.29933  0.96557  1.0000
  C   C598      1.0  0.44325  0.30996  0.95315  1.0000
  C   C599      1.0  0.43656  0.30812  0.94335  1.0000
  C   C600      1.0  0.43127  0.29569  0.94595  1.0000
  H   H687      1.0  0.08330  0.31007  0.60715  1.0000
  C   C601      1.0  0.04196  0.32848  0.60043  1.0000
  H   H688      1.0  0.43574  0.31618  0.93360  1.0000
  H   H689      1.0  0.42630  0.29431  0.93824  1.0000
  C   C602      1.0  0.36786  0.31565  0.92359  1.0000
  C   C603      1.0  0.35955  0.30529  0.93017  1.0000
  C   C604      1.0  0.34435  0.30948  0.93415  1.0000
  C   C605      1.0  0.33737  0.32405  0.93190  1.0000
  C   C606      1.0  0.34570  0.33444  0.92565  1.0000
  C   C607      1.0  0.36091  0.33024  0.92136  1.0000
  H   H690      1.0  0.36481  0.29403  0.93187  1.0000
  H   H691      1.0  0.33796  0.30139  0.93876  1.0000
  H   H692      1.0  0.34039  0.34570  0.92382  1.0000
  H   H693      1.0  0.36727  0.33830  0.91620  1.0000
  C   C608      1.0  0.41299  0.34618  0.93474  1.0000
  S   S172      1.0  0.01540  0.34595  0.55473  1.0000
  C   C609      1.0  0.42316  0.21993  0.91168  1.0000
  C   C610      1.0  0.42876  0.22992  0.89997  1.0000
  C   C611      1.0  0.43529  0.22589  0.88683  1.0000
  H   H694      1.0  0.45841  0.23776  0.90867  1.0000
  H   H695      1.0  0.04445  0.30883  0.75560  1.0000
  H   H696      1.0  0.41844  0.22285  0.92188  1.0000
  H   H697      1.0  0.43961  0.23359  0.87770  1.0000
  S   S173      1.0  0.47250  0.30866  0.98062  1.0000
  C   C612      1.0  0.24185  0.38395  0.89053  1.0000
  H   H698      1.0  0.03924  0.32277  0.59414  1.0000
  C   C613      1.0  0.05731  0.21516  0.60331  1.0000
  C   C614      1.0  0.22459  0.39019  0.94307  1.0000
  H   H699      1.0  0.08972  0.19255  0.65584  1.0000
  C   C615      1.0  0.05772  0.32972  0.61504  1.0000
  H   H700      1.0  0.00913  0.29900  0.58832  1.0000
  H   H701      1.0  0.00389  0.34148  0.64026  1.0000
  H   H702      1.0  0.04914  0.25356  0.60944  1.0000
  H   H703      1.0  0.35882  0.36186  0.94946  1.0000
  H   H704      1.0  0.03745  0.31093  0.74031  1.0000
  H   H705      1.0  0.38782  0.24598  0.90915  1.0000
  H   H706      1.0  0.36415  0.32699  0.94942  1.0000
  H   H707      1.0  0.01561  0.27473  0.71795  1.0000
  S   S174      1.0  0.11389  0.38301  0.80911  1.0000
  C   C616      1.0  0.01183  0.33571  0.64667  1.0000
  H   H708      1.0  0.41773  0.37767  0.95598  1.0000
  H   H709      1.0  0.13258  0.36554  0.87673  1.0000
  C   C617      1.0  0.02625  0.29410  0.77470  1.0000
  H   H710      1.0  0.42396  0.34296  0.93657  1.0000
  C   C618      1.0  0.40962  0.34060  0.92511  1.0000
  C   C619      1.0  0.02156  0.38002  0.53339  1.0000
  H   H711      1.0  0.04616  0.29368  0.74899  1.0000
  H   H712      1.0  0.07311  0.36945  0.78270  1.0000
  H   H713      1.0  0.03281  0.37860  0.57092  1.0000
  N   N37       1.0  0.02578  0.34142  0.67603  1.0000
  C   C620      1.0  0.36090  0.32895  0.96007  1.0000
  C   C621      1.0  0.32344  0.30602  0.97085  1.0000
  H   H714      1.0  0.13921  0.38176  0.86965  1.0000
  H   H715      1.0  0.17932  0.37747  0.81045  1.0000
  C   C622      1.0  0.38408  0.29858  0.97574  1.0000
  H   H716      1.0  0.25101  0.36776  0.95996  1.0000
  C   C623      1.0  0.38491  0.35461  0.92971  1.0000
  C   C624      1.0  0.01733  0.29648  0.59443  1.0000
  C   C625      1.0  0.01799  0.32685  0.76431  1.0000
  H   H717      1.0  0.03652  0.19244  0.67246  1.0000
  H   H718      1.0  0.35369  0.37957  0.95250  1.0000
  H   H719      1.0  0.03994  0.31435  0.66969  1.0000
  H   H720      1.0  0.31056  0.32932  0.97880  1.0000
  C   C626      1.0  0.41812  0.37955  0.96597  1.0000
  H   H721      1.0  0.07536  0.38965  0.74067  1.0000
  C   C627      1.0  0.06854  0.22148  0.60245  1.0000
  S   S175      1.0  0.01944  0.28334  0.63586  1.0000
  H   H722      1.0  0.11774  0.37592  0.74551  1.0000
  H   H723      1.0  0.03219  0.38778  0.71896  1.0000
  H   H724      1.0  0.01103  0.33066  0.69318  1.0000
  H   H725      1.0  0.39167  0.38522  0.94194  1.0000
  C   C628      1.0  0.04899  0.34358  0.61616  1.0000
  C   C629      1.0  0.06405  0.38378  0.85835  1.0000
  H   H726      1.0  0.37619  0.29404  0.97327  1.0000
  C   C630      1.0  0.01912  0.29251  0.75424  1.0000
  H   H727      1.0  0.09951  0.22390  0.60757  1.0000
  H   H728      1.0  0.20626  0.36101  0.84083  1.0000
  H   H729      1.0  0.02288  0.25320  0.59080  1.0000
  C   C631      1.0  0.38931  0.23688  0.90468  1.0000
  C   C632      1.0  0.01386  0.29128  0.60924  1.0000
  C   C633      1.0  0.07818  0.37927  0.66248  1.0000
  H   H730      1.0  0.05943  0.31153  0.60584  1.0000
  H   H731      1.0  0.07415  0.24020  0.60408  1.0000
  C   C634      1.0  0.06537  0.23525  0.60481  1.0000
  H   H732      1.0  0.38496  0.20246  0.91204  1.0000
  H   H733      1.0  0.08850  0.30547  0.62395  1.0000
  H   H734      1.0  0.24417  0.39004  0.96687  1.0000
  H   H735      1.0  0.01084  0.24560  0.72304  1.0000
  H   H736      1.0  0.38122  0.25939  0.97494  1.0000
  H   H737      1.0  0.08398  0.33581  0.60406  1.0000
  H   H738      1.0  0.08246  0.38218  0.91379  1.0000
  C   C635      1.0  0.20254  0.36978  0.83253  1.0000
  H   H739      1.0  0.23575  0.37847  0.92616  1.0000
  H   H740      1.0  0.05890  0.31419  0.64202  1.0000
  H   H741      1.0  0.05128  0.34990  0.62211  1.0000
  C   C636      1.0  0.01232  0.37226  0.57685  1.0000
  C   C637      1.0  0.05923  0.19458  0.65133  1.0000
  C   C638      1.0  0.46591  0.23574  0.89841  1.0000
  C   C639      1.0  0.36236  0.25288  0.97429  1.0000
  H   H742      1.0  0.09060  0.32954  0.62032  1.0000
  H   H743      1.0  0.47257  0.19935  0.90689  1.0000
  H   H744      1.0  0.02512  0.34717  0.59590  1.0000
  H   H745      1.0  0.39586  0.32970  0.96423  1.0000
  H   H746      1.0  0.46681  0.21979  0.87676  1.0000
  N   N38       1.0  0.02398  0.24467  0.61288  1.0000
  H   H747      1.0  0.06050  0.37605  0.85517  1.0000
  H   H748      1.0  0.18919  0.35782  0.82898  1.0000
  H   H749      1.0  0.07523  0.31829  0.64260  1.0000
  C   C640      1.0  0.01257  0.34172  0.68771  1.0000
  H   H750      1.0  0.48191  0.21614  0.85361  1.0000
  H   H751      1.0  0.01465  0.22636  0.62463  1.0000
  C   C641      1.0  0.02141  0.25033  0.62581  1.0000
  H   H752      1.0  0.45890  0.23754  0.89081  1.0000
  C   C642      1.0  0.38793  0.36040  0.93975  1.0000
  H   H753      1.0  0.00994  0.25624  0.62885  1.0000
  H   H754      1.0  0.02385  0.24157  0.63511  1.0000
  N   N39       1.0  0.02420  0.30184  0.76016  1.0000
  C   C643      1.0  0.03392  0.34225  0.60144  1.0000
  C   C644      1.0  0.40632  0.38845  0.97318  1.0000
  H   H755      1.0  0.49137  0.20881  0.91253  1.0000
  H   H756      1.0  0.05954  0.33235  0.64048  1.0000
  H   H757      1.0  0.03085  0.30021  0.77944  1.0000
  C   C645      1.0  0.16067  0.38933  0.84269  1.0000
  C   C646      1.0  0.07900  0.30959  0.61879  1.0000
  H   H758      1.0  0.22878  0.36254  0.84045  1.0000
  N   N40       1.0  0.37694  0.37108  0.94721  1.0000
  C   C647      1.0  0.01958  0.22858  0.68046  1.0000
  H   H759      1.0  0.02056  0.19631  0.64017  1.0000
  N   N41       1.0  0.38444  0.31327  0.96697  1.0000
  C   C648      1.0  0.38940  0.31228  0.95178  1.0000
  H   H760      1.0  0.02738  0.29667  0.48973  1.0000
  Fe  Fe85      1.0  0.45946  0.32704  0.96718  1.0000
  H   H761      1.0  0.34230  0.24665  0.97711  1.0000
  H   H762      1.0  0.37955  0.20065  0.93568  1.0000
  N   N42       1.0  0.11657  0.38414  0.86987  1.0000
  H   H763      1.0  0.39679  0.21427  0.93560  1.0000
  H   H764      1.0  0.00705  0.32261  0.61003  1.0000
  H   H765      1.0  0.40043  0.30522  0.94953  1.0000
  H   H766      1.0  0.38206  0.30768  0.94861  1.0000
  H   H767      1.0  0.31161  0.30961  0.97091  1.0000
  H   H768      1.0  0.09467  0.38034  0.72318  1.0000
  H   H769      1.0  0.03387  0.28344  0.77464  1.0000
  H   H770      1.0  0.00685  0.35224  0.65792  1.0000
  N   N43       1.0  0.21723  0.38480  0.83636  1.0000
  C   C649      1.0  0.38734  0.22354  0.93649  1.0000
  C   C650      1.0  0.01308  0.23593  0.61575  1.0000
  C   C651      1.0  0.05094  0.24276  0.60808  1.0000
  S   S176      1.0  0.27110  0.37243  0.97471  1.0000
  C   C652      1.0  0.48465  0.21907  0.88609  1.0000
  H   H771      1.0  0.41883  0.19865  0.91911  1.0000
  H   H772      1.0  0.38697  0.36809  0.96489  1.0000
  H   H773      1.0  0.09689  0.38194  0.86597  1.0000
  H   H774      1.0  0.08220  0.38488  0.71195  1.0000
  C   C653      1.0  0.03854  0.33366  0.68245  1.0000
  H   H775      1.0  0.01314  0.34700  0.69590  1.0000
  C   C654      1.0  0.02412  0.33473  0.66528  1.0000
  C   C655      1.0  0.01372  0.34187  0.65676  1.0000
  C   C656      1.0  0.50185  0.21567  0.85869  1.0000
  C   C657      1.0  0.34857  0.25061  0.98185  1.0000
  C   C658      1.0  0.03002  0.31468  0.65339  1.0000
  C   C659      1.0  0.02004  0.32217  0.64491  1.0000
  C   C660      1.0  0.36989  0.32285  0.97018  1.0000
  C   C661      1.0  0.01403  0.31051  0.50380  1.0000
  H   H776      1.0  0.20748  0.37313  0.85706  1.0000
  H   H777      1.0  0.03747  0.32270  0.68881  1.0000
  H   H778      1.0  0.03987  0.33922  0.69005  1.0000
  H   H779      1.0  0.04880  0.33281  0.67406  1.0000
  C   C662      1.0  0.00702  0.21089  0.68034  1.0000
  C   C663      1.0  0.38063  0.38531  0.94100  1.0000
  H   H780      1.0  0.03658  0.35669  0.65975  1.0000
  H   H781      1.0  0.23882  0.37494  0.84008  1.0000
  S   S177      1.0  0.08299  0.37349  0.68929  1.0000
  H   H782      1.0  0.38043  0.38887  0.92944  1.0000
  H   H783      1.0  0.02438  0.37398  0.54379  1.0000
  H   H784      1.0  0.01857  0.31738  0.63708  1.0000
  H   H785      1.0  0.21736  0.38529  0.85777  1.0000
  H   H786      1.0  0.03113  0.36053  0.60998  1.0000
  C   C664      1.0  0.40239  0.35608  0.94182  1.0000
  C   C665      1.0  0.03857  0.30395  0.75094  1.0000
  H   H787      1.0  0.09153  0.37719  0.89022  1.0000
  H   H788      1.0  0.37437  0.35751  0.92708  1.0000
  C   C666      1.0  0.11069  0.38661  0.88454  1.0000
  H   H789      1.0  0.01319  0.23251  0.60604  1.0000
  H   H790      1.0  0.00984  0.26336  0.60288  1.0000
  C   C667      1.0  0.21020  0.38374  0.85171  1.0000
  S   S178      1.0  0.02735  0.37884  0.63066  1.0000
  C   C668      1.0  0.02232  0.37905  0.57829  1.0000
  H   H791      1.0  0.23599  0.37338  0.82360  1.0000
  C   C669      1.0  0.34718  0.33786  0.96349  1.0000
  S   S179      1.0  0.14412  0.38554  0.82660  1.0000
  H   H792      1.0  0.43982  0.36656  0.96585  1.0000
  H   H793      1.0  0.03082  0.38493  0.52681  1.0000
  C   C670      1.0  0.09787  0.38236  0.89356  1.0000
  C   C671      1.0  0.13181  0.37577  0.86850  1.0000
  C   C672      1.0  0.26325  0.39046  0.89982  1.0000
  C   C673      1.0  0.09713  0.19327  0.63326  1.0000
  H   H794      1.0  0.10837  0.36528  0.87300  1.0000
  S   S180      1.0  0.22824  0.38010  0.88487  1.0000
  H   H795      1.0  0.37518  0.35611  0.96760  1.0000
  C   C674      1.0  0.36191  0.37240  0.94590  1.0000
  H   H796      1.0  0.07975  0.21575  0.59979  1.0000
  H   H797      1.0  0.41786  0.33299  0.91954  1.0000
  C   C675      1.0  0.37682  0.36720  0.96272  1.0000
  C   C676      1.0  0.19277  0.36782  0.82583  1.0000
  H   H798      1.0  0.49012  0.22797  0.90791  1.0000
  H   H799      1.0  0.24563  0.36529  0.94543  1.0000
  H   H800      1.0  0.40576  0.36050  0.94873  1.0000
  Fe  Fe86      1.0  0.28670  0.37175  0.95353  1.0000
  H   H801      1.0  0.36799  0.37463  0.96862  1.0000
  H   H802      1.0  0.10446  0.19752  0.61038  1.0000
  H   H803      1.0  0.40081  0.24728  0.88439  1.0000
  C   C677      1.0  0.42999  0.20219  0.89695  1.0000
  H   H804      1.0  0.47648  0.22059  0.92161  1.0000
  H   H805      1.0  0.34666  0.28734  0.97727  1.0000
  H   H806      1.0  0.00259  0.34765  0.68375  1.0000
  H   H807      1.0  0.35812  0.23553  0.94091  1.0000
  H   H808      1.0  0.11308  0.37442  0.85468  1.0000
  S   S181      1.0  0.00958  0.35508  0.51602  1.0000
  H   H809      1.0  0.02120  0.37203  0.52771  1.0000
  C   C678      1.0  0.22569  0.38495  0.93093  1.0000
  C   C679      1.0  0.00305  0.34826  0.49431  1.0000
  Fe  Fe87      1.0  0.00335  0.34476  0.53933  1.0000
  S   S182      1.0  0.00509  0.32105  0.54691  1.0000
  H   H810      1.0  0.22560  0.38899  0.97093  1.0000
  N   N44       1.0  0.04437  0.19600  0.64959  1.0000
  C   C680      1.0  0.37042  0.25796  0.98052  1.0000
  H   H811      1.0  0.00474  0.20030  0.68459  1.0000
  C   C681      1.0  0.48690  0.21686  0.86167  1.0000
  Fe  Fe88      1.0  0.48515  0.32470  0.97943  1.0000
  C   C682      1.0  0.21383  0.38796  0.92464  1.0000
  H   H812      1.0  0.06581  0.20006  0.64135  1.0000
  H   H813      1.0  0.00411  0.26580  0.73316  1.0000
  H   H814      1.0  0.05912  0.19959  0.66001  1.0000
  C   C683      1.0  0.00639  0.29163  0.49923  1.0000
  H   H815      1.0  0.00875  0.28294  0.49384  1.0000
  C   C684      1.0  0.09009  0.38904  0.71481  1.0000
  N   N45       1.0  0.23728  0.38662  0.94964  1.0000
  C   C685      1.0  0.00437  0.27292  0.72232  1.0000
  N   N46       1.0  0.32610  0.30056  0.98554  1.0000
  C   C686      1.0  0.34204  0.29533  0.98415  1.0000
  C   C687      1.0  0.00515  0.38718  0.59862  1.0000
  H   H816      1.0  0.39358  0.31823  0.98184  1.0000
  C   C688      1.0  0.49995  0.21796  0.88264  1.0000
  H   H817      1.0  0.50009  0.34763  0.97727  1.0000
  C   C689      1.0  0.36409  0.32602  0.98394  1.0000
  C   C690      1.0  0.43146  0.37630  0.98406  1.0000
  H   H818      1.0  0.00310  0.29816  0.65879  1.0000
  H   H819      1.0  0.00294  0.28991  0.61446  1.0000
  Fe  Fe89      1.0  0.45827  0.34816  0.98454  1.0000
  S   S183      1.0  0.44341  0.33437  0.98588  1.0000
  N   N47       1.0  0.00755  0.39074  0.53552  1.0000
  H   H820      1.0  0.09928  0.39049  0.70539  1.0000
  C   C691      1.0  0.40688  0.39076  0.98612  1.0000
  H   H821      1.0  0.32262  0.28000  0.98596  1.0000
  C   C692      1.0  0.16064  0.43650  0.22447  1.0000
  C   C693      1.0  0.42429  0.55653  0.04449  1.0000
  S   S184      1.0  0.40375  0.51956  0.01175  1.0000
  H   H822      1.0  0.12064  0.44229  0.04786  1.0000
  H   H823      1.0  0.19002  0.42603  0.22172  1.0000
  C   C694      1.0  0.29210  0.41912  0.06208  1.0000
  Fe  Fe90      1.0  0.38014  0.52776  0.01153  1.0000
  S   S185      1.0  0.36286  0.52435  0.03148  1.0000
  H   H824      1.0  0.22961  0.40855  0.08646  1.0000
  Fe  Fe91      1.0  0.35975  0.41839  0.00692  1.0000
  S   S186      1.0  0.11547  0.39964  0.25420  1.0000
  N   N48       1.0  0.01466  0.47839  0.17621  1.0000
  H   H825      1.0  0.19511  0.51126  0.99331  1.0000
  N   N49       1.0  0.43691  0.56068  0.04623  1.0000
  S   S187      1.0  0.02494  0.57382  0.45642  1.0000
  N   N50       1.0  0.12580  0.46282  0.04395  1.0000
  H   H826      1.0  0.10102  0.55798  0.98821  1.0000
  H   H827      1.0  0.24585  0.56476  0.06063  1.0000
  Fe  Fe92      1.0  0.18202  0.42380  0.14113  1.0000
  S   S188      1.0  0.20071  0.43484  0.13238  1.0000
  S   S189      1.0  0.16498  0.42780  0.12871  1.0000
  Fe  Fe93      1.0  0.19431  0.44082  0.15360  1.0000
  S   S190      1.0  0.19066  0.46252  0.15808  1.0000
  S   S191      1.0  0.17453  0.43158  0.16144  1.0000
  Fe  Fe94      1.0  0.22100  0.52551  0.11107  1.0000
  S   S192      1.0  0.19876  0.53806  0.11942  1.0000
  S   S193      1.0  0.22637  0.50257  0.10941  1.0000
  Fe  Fe95      1.0  0.23528  0.55112  0.10175  1.0000
  S   S194      1.0  0.21435  0.56587  0.10962  1.0000
  S   S195      1.0  0.25661  0.55582  0.08732  1.0000
  Fe  Fe96      1.0  0.21095  0.54771  0.12877  1.0000
  S   S196      1.0  0.20115  0.55303  0.15048  1.0000
  Fe  Fe97      1.0  0.20388  0.55501  0.09975  1.0000
  S   S197      1.0  0.18790  0.56918  0.08668  1.0000
  S   S198      1.0  0.23298  0.53379  0.12188  1.0000
  S   S199      1.0  0.22485  0.54163  0.09048  1.0000
  Fe  Fe98      1.0  0.11744  0.54505  0.20130  1.0000
  S   S200      1.0  0.10393  0.54131  0.22372  1.0000
  S   S201      1.0  0.11230  0.56117  0.18154  1.0000
  Fe  Fe99      1.0  0.14340  0.52199  0.20840  1.0000
  S   S202      1.0  0.13248  0.51572  0.23154  1.0000
  S   S203      1.0  0.16472  0.51065  0.19646  1.0000
  Fe  Fe100     1.0  0.11274  0.51793  0.22352  1.0000
  S   S204      1.0  0.09739  0.50297  0.23230  1.0000
  Fe  Fe101     1.0  0.12443  0.53948  0.23043  1.0000
  S   S205      1.0  0.12531  0.54681  0.24960  1.0000
  S   S206      1.0  0.12429  0.52190  0.20052  1.0000
  S   S207      1.0  0.13726  0.54549  0.20791  1.0000
  Fe  Fe102     1.0  0.08121  0.42229  0.24062  1.0000
  S   S208      1.0  0.08546  0.42424  0.26082  1.0000
  S   S209      1.0  0.06181  0.43338  0.23108  1.0000
  Fe  Fe103     1.0  0.10847  0.42358  0.24814  1.0000
  S   S210      1.0  0.12398  0.43660  0.24779  1.0000
  S   S211      1.0  0.10356  0.42385  0.22752  1.0000
  S   S212      1.0  0.10212  0.56406  0.33378  1.0000
  H   H828      1.0  0.31737  0.41730  0.03137  1.0000
  H   H829      1.0  0.14459  0.48436  0.99006  1.0000
  Fe  Fe104     1.0  0.05310  0.51165  0.37213  1.0000
  H   H830      1.0  0.33852  0.57086  0.00519  1.0000
  S   S213      1.0  0.07678  0.51016  0.37061  1.0000
  C   C695      1.0  0.13342  0.52811  0.13649  1.0000
  H   H831      1.0  0.13850  0.45229  0.02679  1.0000
  Fe  Fe105     1.0  0.03023  0.51924  0.35488  1.0000
  H   H832      1.0  0.29079  0.55279  0.11602  1.0000
  Fe  Fe106     1.0  0.04226  0.55564  0.44915  1.0000
  S   S214      1.0  0.03696  0.53549  0.44857  1.0000
  H   H833      1.0  0.36021  0.57096  0.04003  1.0000
  Fe  Fe107     1.0  0.05567  0.50903  0.14839  1.0000
  S   S215      1.0  0.06351  0.48775  0.16238  1.0000
  S   S216      1.0  0.03403  0.51517  0.14225  1.0000
  Fe  Fe108     1.0  0.08098  0.52108  0.14787  1.0000
  S   S217      1.0  0.09084  0.50118  0.16195  1.0000
  S   S218      1.0  0.09269  0.53905  0.13813  1.0000
  Fe  Fe109     1.0  0.08558  0.48964  0.14859  1.0000
  S   S219      1.0  0.10369  0.47214  0.14103  1.0000
  Fe  Fe110     1.0  0.06803  0.50115  0.17450  1.0000
  S   S220      1.0  0.06376  0.49714  0.19830  1.0000
  S   S221      1.0  0.07740  0.50963  0.13334  1.0000
  S   S222      1.0  0.05852  0.52234  0.16167  1.0000
  Fe  Fe111     1.0  0.16680  0.49012  0.06619  1.0000
  S   S223      1.0  0.17168  0.51049  0.05104  1.0000
  S   S224      1.0  0.18524  0.47265  0.07307  1.0000
  Fe  Fe112     1.0  0.13473  0.49880  0.06627  1.0000
  S   S225      1.0  0.13684  0.51971  0.05088  1.0000
  S   S226      1.0  0.11263  0.49359  0.07451  1.0000
  Fe  Fe113     1.0  0.15711  0.50706  0.03923  1.0000
  S   S227      1.0  0.16304  0.50802  0.01563  1.0000
  Fe  Fe114     1.0  0.15106  0.52122  0.06419  1.0000
  S   S228      1.0  0.14510  0.54192  0.07147  1.0000
  S   S229      1.0  0.15372  0.48592  0.05346  1.0000
  S   S230      1.0  0.14742  0.50119  0.08052  1.0000
  C   C696      1.0  0.14933  0.50307  0.01139  1.0000
  H   H834      1.0  0.11988  0.46077  0.07294  1.0000
  Fe  Fe115     1.0  0.18930  0.41146  0.17029  1.0000
  H   H835      1.0  0.12440  0.52374  0.14359  1.0000
  C   C697      1.0  0.12378  0.50382  0.01453  1.0000
  C   C698      1.0  0.13482  0.50739  0.01820  1.0000
  C   C699      1.0  0.01358  0.49355  0.12863  1.0000
  H   H836      1.0  0.11254  0.50739  0.01967  1.0000
  H   H837      1.0  0.13203  0.51379  0.02605  1.0000
  C   C700      1.0  0.10602  0.47586  0.12245  1.0000
  C   C701      1.0  0.12003  0.47419  0.11380  1.0000
  C   C702      1.0  0.12201  0.47905  0.09895  1.0000
  C   C703      1.0  0.11003  0.48536  0.09272  1.0000
  C   C704      1.0  0.09597  0.48610  0.10129  1.0000
  C   C705      1.0  0.09396  0.48155  0.11619  1.0000
  H   H838      1.0  0.12934  0.46971  0.11857  1.0000
  H   H839      1.0  0.13280  0.47809  0.09229  1.0000
  H   H840      1.0  0.08663  0.49066  0.09650  1.0000
  H   H841      1.0  0.08307  0.48260  0.12282  1.0000
  C   C706      1.0  0.03091  0.50292  0.13448  1.0000
  C   C707      1.0  0.04197  0.49133  0.13078  1.0000
  C   C708      1.0  0.01366  0.48065  0.36427  1.0000
  H   H842      1.0  0.43099  0.55644  0.06936  1.0000
  H   H843      1.0  0.09248  0.58864  0.48323  1.0000
  S   S231      1.0  0.01795  0.40104  0.33176  1.0000
  H   H844      1.0  0.05290  0.49032  0.13181  1.0000
  H   H845      1.0  0.35249  0.55823  0.99642  1.0000
  H   H846      1.0  0.15791  0.53701  0.15712  1.0000
  S   S232      1.0  0.19493  0.40247  0.15072  1.0000
  C   C709      1.0  0.13619  0.45726  0.05349  1.0000
  H   H847      1.0  0.14075  0.47030  0.02463  1.0000
  N   N51       1.0  0.15125  0.57866  0.16103  1.0000
  H   H848      1.0  0.17378  0.56557  0.11732  1.0000
  S   S233      1.0  0.27749  0.59116  0.99189  1.0000
  C   C710      1.0  0.00659  0.58506  0.29622  1.0000
  H   H849      1.0  0.10849  0.45370  0.05928  1.0000
  C   C711      1.0  0.30673  0.41761  0.03838  1.0000
  H   H850      1.0  0.05202  0.39610  0.32862  1.0000
  H   H851      1.0  0.16432  0.43624  0.23409  1.0000
  C   C712      1.0  0.09520  0.54907  0.34392  1.0000
  C   C713      1.0  0.10450  0.53629  0.34906  1.0000
  C   C714      1.0  0.09882  0.52424  0.35703  1.0000
  C   C715      1.0  0.08384  0.52504  0.35997  1.0000
  C   C716      1.0  0.07467  0.53792  0.35494  1.0000
  C   C717      1.0  0.08031  0.54985  0.34683  1.0000
  H   H852      1.0  0.11607  0.53568  0.34683  1.0000
  H   H853      1.0  0.10601  0.51435  0.36100  1.0000
  H   H854      1.0  0.06321  0.53885  0.35724  1.0000
  H   H855      1.0  0.07305  0.55963  0.34285  1.0000
  H   H856      1.0  0.00444  0.46318  0.17332  1.0000
  C   C718      1.0  0.06276  0.45094  0.22182  1.0000
  C   C719      1.0  0.05781  0.45660  0.20912  1.0000
  C   C720      1.0  0.05855  0.47064  0.20157  1.0000
  C   C721      1.0  0.06357  0.47927  0.20709  1.0000
  C   C722      1.0  0.06828  0.47368  0.21991  1.0000
  C   C723      1.0  0.06824  0.45940  0.22710  1.0000
  H   H857      1.0  0.05345  0.45009  0.20511  1.0000
  H   H858      1.0  0.05460  0.47497  0.19186  1.0000
  H   H859      1.0  0.07200  0.48041  0.22427  1.0000
  H   H860      1.0  0.07196  0.45509  0.23698  1.0000
  C   C724      1.0  0.11264  0.56169  0.25541  1.0000
  C   C725      1.0  0.10170  0.56999  0.24821  1.0000
  H   H861      1.0  0.15157  0.57587  0.10778  1.0000
  S   S234      1.0  0.05624  0.55395  0.46396  1.0000
  H   H862      1.0  0.27108  0.41808  0.04117  1.0000
  C   C726      1.0  0.11335  0.56494  0.26790  1.0000
  H   H863      1.0  0.10110  0.56765  0.23851  1.0000
  H   H864      1.0  0.19193  0.48672  0.19713  1.0000
  H   H865      1.0  0.12210  0.55892  0.27320  1.0000
  C   C727      1.0  0.10475  0.48468  0.23815  1.0000
  C   C728      1.0  0.11960  0.47959  0.23793  1.0000
  C   C729      1.0  0.12535  0.46477  0.24165  1.0000
  C   C730      1.0  0.11630  0.45505  0.24535  1.0000
  C   C731      1.0  0.10141  0.46017  0.24593  1.0000
  C   C732      1.0  0.09564  0.47498  0.24244  1.0000
  H   H866      1.0  0.12667  0.48703  0.23471  1.0000
  H   H867      1.0  0.13685  0.46085  0.24134  1.0000
  H   H868      1.0  0.09436  0.45275  0.24876  1.0000
  H   H869      1.0  0.08413  0.47890  0.24275  1.0000
  C   C733      1.0  0.10663  0.55465  0.16990  1.0000
  C   C734      1.0  0.10844  0.56172  0.15549  1.0000
  C   C735      1.0  0.10418  0.55680  0.14586  1.0000
  C   C736      1.0  0.09778  0.54494  0.15061  1.0000
  C   C737      1.0  0.09590  0.53782  0.16505  1.0000
  C   C738      1.0  0.10044  0.54261  0.17468  1.0000
  H   H870      1.0  0.21593  0.57686  0.07862  1.0000
  H   H871      1.0  0.10568  0.56233  0.13473  1.0000
  H   H872      1.0  0.09080  0.52875  0.16885  1.0000
  H   H873      1.0  0.09875  0.53725  0.18586  1.0000
  C   C739      1.0  0.19240  0.54047  0.16383  1.0000
  C   C740      1.0  0.19289  0.52712  0.16155  1.0000
  C   C741      1.0  0.18499  0.51771  0.17202  1.0000
  C   C742      1.0  0.17598  0.52188  0.18445  1.0000
  C   C743      1.0  0.17578  0.53506  0.18689  1.0000
  C   C744      1.0  0.18426  0.54417  0.17675  1.0000
  H   H874      1.0  0.19954  0.52400  0.15182  1.0000
  H   H875      1.0  0.18572  0.50725  0.17041  1.0000
  H   H876      1.0  0.16927  0.53814  0.19668  1.0000
  H   H877      1.0  0.18413  0.55432  0.17874  1.0000
  C   C745      1.0  0.17693  0.56116  0.08165  1.0000
  C   C746      1.0  0.18123  0.54689  0.08014  1.0000
  C   C747      1.0  0.17192  0.54100  0.07614  1.0000
  C   C748      1.0  0.15814  0.54918  0.07427  1.0000
  C   C749      1.0  0.15400  0.56340  0.07575  1.0000
  C   C750      1.0  0.16344  0.56942  0.07917  1.0000
  H   H878      1.0  0.19178  0.54053  0.08180  1.0000
  H   H879      1.0  0.17535  0.53020  0.07449  1.0000
  H   H880      1.0  0.14341  0.56981  0.07424  1.0000
  H   H881      1.0  0.16015  0.58049  0.08013  1.0000
  C   C751      1.0  0.20246  0.47290  0.14598  1.0000
  C   C752      1.0  0.21317  0.46737  0.13515  1.0000
  C   C753      1.0  0.22111  0.47643  0.12432  1.0000
  C   C754      1.0  0.21843  0.49096  0.12440  1.0000
  C   C755      1.0  0.20848  0.49625  0.13581  1.0000
  C   C756      1.0  0.20044  0.48721  0.14659  1.0000
  H   H882      1.0  0.21502  0.45624  0.13482  1.0000
  H   H883      1.0  0.22897  0.47228  0.11559  1.0000
  H   H884      1.0  0.20660  0.50740  0.13602  1.0000
  H   H885      1.0  0.19238  0.49135  0.15514  1.0000
  C   C757      1.0  0.17038  0.43918  0.11223  1.0000
  C   C758      1.0  0.18510  0.43769  0.10550  1.0000
  C   C759      1.0  0.18962  0.44785  0.09328  1.0000
  C   C760      1.0  0.17940  0.45951  0.08777  1.0000
  C   C761      1.0  0.16464  0.46078  0.09424  1.0000
  C   C762      1.0  0.16009  0.45050  0.10636  1.0000
  H   H886      1.0  0.19306  0.42867  0.10969  1.0000
  H   H887      1.0  0.20106  0.44675  0.08821  1.0000
  H   H888      1.0  0.15681  0.46970  0.08987  1.0000
  H   H889      1.0  0.14870  0.45154  0.11145  1.0000
  H   H890      1.0  0.16216  0.42750  0.20194  1.0000
  H   H891      1.0  0.04138  0.56399  0.26878  1.0000
  H   H892      1.0  0.14313  0.43966  0.15097  1.0000
  H   H893      1.0  0.10677  0.56694  0.00581  1.0000
  H   H894      1.0  0.13668  0.45094  0.08898  1.0000
  H   H895      1.0  0.09879  0.40838  0.20554  1.0000
  S   S235      1.0  0.47829  0.55454  0.00005  1.0000
  C   C763      1.0  0.06188  0.39989  0.32168  1.0000
  C   C764      1.0  0.10595  0.53441  0.07785  1.0000
  Fe  Fe116     1.0  0.09205  0.40014  0.26516  1.0000
  C   C765      1.0  0.01357  0.57215  0.31865  1.0000
  C   C766      1.0  0.01447  0.47087  0.37731  1.0000
  Fe  Fe117     1.0  0.40689  0.53948  0.99465  1.0000
  C   C767      1.0  0.31836  0.54345  0.06603  1.0000
  S   S236      1.0  0.18361  0.40139  0.19367  1.0000
  C   C768      1.0  0.03955  0.56039  0.28062  1.0000
  H   H896      1.0  0.15628  0.45226  0.03734  1.0000
  H   H897      1.0  0.18825  0.49632  0.99366  1.0000
  C   C769      1.0  0.23230  0.40631  0.10770  1.0000
  C   C770      1.0  0.30548  0.41852  0.05238  1.0000
  H   H898      1.0  0.16232  0.50140  0.15011  1.0000
  C   C771      1.0  0.08237  0.52419  0.26232  1.0000
  C   C772      1.0  0.35696  0.55508  0.05969  1.0000
  C   C773      1.0  0.35671  0.54066  0.06581  1.0000
  C   C774      1.0  0.35855  0.53121  0.05709  1.0000
  C   C775      1.0  0.36134  0.53603  0.04222  1.0000
  C   C776      1.0  0.36237  0.55027  0.03608  1.0000
  C   C777      1.0  0.35982  0.55987  0.04482  1.0000
  H   H899      1.0  0.13830  0.50830  0.17575  1.0000
  H   H900      1.0  0.35780  0.52018  0.06186  1.0000
  H   H901      1.0  0.36486  0.55402  0.02461  1.0000
  H   H902      1.0  0.10704  0.52392  0.07537  1.0000
  C   C778      1.0  0.29345  0.56299  0.10898  1.0000
  H   H903      1.0  0.04729  0.47174  0.12335  1.0000
  H   H904      1.0  0.44910  0.56263  0.02434  1.0000
  H   H905      1.0  0.03330  0.55184  0.28410  1.0000
  H   H906      1.0  0.32211  0.57383  0.08440  1.0000
  S   S237      1.0  0.06392  0.59070  0.33815  1.0000
  S   S238      1.0  0.02319  0.47364  0.38909  1.0000
  C   C779      1.0  0.15135  0.45205  0.04848  1.0000
  C   C780      1.0  0.13120  0.45673  0.06838  1.0000
  C   C781      1.0  0.34334  0.39231  0.03668  1.0000
  H   H907      1.0  0.01950  0.51842  0.41687  1.0000
  C   C782      1.0  0.03879  0.48081  0.12604  1.0000
  C   C783      1.0  0.08709  0.53607  0.26240  1.0000
  C   C784      1.0  0.27506  0.57322  0.07159  1.0000
  H   H908      1.0  0.16665  0.53453  0.13343  1.0000
  H   H909      1.0  0.12559  0.52128  0.16649  1.0000
  H   H910      1.0  0.08941  0.51644  0.25620  1.0000
  H   H911      1.0  0.28251  0.43602  0.01366  1.0000
  H   H912      1.0  0.11086  0.48264  0.03718  1.0000
  C   C785      1.0  0.15546  0.44595  0.07243  1.0000
  H   H913      1.0  0.32738  0.54249  0.05686  1.0000
  C   C786      1.0  0.01921  0.55333  0.41397  1.0000
  C   C787      1.0  0.03319  0.44288  0.34150  1.0000
  C   C788      1.0  0.45267  0.56854  0.99206  1.0000
  C   C789      1.0  0.04913  0.42429  0.32275  1.0000
  C   C790      1.0  0.05540  0.42669  0.33280  1.0000
  N   N52       1.0  0.12667  0.42737  0.16103  1.0000
  C   C791      1.0  0.12288  0.42851  0.14734  1.0000
  C   C792      1.0  0.13297  0.43973  0.15949  1.0000
  C   C793      1.0  0.13819  0.41413  0.16341  1.0000
  C   C794      1.0  0.11345  0.42760  0.17275  1.0000
  C   C795      1.0  0.10129  0.43935  0.17189  1.0000
  C   C796      1.0  0.11223  0.41646  0.18531  1.0000
  C   C797      1.0  0.08873  0.43992  0.18282  1.0000
  H   H914      1.0  0.06861  0.43093  0.29867  1.0000
  H   H915      1.0  0.02447  0.54639  0.47553  1.0000
  H   H916      1.0  0.11556  0.43897  0.14382  1.0000
  H   H917      1.0  0.13273  0.42767  0.13844  1.0000
  H   H918      1.0  0.11737  0.41985  0.14825  1.0000
  H   H919      1.0  0.12544  0.45017  0.15640  1.0000
  C   C798      1.0  0.43886  0.56919  0.99033  1.0000
  H   H920      1.0  0.13427  0.40436  0.16449  1.0000
  H   H921      1.0  0.14789  0.41413  0.15434  1.0000
  H   H922      1.0  0.14222  0.41305  0.17307  1.0000
  H   H923      1.0  0.10136  0.44816  0.16268  1.0000
  H   H924      1.0  0.08877  0.55038  0.47454  1.0000
  H   H925      1.0  0.09784  0.53749  0.25633  1.0000
  C   C799      1.0  0.02011  0.48032  0.21197  1.0000
  H   H926      1.0  0.03380  0.50866  0.19041  1.0000
  Fe  Fe118     1.0  0.08454  0.58083  0.32444  1.0000
  C   C800      1.0  0.09099  0.57011  0.47733  1.0000
  C   C801      1.0  0.02625  0.49226  0.20785  1.0000
  H   H927      1.0  0.29387  0.56948  0.11619  1.0000
  C   C802      1.0  0.30678  0.55266  0.08786  1.0000
  S   S239      1.0  0.03254  0.57866  0.32996  1.0000
  C   C803      1.0  0.29522  0.54589  0.08970  1.0000
  Fe  Fe119     1.0  0.33956  0.58776  0.05970  1.0000
  H   H928      1.0  0.00456  0.54428  0.35140  1.0000
  C   C804      1.0  0.19584  0.50336  0.98704  1.0000
  C   C805      1.0  0.09955  0.41706  0.19610  1.0000
  C   C806      1.0  0.16645  0.39722  0.20016  1.0000
  S   S240      1.0  0.38302  0.54833  0.99614  1.0000
  S   S241      1.0  0.41564  0.55846  0.99312  1.0000
  H   H929      1.0  0.16407  0.40118  0.22087  1.0000
  H   H930      1.0  0.31969  0.55728  0.11399  1.0000
  C   C807      1.0  0.02279  0.58128  0.31674  1.0000
  S   S242      1.0  0.49324  0.57520  0.01754  1.0000
  H   H931      1.0  0.10608  0.52211  0.99104  1.0000
  C   C808      1.0  0.15137  0.57638  0.11851  1.0000
  S   S243      1.0  0.45937  0.58927  0.01389  1.0000
  H   H932      1.0  0.00879  0.45137  0.39102  1.0000
  H   H933      1.0  0.39761  0.39711  0.99202  1.0000
  C   C809      1.0  0.34251  0.55925  0.00508  1.0000
  N   N53       1.0  0.18173  0.49364  0.10652  1.0000
  C   C810      1.0  0.18502  0.50375  0.11289  1.0000
  C   C811      1.0  0.19497  0.48205  0.10432  1.0000
  C   C812      1.0  0.17880  0.50131  0.09227  1.0000
  C   C813      1.0  0.16878  0.48835  0.11586  1.0000
  C   C814      1.0  0.15523  0.49814  0.11885  1.0000
  C   C815      1.0  0.16916  0.47360  0.12231  1.0000
  C   C816      1.0  0.14283  0.49344  0.12762  1.0000
  C   C817      1.0  0.15675  0.46905  0.13118  1.0000
  C   C818      1.0  0.14361  0.47893  0.13381  1.0000
  H   H934      1.0  0.19547  0.50697  0.10691  1.0000
  H   H935      1.0  0.17653  0.51381  0.11292  1.0000
  H   H936      1.0  0.18600  0.49872  0.12409  1.0000
  H   H937      1.0  0.19788  0.47584  0.11459  1.0000
  H   H938      1.0  0.20465  0.48634  0.09761  1.0000
  H   H939      1.0  0.19353  0.47449  0.09877  1.0000
  H   H940      1.0  0.16974  0.51091  0.09271  1.0000
  H   H941      1.0  0.18853  0.50492  0.08478  1.0000
  H   H942      1.0  0.17579  0.49419  0.08739  1.0000
  H   H943      1.0  0.15412  0.50948  0.11423  1.0000
  H   H944      1.0  0.17886  0.46528  0.12049  1.0000
  H   H945      1.0  0.13249  0.50103  0.12939  1.0000
  H   H946      1.0  0.15734  0.45770  0.13566  1.0000
  H   H947      1.0  0.13390  0.47530  0.14032  1.0000
  C   C819      1.0  0.41289  0.54653  0.03178  1.0000
  C   C820      1.0  0.22409  0.58356  0.07311  1.0000
  H   H948      1.0  0.42413  0.57992  0.05352  1.0000
  H   H949      1.0  0.40909  0.56401  0.06294  1.0000
  H   H950      1.0  0.33838  0.53219  0.01507  1.0000
  C   C821      1.0  0.06857  0.52234  0.27003  1.0000
  C   C822      1.0  0.02469  0.49517  0.18347  1.0000
  C   C823      1.0  0.02127  0.52768  0.41917  1.0000
  H   H951      1.0  0.01878  0.47434  0.22299  1.0000
  C   C824      1.0  0.39966  0.54909  0.04149  1.0000
  C   C825      1.0  0.31076  0.57464  0.09075  1.0000
  C   C826      1.0  0.14522  0.39524  0.21958  1.0000
  C   C827      1.0  0.29031  0.55988  0.03361  1.0000
  H   H952      1.0  0.04552  0.54009  0.30377  1.0000
  C   C828      1.0  0.14072  0.45114  0.07766  1.0000
  H   H953      1.0  0.01527  0.54258  0.30885  1.0000
  S   S244      1.0  0.35628  0.40527  0.99390  1.0000
  H   H954      1.0  0.28581  0.54652  0.09846  1.0000
  H   H955      1.0  0.15683  0.42639  0.22677  1.0000
  C   C829      1.0  0.00726  0.46619  0.18196  1.0000
  C   C830      1.0  0.35384  0.39335  0.05540  1.0000
  H   H956      1.0  0.29119  0.41955  0.07301  1.0000
  C   C831      1.0  0.10293  0.57605  0.27350  1.0000
  C   C832      1.0  0.42505  0.55016  0.03320  1.0000
  C   C833      1.0  0.16196  0.50989  0.15550  1.0000
  N   N54       1.0  0.17242  0.43789  0.21133  1.0000
  H   H957      1.0  0.01162  0.46633  0.20582  1.0000
  C   C834      1.0  0.05937  0.53245  0.27774  1.0000
  C   C835      1.0  0.21550  0.58841  0.05178  1.0000
  C   C836      1.0  0.11459  0.55843  0.00120  1.0000
  C   C837      1.0  0.28537  0.40725  0.01871  1.0000
  H   H958      1.0  0.32987  0.55047  0.09850  1.0000
  S   S245      1.0  0.08594  0.39829  0.24593  1.0000
  H   H959      1.0  0.23327  0.57885  0.07863  1.0000
  C   C838      1.0  0.13626  0.51352  0.16487  1.0000
  H   H960      1.0  0.09865  0.54275  0.07143  1.0000
  C   C839      1.0  0.27985  0.41912  0.05773  1.0000
  N   N55       1.0  0.29603  0.41506  0.01920  1.0000
  H   H961      1.0  0.15790  0.44678  0.19695  1.0000
  S   S246      1.0  0.02918  0.52799  0.33195  1.0000
  C   C840      1.0  0.29461  0.41676  0.03381  1.0000
  C   C841      1.0  0.02819  0.47386  0.16580  1.0000
  H   H962      1.0  0.02594  0.47038  0.15714  1.0000
  C   C842      1.0  0.06367  0.54492  0.27770  1.0000
  S   S247      1.0  0.36181  0.41081  0.02970  1.0000
  C   C843      1.0  0.29340  0.42947  0.00971  1.0000
  Fe  Fe120     1.0  0.10876  0.39995  0.23450  1.0000
  H   H963      1.0  0.41372  0.54177  0.02300  1.0000
  H   H964      1.0  0.38806  0.55748  0.06010  1.0000
  N   N56       1.0  0.11253  0.47305  0.19585  1.0000
  C   C844      1.0  0.10660  0.46823  0.18636  1.0000
  C   C845      1.0  0.11138  0.46243  0.20967  1.0000
  C   C846      1.0  0.10315  0.48711  0.19826  1.0000
  C   C847      1.0  0.12784  0.47438  0.19017  1.0000
  C   C848      1.0  0.13461  0.47972  0.19775  1.0000
  C   C849      1.0  0.13653  0.47025  0.17735  1.0000
  C   C850      1.0  0.14907  0.48096  0.19278  1.0000
  C   C851      1.0  0.15108  0.47141  0.17255  1.0000
  C   C852      1.0  0.15731  0.47672  0.18028  1.0000
  H   H965      1.0  0.11222  0.45711  0.18521  1.0000
  H   H966      1.0  0.09483  0.46813  0.19072  1.0000
  H   H967      1.0  0.10744  0.47548  0.17559  1.0000
  H   H968      1.0  0.11817  0.45164  0.20848  1.0000
  H   H969      1.0  0.09995  0.46131  0.21457  1.0000
  H   H970      1.0  0.11505  0.46562  0.21754  1.0000
  H   H971      1.0  0.10395  0.49562  0.18827  1.0000
  H   H972      1.0  0.09156  0.48657  0.20231  1.0000
  H   H973      1.0  0.10568  0.49087  0.20653  1.0000
  H   H974      1.0  0.12877  0.48299  0.20764  1.0000
  H   H975      1.0  0.13236  0.46606  0.17089  1.0000
  H   H976      1.0  0.15390  0.48526  0.19868  1.0000
  H   H977      1.0  0.15770  0.46805  0.16284  1.0000
  H   H978      1.0  0.16859  0.47755  0.17664  1.0000
  H   H979      1.0  0.04238  0.57296  0.36110  1.0000
  C   C853      1.0  0.17223  0.46164  0.21638  1.0000
  H   H980      1.0  0.29394  0.42877  0.99865  1.0000
  H   H981      1.0  0.02688  0.56091  0.42803  1.0000
  H   H982      1.0  0.17233  0.44280  0.05385  1.0000
  H   H983      1.0  0.14794  0.53702  0.00314  1.0000
  C   C854      1.0  0.18474  0.42542  0.21351  1.0000
  H   H984      1.0  0.31135  0.40381  0.00341  1.0000
  C   C855      1.0  0.18861  0.45429  0.19527  1.0000
  H   H985      1.0  0.43091  0.58229  0.03455  1.0000
  C   C856      1.0  0.02452  0.48177  0.12524  1.0000
  C   C857      1.0  0.29123  0.55563  0.02122  1.0000
  H   H986      1.0  0.38709  0.45104  0.99331  1.0000
  Fe  Fe121     1.0  0.02206  0.52547  0.38463  1.0000
  H   H987      1.0  0.00494  0.56200  0.35189  1.0000
  S   S248      1.0  0.04640  0.49903  0.36080  1.0000
  H   H988      1.0  0.07767  0.41301  0.29672  1.0000
  H   H989      1.0  0.26943  0.41951  0.06534  1.0000
  H   H990      1.0  0.11704  0.53665  0.07375  1.0000
  H   H991      1.0  0.20186  0.46903  0.18176  1.0000
  C   C858      1.0  0.08912  0.55607  0.48216  1.0000
  C   C859      1.0  0.46158  0.55527  0.99659  1.0000
  S   S249      1.0  0.23628  0.40280  0.13487  1.0000
  H   H992      1.0  0.04668  0.42449  0.29577  1.0000
  H   H993      1.0  0.46372  0.53235  0.00245  1.0000
  H   H994      1.0  0.03011  0.51542  0.43747  1.0000
  H   H995      1.0  0.17163  0.51458  0.15000  1.0000
  Fe  Fe122     1.0  0.21328  0.41403  0.14334  1.0000
  H   H996      1.0  0.05102  0.57697  0.28873  1.0000
  C   C860      1.0  0.14842  0.53203  0.16255  1.0000
  H   H997      1.0  0.16353  0.50457  0.16654  1.0000
  H   H998      1.0  0.10541  0.52102  0.11321  1.0000
  C   C861      1.0  0.31079  0.40694  0.01343  1.0000
  H   H999      1.0  0.22151  0.41252  0.11120  1.0000
  H   H1000     1.0  0.35058  0.48075  0.04652  1.0000
  C   C862      1.0  0.05452  0.57088  0.37635  1.0000
  H   H1001     1.0  0.04295  0.55731  0.30718  1.0000
  H   H1002     1.0  0.18120  0.41508  0.21701  1.0000
  C   C863      1.0  0.33684  0.53773  0.00408  1.0000
  H   H1003     1.0  0.13834  0.54070  0.16243  1.0000
  H   H1004     1.0  0.01436  0.45638  0.18709  1.0000
  H   H1005     1.0  0.30169  0.43544  0.00896  1.0000
  S   S250      1.0  0.38063  0.51715  0.99460  1.0000
  H   H1006     1.0  0.08076  0.58478  0.39166  1.0000
  H   H1007     1.0  0.40896  0.43320  0.99015  1.0000
  Fe  Fe123     1.0  0.02917  0.49512  0.38077  1.0000
  Fe  Fe124     1.0  0.03975  0.57312  0.47013  1.0000
  H   H1008     1.0  0.12094  0.52163  0.09829  1.0000
  C   C864      1.0  0.16077  0.44652  0.05787  1.0000
  H   H1009     1.0  0.17309  0.48210  0.21912  1.0000
  H   H1010     1.0  0.01609  0.56391  0.40745  1.0000
  C   C865      1.0  0.00816  0.45898  0.38095  1.0000
  H   H1011     1.0  0.28168  0.59028  0.01972  1.0000
  C   C866      1.0  0.01262  0.52756  0.32913  1.0000
  H   H1012     1.0  0.12556  0.48464  0.04333  1.0000
  H   H1013     1.0  0.20713  0.58214  0.05825  1.0000
  H   H1014     1.0  0.06495  0.51308  0.26987  1.0000
  H   H1015     1.0  0.19325  0.42462  0.20351  1.0000
  C   C867      1.0  0.16667  0.43721  0.19940  1.0000
  H   H1016     1.0  0.39095  0.58558  0.03307  1.0000
  H   H1017     1.0  0.02980  0.49547  0.21557  1.0000
  C   C868      1.0  0.14612  0.52749  0.14096  1.0000
  H   H1018     1.0  0.15086  0.44538  0.22344  1.0000
  C   C869      1.0  0.41058  0.55909  0.05416  1.0000
  H   H1019     1.0  0.32930  0.53281  0.00154  1.0000
  H   H1020     1.0  0.30344  0.58067  0.08339  1.0000
  H   H1021     1.0  0.44221  0.54143  0.06198  1.0000
  N   N57       1.0  0.07279  0.52912  0.40630  1.0000
  C   C870      1.0  0.08143  0.51510  0.40317  1.0000
  C   C871      1.0  0.06676  0.52682  0.42194  1.0000
  C   C872      1.0  0.06028  0.53390  0.39924  1.0000
  C   C873      1.0  0.08221  0.53966  0.40090  1.0000
  C   C874      1.0  0.08792  0.54388  0.38603  1.0000
  C   C875      1.0  0.08668  0.54536  0.41007  1.0000
  C   C876      1.0  0.09774  0.55289  0.38064  1.0000
  C   C877      1.0  0.09656  0.55435  0.40460  1.0000
  C   C878      1.0  0.10223  0.55793  0.38993  1.0000
  H   H1022     1.0  0.09057  0.51076  0.40878  1.0000
  H   H1023     1.0  0.07462  0.50698  0.40639  1.0000
  H   H1024     1.0  0.08632  0.51590  0.39159  1.0000
  H   H1025     1.0  0.07540  0.52199  0.42815  1.0000
  H   H1026     1.0  0.05922  0.51935  0.42565  1.0000
  H   H1027     1.0  0.06044  0.53710  0.42498  1.0000
  H   H1028     1.0  0.06364  0.53426  0.38759  1.0000
  H   H1029     1.0  0.05274  0.52640  0.40358  1.0000
  H   H1030     1.0  0.05375  0.54465  0.40088  1.0000
  H   H1031     1.0  0.08514  0.53988  0.37846  1.0000
  H   H1032     1.0  0.08293  0.54288  0.42156  1.0000
  H   H1033     1.0  0.10215  0.55567  0.36920  1.0000
  H   H1034     1.0  0.10001  0.55833  0.41186  1.0000
  C   C879      1.0  0.05001  0.41378  0.30269  1.0000
  H   H1035     1.0  0.03402  0.48268  0.16044  1.0000
  C   C880      1.0  0.13779  0.54165  0.99963  1.0000
  C   C881      1.0  0.30267  0.56199  0.03617  1.0000
  N   N58       1.0  0.14806  0.52079  0.15572  1.0000
  H   H1036     1.0  0.27996  0.56177  0.04112  1.0000
  N   N59       1.0  0.10629  0.53044  0.30294  1.0000
  C   C882      1.0  0.10247  0.54594  0.30296  1.0000
  C   C883      1.0  0.11638  0.52284  0.31262  1.0000
  C   C884      1.0  0.11424  0.52890  0.28822  1.0000
  C   C885      1.0  0.09295  0.52464  0.30807  1.0000
  C   C886      1.0  0.08856  0.51767  0.29993  1.0000
  C   C887      1.0  0.08403  0.52564  0.32180  1.0000
  C   C888      1.0  0.07604  0.51206  0.30536  1.0000
  C   C889      1.0  0.07150  0.52011  0.32707  1.0000
  C   C890      1.0  0.06752  0.51330  0.31888  1.0000
  H   H1037     1.0  0.09761  0.54805  0.31383  1.0000
  H   H1038     1.0  0.11221  0.55074  0.29895  1.0000
  H   H1039     1.0  0.09459  0.55201  0.29611  1.0000
  H   H1040     1.0  0.11171  0.52460  0.32365  1.0000
  H   H1041     1.0  0.12675  0.52661  0.30888  1.0000
  H   H1042     1.0  0.11907  0.51106  0.31337  1.0000
  H   H1043     1.0  0.10743  0.53476  0.28027  1.0000
  H   H1044     1.0  0.12415  0.53345  0.28460  1.0000
  H   H1045     1.0  0.11805  0.51746  0.28746  1.0000
  H   H1046     1.0  0.09463  0.51633  0.28939  1.0000
  H   H1047     1.0  0.08678  0.53060  0.32864  1.0000
  H   H1048     1.0  0.07293  0.50666  0.29907  1.0000
  H   H1049     1.0  0.06485  0.52102  0.33763  1.0000
  H   H1050     1.0  0.05780  0.50898  0.32305  1.0000
  H   H1051     1.0  0.05321  0.58805  0.48175  1.0000
  C   C891      1.0  0.02538  0.55163  0.42555  1.0000
  H   H1052     1.0  0.31922  0.41333  0.01044  1.0000
  C   C892      1.0  0.01729  0.54132  0.41071  1.0000
  H   H1053     1.0  0.07872  0.41890  0.31144  1.0000
  H   H1054     1.0  0.16285  0.44161  0.07962  1.0000
  H   H1055     1.0  0.03216  0.56948  0.28515  1.0000
  C   C893      1.0  0.04207  0.57610  0.37070  1.0000
  H   H1056     1.0  0.17525  0.43658  0.18945  1.0000
  C   C894      1.0  0.45678  0.54263  0.99902  1.0000
  H   H1057     1.0  0.14201  0.56024  0.17139  1.0000
  H   H1058     1.0  0.11021  0.56454  0.38576  1.0000
  C   C895      1.0  0.09196  0.58432  0.26638  1.0000
  C   C896      1.0  0.19367  0.46691  0.19152  1.0000
  H   H1059     1.0  0.43893  0.53361  0.99973  1.0000
  H   H1060     1.0  0.06908  0.56651  0.28697  1.0000
  H   H1061     1.0  0.19333  0.44692  0.18820  1.0000
  C   C897      1.0  0.11142  0.55324  0.99109  1.0000
  N   N60       1.0  0.22884  0.58370  0.05761  1.0000
  H   H1062     1.0  0.05698  0.40658  0.29544  1.0000
  H   H1063     1.0  0.34603  0.55336  0.01518  1.0000
  C   C898      1.0  0.11509  0.45362  0.04824  1.0000
  H   H1064     1.0  0.08229  0.55526  0.26949  1.0000
  C   C899      1.0  0.11786  0.47766  0.04510  1.0000
  H   H1065     1.0  0.14924  0.52761  0.17391  1.0000
  N   N61       1.0  0.37075  0.48074  0.03084  1.0000
  C   C900      1.0  0.36086  0.48444  0.04418  1.0000
  C   C901      1.0  0.38451  0.48529  0.02857  1.0000
  C   C902      1.0  0.36376  0.48925  0.01878  1.0000
  C   C903      1.0  0.37380  0.46505  0.03218  1.0000
  C   C904      1.0  0.36963  0.45879  0.02326  1.0000
  C   C905      1.0  0.38088  0.45550  0.04294  1.0000
  C   C906      1.0  0.37234  0.44391  0.02516  1.0000
  C   C907      1.0  0.38357  0.44063  0.04469  1.0000
  C   C908      1.0  0.37927  0.43485  0.03583  1.0000
  H   H1066     1.0  0.45975  0.56039  0.03688  1.0000
  H   H1067     1.0  0.36584  0.47953  0.05360  1.0000
  H   H1068     1.0  0.35792  0.49622  0.04345  1.0000
  H   H1069     1.0  0.38281  0.49716  0.02646  1.0000
  H   H1070     1.0  0.39261  0.48171  0.01926  1.0000
  H   H1071     1.0  0.38960  0.48092  0.03794  1.0000
  H   H1072     1.0  0.36159  0.50099  0.01813  1.0000
  H   H1073     1.0  0.37089  0.48731  0.00833  1.0000
  H   H1074     1.0  0.35305  0.48682  0.02001  1.0000
  H   H1075     1.0  0.36430  0.46510  0.01470  1.0000
  H   H1076     1.0  0.38431  0.45947  0.05015  1.0000
  H   H1077     1.0  0.36891  0.43933  0.01837  1.0000
  H   H1078     1.0  0.38891  0.43352  0.05303  1.0000
  H   H1079     1.0  0.38119  0.42331  0.03731  1.0000
  N   N62       1.0  0.05348  0.55580  0.28539  1.0000
  H   H1080     1.0  0.02034  0.57352  0.36026  1.0000
  H   H1081     1.0  0.12188  0.53545  0.11951  1.0000
  H   H1082     1.0  0.00934  0.52881  0.17348  1.0000
  Fe  Fe125     1.0  0.47944  0.57570  0.00294  1.0000
  S   S251      1.0  0.11327  0.49115  0.00005  1.0000
  C   C909      1.0  0.08785  0.42875  0.19488  1.0000
  C   C910      1.0  0.31896  0.55193  0.10593  1.0000
  H   H1083     1.0  0.12476  0.46745  0.02175  1.0000
  C   C911      1.0  0.00626  0.47882  0.35506  1.0000
  C   C912      1.0  0.25084  0.39590  0.08911  1.0000
  C   C913      1.0  0.39846  0.55541  0.05263  1.0000
  S   S252      1.0  0.20868  0.42125  0.16384  1.0000
  S   S253      1.0  0.02031  0.46795  0.12064  1.0000
  C   C914      1.0  0.17747  0.47419  0.21256  1.0000
  C   C915      1.0  0.44007  0.55328  0.06049  1.0000
  C   C916      1.0  0.26336  0.57146  0.08332  1.0000
  S   S254      1.0  0.34458  0.43857  0.99845  1.0000
  C   C917      1.0  0.09146  0.58138  0.25363  1.0000
  H   H1084     1.0  0.27403  0.41370  0.02030  1.0000
  H   H1085     1.0  0.22851  0.56134  0.06180  1.0000
  C   C918      1.0  0.07796  0.54628  0.27000  1.0000
  H   H1086     1.0  0.09619  0.55718  0.09045  1.0000
  C   C919      1.0  0.05058  0.54947  0.30096  1.0000
  N   N63       1.0  0.10048  0.53423  0.09334  1.0000
  C   C920      1.0  0.10915  0.52152  0.10150  1.0000
  H   H1087     1.0  0.10096  0.54715  0.10724  1.0000
  C   C921      1.0  0.13474  0.53638  0.98951  1.0000
  C   C922      1.0  0.10310  0.54728  0.09568  1.0000
  H   H1088     1.0  0.08749  0.51614  0.08738  1.0000
  H   H1089     1.0  0.13529  0.50497  0.16029  1.0000
  S   S255      1.0  0.09051  0.56876  0.43926  1.0000
  C   C923      1.0  0.08499  0.53333  0.09801  1.0000
  H   H1090     1.0  0.10809  0.51136  0.09976  1.0000
  C   C924      1.0  0.02928  0.53794  0.43404  1.0000
  C   C925      1.0  0.15691  0.53417  0.13069  1.0000
  C   C926      1.0  0.08011  0.52324  0.09398  1.0000
  H   H1091     1.0  0.11465  0.54819  0.09123  1.0000
  H   H1092     1.0  0.07734  0.54907  0.11160  1.0000
  C   C927      1.0  0.00488  0.49046  0.16854  1.0000
  C   C928      1.0  0.28098  0.41815  0.04377  1.0000
  C   C929      1.0  0.07456  0.54162  0.10737  1.0000
  H   H1093     1.0  0.06906  0.39922  0.32873  1.0000
  C   C930      1.0  0.25795  0.58170  0.09171  1.0000
  C   C931      1.0  0.06568  0.52176  0.09874  1.0000
  C   C932      1.0  0.05900  0.56891  0.28298  1.0000
  H   H1094     1.0  0.31502  0.41852  0.05579  1.0000
  C   C933      1.0  0.01210  0.57893  0.36834  1.0000
  C   C934      1.0  0.18810  0.47685  0.20014  1.0000
  C   C935      1.0  0.16010  0.39288  0.19170  1.0000
  H   H1095     1.0  0.02710  0.50105  0.17252  1.0000
  C   C936      1.0  0.06013  0.54008  0.11204  1.0000
  H   H1096     1.0  0.06228  0.51381  0.09572  1.0000
  S   S256      1.0  0.35251  0.56730  0.07063  1.0000
  C   C937      1.0  0.25568  0.39255  0.11244  1.0000
  C   C938      1.0  0.05570  0.53020  0.10771  1.0000
  H   H1097     1.0  0.35446  0.53693  0.07731  1.0000
  H   H1098     1.0  0.05241  0.54626  0.11942  1.0000
  C   C939      1.0  0.16388  0.57054  0.12391  1.0000
  Fe  Fe126     1.0  0.06662  0.56981  0.44609  1.0000
  H   H1099     1.0  0.34212  0.39583  0.02574  1.0000
  H   H1100     1.0  0.06076  0.54583  0.30498  1.0000
  C   C940      1.0  0.16375  0.57118  0.13771  1.0000
  H   H1101     1.0  0.04459  0.52881  0.11163  1.0000
  C   C941      1.0  0.17763  0.45130  0.20774  1.0000
  C   C942      1.0  0.05496  0.57482  0.38848  1.0000
  Fe  Fe127     1.0  0.47368  0.59015  0.02722  1.0000
  H   H1102     1.0  0.00562  0.48650  0.34502  1.0000
  H   H1103     1.0  0.07807  0.42908  0.20330  1.0000
  S   S257      1.0  0.01008  0.54331  0.39598  1.0000
  C   C943      1.0  0.30450  0.55346  0.01135  1.0000
  C   C944      1.0  0.45046  0.55708  0.03537  1.0000
  H   H1104     1.0  0.27916  0.56542  0.06499  1.0000
  H   H1105     1.0  0.05249  0.43759  0.34957  1.0000
  C   C945      1.0  0.01832  0.48309  0.18728  1.0000
  N   N64       1.0  0.33123  0.55336  0.00291  1.0000
  H   H1106     1.0  0.16407  0.49112  0.99614  1.0000
  H   H1107     1.0  0.07957  0.44901  0.18190  1.0000
  C   C946      1.0  0.31725  0.55583  0.01345  1.0000
  C   C947      1.0  0.23593  0.56880  0.05610  1.0000
  H   H1108     1.0  0.09720  0.58794  0.39368  1.0000
  C   C948      1.0  0.31599  0.55996  0.02633  1.0000
  H   H1109     1.0  0.28757  0.40447  0.00816  1.0000
  C   C949      1.0  0.02664  0.44064  0.33192  1.0000
  H   H1110     1.0  0.24891  0.58046  0.10079  1.0000
  C   C950      1.0  0.13285  0.46319  0.02865  1.0000
  H   H1111     1.0  0.11048  0.47812  0.05574  1.0000
  C   C951      1.0  0.31838  0.55107  0.07579  1.0000
  H   H1112     1.0  0.15291  0.56370  0.18114  1.0000
  H   H1113     1.0  0.04024  0.40923  0.30819  1.0000
  H   H1114     1.0  0.17458  0.57579  0.15826  1.0000
  S   S258      1.0  0.41300  0.48652  0.99352  1.0000
  C   C952      1.0  0.14179  0.49112  0.99760  1.0000
  C   C953      1.0  0.01683  0.50422  0.13299  1.0000
  H   H1115     1.0  0.32505  0.56200  0.02892  1.0000
  C   C954      1.0  0.29527  0.53832  0.07986  1.0000
  H   H1116     1.0  0.10726  0.45732  0.04109  1.0000
  C   C955      1.0  0.28172  0.58478  0.06851  1.0000
  H   H1117     1.0  0.31699  0.54105  0.11154  1.0000
  H   H1118     1.0  0.13575  0.43942  0.16962  1.0000
  H   H1119     1.0  0.44981  0.55591  0.06189  1.0000
  H   H1120     1.0  0.41068  0.57951  0.01254  1.0000
  C   C956      1.0  0.24172  0.40061  0.11709  1.0000
  H   H1121     1.0  0.00259  0.49443  0.12786  1.0000
  C   C957      1.0  0.43349  0.57638  0.04506  1.0000
  C   C958      1.0  0.02851  0.49968  0.19364  1.0000
  C   C959      1.0  0.35225  0.39802  0.04126  1.0000
  H   H1122     1.0  0.32762  0.55569  0.07384  1.0000
  H   H1123     1.0  0.01311  0.56317  0.32770  1.0000
  H   H1124     1.0  0.06387  0.56383  0.37121  1.0000
  S   S259      1.0  0.32044  0.58665  0.05241  1.0000
  H   H1125     1.0  0.44282  0.57998  0.04600  1.0000
  H   H1126     1.0  0.00370  0.53132  0.46599  1.0000
  H   H1127     1.0  0.03590  0.46481  0.17111  1.0000
  H   H1128     1.0  0.16392  0.58538  0.17144  1.0000
  H   H1129     1.0  0.13016  0.55655  0.01341  1.0000
  N   N65       1.0  0.05781  0.41460  0.31307  1.0000
  H   H1130     1.0  0.00829  0.51328  0.13561  1.0000
  C   C960      1.0  0.13179  0.53487  0.12257  1.0000
  S   S260      1.0  0.05439  0.56953  0.43053  1.0000
  H   H1131     1.0  0.04879  0.53050  0.28366  1.0000
  H   H1132     1.0  0.30190  0.56555  0.04569  1.0000
  H   H1133     1.0  0.12085  0.40709  0.18711  1.0000
  H   H1134     1.0  0.16133  0.55623  0.16567  1.0000
  H   H1135     1.0  0.32345  0.57158  0.98727  1.0000
  H   H1136     1.0  0.01543  0.44604  0.33173  1.0000
  H   H1137     1.0  0.23931  0.56791  0.04475  1.0000
  H   H1138     1.0  0.08305  0.58782  0.24800  1.0000
  H   H1139     1.0  0.28612  0.53358  0.08135  1.0000
  H   H1140     1.0  0.02852  0.42997  0.31580  1.0000
  C   C961      1.0  0.12725  0.49570  0.00422  1.0000
  C   C962      1.0  0.15283  0.49489  0.00111  1.0000
  H   H1141     1.0  0.06452  0.57061  0.39296  1.0000
  H   H1142     1.0  0.36596  0.57940  0.98711  1.0000
  H   H1143     1.0  0.45397  0.54534  0.03585  1.0000
  H   H1144     1.0  0.36075  0.39771  0.05897  1.0000
  C   C963      1.0  0.04752  0.43588  0.34199  1.0000
  C   C964      1.0  0.15193  0.56407  0.17022  1.0000
  S   S261      1.0  0.03803  0.53224  0.36470  1.0000
  H   H1145     1.0  0.02710  0.45000  0.34863  1.0000
  H   H1146     1.0  0.11398  0.57942  0.44095  1.0000
  H   H1147     1.0  0.30671  0.53132  0.06042  1.0000
  C   C965      1.0  0.02717  0.52600  0.43088  1.0000
  H   H1148     1.0  0.16391  0.46036  0.22607  1.0000
  N   N66       1.0  0.30734  0.56043  0.09824  1.0000
  H   H1149     1.0  0.28156  0.55424  0.01909  1.0000
  H   H1150     1.0  0.40513  0.45902  0.00073  1.0000
  H   H1151     1.0  0.30957  0.58148  0.09827  1.0000
  S   S262      1.0  0.03764  0.50558  0.39298  1.0000
  S   S263      1.0  0.01229  0.51468  0.37406  1.0000
  C   C966      1.0  0.15112  0.57811  0.14643  1.0000
  C   C967      1.0  0.30679  0.53712  0.06805  1.0000
  C   C968      1.0  0.00815  0.53629  0.31685  1.0000
  S   S264      1.0  0.07305  0.57557  0.31090  1.0000
  H   H1152     1.0  0.16354  0.54590  0.10913  1.0000
  H   H1153     1.0  0.11310  0.57106  0.15176  1.0000
  C   C969      1.0  0.15519  0.54081  0.11677  1.0000
  H   H1154     1.0  0.01008  0.57069  0.37838  1.0000
  C   C970      1.0  0.12775  0.55262  0.00548  1.0000
  H   H1155     1.0  0.43490  0.54790  0.02524  1.0000
  H   H1156     1.0  0.39033  0.54616  0.04034  1.0000
  H   H1157     1.0  0.06126  0.57434  0.27145  1.0000
  C   C971      1.0  0.23689  0.40402  0.09371  1.0000
  H   H1158     1.0  0.28427  0.56901  0.10366  1.0000
  C   C972      1.0  0.03439  0.43144  0.32270  1.0000
  H   H1159     1.0  0.06780  0.39208  0.31479  1.0000
  C   C973      1.0  0.04309  0.58422  0.39480  1.0000
  C   C974      1.0  0.14263  0.54118  0.11273  1.0000
  H   H1160     1.0  0.14118  0.54653  0.10202  1.0000
  Fe  Fe128     1.0  0.03838  0.58763  0.43928  1.0000
  C   C975      1.0  0.44281  0.54332  0.99745  1.0000
  C   C976      1.0  0.07125  0.41960  0.30467  1.0000
  H   H1161     1.0  0.06644  0.42141  0.33367  1.0000
  H   H1162     1.0  0.01879  0.48963  0.36123  1.0000
  H   H1163     1.0  0.34754  0.53537  0.99655  1.0000
  C   C977      1.0  0.00541  0.57411  0.30852  1.0000
  S   S265      1.0  0.46629  0.58641  0.05103  1.0000
  H   H1164     1.0  0.30461  0.55003  0.00199  1.0000
  Fe  Fe129     1.0  0.40454  0.51005  0.99353  1.0000
  C   C978      1.0  0.39899  0.46632  0.99314  1.0000
  S   S266      1.0  0.37977  0.42439  0.99155  1.0000
  H   H1165     1.0  0.09206  0.57521  0.46609  1.0000
  H   H1166     1.0  0.31409  0.39689  0.02127  1.0000
  H   H1167     1.0  0.01138  0.58822  0.43092  1.0000
  C   C979      1.0  0.01756  0.53919  0.48320  1.0000
  H   H1168     1.0  0.43202  0.57944  0.98665  1.0000
  C   C980      1.0  0.41010  0.58866  0.01670  1.0000
  C   C981      1.0  0.32922  0.56015  0.98814  1.0000
  C   C982      1.0  0.15909  0.39814  0.21417  1.0000
  C   C983      1.0  0.01614  0.47576  0.20190  1.0000
  H   H1169     1.0  0.10358  0.57846  0.28316  1.0000
  H   H1170     1.0  0.29068  0.58598  0.05941  1.0000
  H   H1171     1.0  0.17368  0.56620  0.14147  1.0000
  C   C984      1.0  0.16420  0.58368  0.16083  1.0000
  C   C985      1.0  0.09347  0.58621  0.43462  1.0000
  C   C986      1.0  0.43377  0.55667  0.99338  1.0000
  H   H1172     1.0  0.12823  0.58886  0.14661  1.0000
  H   H1173     1.0  0.00703  0.51226  0.34868  1.0000
  H   H1174     1.0  0.01020  0.49951  0.16256  1.0000
  C   C987      1.0  0.00344  0.51934  0.33939  1.0000
  H   H1175     1.0  0.13885  0.58891  0.17849  1.0000
  C   C988      1.0  0.38883  0.46178  0.98892  1.0000
  C   C989      1.0  0.40096  0.48043  0.98774  1.0000
  C   C990      1.0  0.02958  0.58534  0.37714  1.0000
  H   H1176     1.0  0.45646  0.57828  0.98983  1.0000
  H   H1177     1.0  0.13956  0.39622  0.23032  1.0000
  H   H1178     1.0  0.00268  0.54853  0.36809  1.0000
  H   H1179     1.0  0.12808  0.58438  0.16971  1.0000
  H   H1180     1.0  0.01976  0.52956  0.47876  1.0000
  Fe  Fe130     1.0  0.05271  0.58763  0.32292  1.0000
  C   C991      1.0  0.13816  0.58833  0.16776  1.0000
  H   H1181     1.0  0.04352  0.58761  0.40404  1.0000
  C   C992      1.0  0.13866  0.58284  0.12692  1.0000
  C   C993      1.0  0.10600  0.58845  0.43678  1.0000
  C   C994      1.0  0.13846  0.58375  0.14067  1.0000
  H   H1182     1.0  0.28579  0.39699  0.02688  1.0000
  C   C995      1.0  0.03059  0.58946  0.38925  1.0000
  H   H1183     1.0  0.42702  0.42278  0.99062  1.0000
  S   S267      1.0  0.05150  0.58895  0.45366  1.0000
  H   H1184     1.0  0.21763  0.58694  0.04073  1.0000
  S   S268      1.0  0.25628  0.39311  0.07156  1.0000
  H   H1185     1.0  0.41405  0.41509  0.98793  1.0000
  N   N67       1.0  0.01656  0.59086  0.37089  1.0000
  H   H1186     1.0  0.12888  0.58721  0.12274  1.0000
  H   H1187     1.0  0.16590  0.39190  0.18095  1.0000
  H   H1188     1.0  0.23938  0.59087  0.02852  1.0000
  H   H1189     1.0  0.36773  0.57918  0.96877  1.0000
  H   H1190     1.0  0.19505  0.46982  0.94564  1.0000
  H   H1191     1.0  0.00701  0.52593  0.73635  1.0000
  S   S269      1.0  0.36163  0.43260  0.96648  1.0000
  H   H1192     1.0  0.20132  0.52385  0.95336  1.0000
  S   S270      1.0  0.05407  0.39575  0.61372  1.0000
  N   N68       1.0  0.08606  0.55028  0.52235  1.0000
  H   H1193     1.0  0.18878  0.40840  0.94616  1.0000
  Fe  Fe131     1.0  0.09190  0.55777  0.73208  1.0000
  S   S271      1.0  0.10479  0.55841  0.70947  1.0000
  S   S272      1.0  0.09583  0.53933  0.75089  1.0000
  Fe  Fe132     1.0  0.08307  0.56684  0.70358  1.0000
  S   S273      1.0  0.07803  0.56298  0.68467  1.0000
  S   S274      1.0  0.07003  0.56421  0.72621  1.0000
  Fe  Fe133     1.0  0.03664  0.48131  0.67107  1.0000
  S   S275      1.0  0.03439  0.49472  0.64943  1.0000
  S   S276      1.0  0.02964  0.46038  0.67774  1.0000
  Fe  Fe134     1.0  0.04817  0.50317  0.67814  1.0000
  S   S277      1.0  0.04703  0.51841  0.65683  1.0000
  S   S278      1.0  0.05483  0.50687  0.69647  1.0000
  Fe  Fe135     1.0  0.02543  0.51300  0.66042  1.0000
  S   S279      1.0  0.30258  0.57093  0.93517  1.0000
  Fe  Fe136     1.0  0.05611  0.49877  0.64779  1.0000
  S   S280      1.0  0.07384  0.49571  0.62829  1.0000
  S   S281      1.0  0.02575  0.49930  0.68237  1.0000
  S   S282      1.0  0.05916  0.48376  0.66879  1.0000
  S   S283      1.0  0.00581  0.53014  0.65598  1.0000
  C   C996      1.0  0.11774  0.39371  0.89015  1.0000
  H   H1194     1.0  0.34979  0.40638  0.93749  1.0000
  H   H1195     1.0  0.32753  0.50601  0.97033  1.0000
  Fe  Fe137     1.0  0.04267  0.41200  0.62709  1.0000
  S   S284      1.0  0.05271  0.43019  0.62552  1.0000
  H   H1196     1.0  0.10505  0.55693  0.96492  1.0000
  N   N69       1.0  0.03672  0.39992  0.68946  1.0000
  S   S285      1.0  0.08007  0.53940  0.56812  1.0000
  Fe  Fe138     1.0  0.10912  0.42427  0.79964  1.0000
  S   S286      1.0  0.10780  0.41144  0.82211  1.0000
  S   S287      1.0  0.10382  0.44829  0.79729  1.0000
  H   H1197     1.0  0.43910  0.42390  0.95205  1.0000
  C   C997      1.0  0.01446  0.54191  0.67273  1.0000
  Fe  Fe139     1.0  0.14096  0.52273  0.80781  1.0000
  S   S288      1.0  0.13976  0.52608  0.82962  1.0000
  S   S289      1.0  0.13900  0.53960  0.78733  1.0000
  Fe  Fe140     1.0  0.14723  0.49041  0.81726  1.0000
  S   S290      1.0  0.14653  0.49083  0.83963  1.0000
  S   S291      1.0  0.15270  0.46993  0.80955  1.0000
  Fe  Fe141     1.0  0.12706  0.50876  0.83750  1.0000
  S   S292      1.0  0.10828  0.50746  0.85643  1.0000
  Fe  Fe142     1.0  0.15950  0.50785  0.83024  1.0000
  S   S293      1.0  0.17870  0.50235  0.84069  1.0000
  S   S294      1.0  0.12661  0.50694  0.81587  1.0000
  S   S295      1.0  0.16186  0.50594  0.80778  1.0000
  Fe  Fe143     1.0  0.23276  0.52596  0.90723  1.0000
  S   S296      1.0  0.21248  0.54184  0.90236  1.0000
  S   S297      1.0  0.25389  0.53108  0.90758  1.0000
  Fe  Fe144     1.0  0.21942  0.50046  0.91123  1.0000
  S   S298      1.0  0.19804  0.51431  0.90706  1.0000
  S   S299      1.0  0.22220  0.47636  0.91703  1.0000
  Fe  Fe145     1.0  0.21140  0.52750  0.88906  1.0000
  S   S300      1.0  0.20357  0.53787  0.86846  1.0000
  Fe  Fe146     1.0  0.20072  0.52740  0.92058  1.0000
  S   S301      1.0  0.18172  0.53771  0.93565  1.0000
  S   S302      1.0  0.23287  0.51271  0.89218  1.0000
  S   S303      1.0  0.22092  0.51239  0.92656  1.0000
  Fe  Fe147     1.0  0.20405  0.43251  0.87411  1.0000
  S   S304      1.0  0.18072  0.43435  0.87434  1.0000
  S   S305      1.0  0.21292  0.45235  0.86892  1.0000
  Fe  Fe148     1.0  0.18163  0.41636  0.89370  1.0000
  C   C998      1.0  0.00907  0.41597  0.56353  1.0000
  Fe  Fe149     1.0  0.18905  0.41696  0.86193  1.0000
  S   S306      1.0  0.20436  0.41575  0.89438  1.0000
  Fe  Fe150     1.0  0.14049  0.47053  0.95650  1.0000
  S   S307      1.0  0.12772  0.48104  0.93952  1.0000
  S   S308      1.0  0.16293  0.45720  0.95114  1.0000
  H   H1198     1.0  0.12334  0.40432  0.86093  1.0000
  S   S309      1.0  0.10463  0.49821  0.96340  1.0000
  H   H1199     1.0  0.34945  0.47848  0.95005  1.0000
  Fe  Fe151     1.0  0.10843  0.47729  0.95737  1.0000
  S   S310      1.0  0.08808  0.47447  0.95372  1.0000
  Fe  Fe152     1.0  0.12479  0.50102  0.94681  1.0000
  S   S311      1.0  0.12521  0.52251  0.93204  1.0000
  H   H1200     1.0  0.23610  0.40663  0.88178  1.0000
  S   S312      1.0  0.13929  0.49098  0.96225  1.0000
  Fe  Fe153     1.0  0.06397  0.41594  0.89665  1.0000
  S   S313      1.0  0.05133  0.43657  0.88603  1.0000
  H   H1201     1.0  0.10292  0.40968  0.71472  1.0000
  Fe  Fe154     1.0  0.07715  0.43057  0.91065  1.0000
  S   S314      1.0  0.06501  0.45271  0.90180  1.0000
  S   S315      1.0  0.09432  0.42508  0.92330  1.0000
  Fe  Fe155     1.0  0.04602  0.44230  0.90721  1.0000
  S   S316      1.0  0.02237  0.45217  0.91448  1.0000
  Fe  Fe156     1.0  0.07129  0.44510  0.88138  1.0000
  S   S317      1.0  0.07871  0.45788  0.85917  1.0000
  S   S318      1.0  0.05751  0.42098  0.91824  1.0000
  S   S319      1.0  0.08469  0.42369  0.88976  1.0000
  C   C999      1.0  0.19439  0.47784  0.95134  1.0000
  C   C1000     1.0  0.01164  0.44117  0.91356  1.0000
  C   C1001     1.0  0.01775  0.42678  0.91308  1.0000
  H   H1202     1.0  0.06426  0.58565  0.62284  1.0000
  C   C1002     1.0  0.25808  0.51714  0.85940  1.0000
  C   C1003     1.0  0.01520  0.55335  0.67776  1.0000
  C   C1004     1.0  0.10446  0.53062  0.98127  1.0000
  H   H1203     1.0  0.02892  0.42220  0.91388  1.0000
  H   H1204     1.0  0.00404  0.45833  0.83133  1.0000
  H   H1205     1.0  0.14853  0.51194  0.85959  1.0000
  H   H1206     1.0  0.00654  0.56628  0.48643  1.0000
  C   C1005     1.0  0.08974  0.45999  0.94634  1.0000
  C   C1006     1.0  0.07811  0.45946  0.94120  1.0000
  C   C1007     1.0  0.07946  0.44866  0.93423  1.0000
  C   C1008     1.0  0.09239  0.43827  0.93251  1.0000
  C   C1009     1.0  0.10395  0.43858  0.93791  1.0000
  C   C1010     1.0  0.10266  0.44949  0.94479  1.0000
  H   H1207     1.0  0.06808  0.46751  0.94247  1.0000
  H   H1208     1.0  0.07041  0.44828  0.93034  1.0000
  H   H1209     1.0  0.11392  0.43046  0.93667  1.0000
  H   H1210     1.0  0.11165  0.44985  0.94878  1.0000
  H   H1211     1.0  0.34591  0.54200  0.92312  1.0000
  C   C1011     1.0  0.16309  0.42784  0.92361  1.0000
  H   H1212     1.0  0.40938  0.45758  0.95431  1.0000
  C   C1012     1.0  0.15009  0.44194  0.94141  1.0000
  C   C1013     1.0  0.16300  0.44546  0.94106  1.0000
  C   C1014     1.0  0.17596  0.44010  0.93207  1.0000
  C   C1015     1.0  0.17593  0.43157  0.92313  1.0000
  S   S320      1.0  0.41016  0.52915  0.97640  1.0000
  Fe  Fe157     1.0  0.11427  0.39786  0.78744  1.0000
  H   H1213     1.0  0.18595  0.44289  0.93171  1.0000
  H   H1214     1.0  0.18590  0.42775  0.91607  1.0000
  C   C1016     1.0  0.16620  0.53363  0.93404  1.0000
  C   C1017     1.0  0.16630  0.51953  0.93425  1.0000
  C   C1018     1.0  0.15376  0.51613  0.93338  1.0000
  C   C1019     1.0  0.14129  0.52694  0.93174  1.0000
  C   C1020     1.0  0.14133  0.54113  0.93104  1.0000
  C   C1021     1.0  0.15370  0.54443  0.93252  1.0000
  H   H1215     1.0  0.17601  0.51121  0.93527  1.0000
  H   H1216     1.0  0.15381  0.50515  0.93384  1.0000
  H   H1217     1.0  0.13174  0.54952  0.92965  1.0000
  H   H1218     1.0  0.15371  0.55538  0.93216  1.0000
  C   C1022     1.0  0.21909  0.46982  0.90387  1.0000
  C   C1023     1.0  0.21556  0.45638  0.90737  1.0000
  C   C1024     1.0  0.21352  0.45090  0.89677  1.0000
  C   C1025     1.0  0.21517  0.45878  0.88262  1.0000
  C   C1026     1.0  0.21867  0.47222  0.87919  1.0000
  C   C1027     1.0  0.22048  0.47779  0.88980  1.0000
  H   H1219     1.0  0.21432  0.45024  0.91829  1.0000
  H   H1220     1.0  0.21073  0.44057  0.89954  1.0000
  H   H1221     1.0  0.21995  0.47836  0.86827  1.0000
  H   H1222     1.0  0.22318  0.48817  0.88701  1.0000
  C   C1028     1.0  0.18450  0.51257  0.84904  1.0000
  C   C1029     1.0  0.19455  0.50539  0.85771  1.0000
  C   C1030     1.0  0.20000  0.51300  0.86414  1.0000
  C   C1031     1.0  0.19572  0.52794  0.86168  1.0000
  C   C1032     1.0  0.18561  0.53516  0.85305  1.0000
  C   C1033     1.0  0.17985  0.52750  0.84691  1.0000
  H   H1223     1.0  0.19831  0.49388  0.85925  1.0000
  H   H1224     1.0  0.20790  0.50734  0.87059  1.0000
  H   H1225     1.0  0.18228  0.54673  0.85105  1.0000
  H   H1226     1.0  0.17218  0.53316  0.84020  1.0000
  C   C1034     1.0  0.09932  0.49427  0.85711  1.0000
  C   C1035     1.0  0.09428  0.48565  0.87031  1.0000
  C   C1036     1.0  0.08768  0.47464  0.87103  1.0000
  C   C1037     1.0  0.08602  0.47224  0.85856  1.0000
  C   C1038     1.0  0.09091  0.48096  0.84533  1.0000
  C   C1039     1.0  0.09760  0.49193  0.84461  1.0000
  H   H1227     1.0  0.09590  0.48715  0.87994  1.0000
  H   H1228     1.0  0.08427  0.46779  0.88122  1.0000
  H   H1229     1.0  0.08971  0.47912  0.83562  1.0000
  H   H1230     1.0  0.10120  0.49870  0.83440  1.0000
  C   C1040     1.0  0.11711  0.45385  0.80171  1.0000
  C   C1041     1.0  0.13149  0.44600  0.79977  1.0000
  C   C1042     1.0  0.14228  0.45105  0.80226  1.0000
  C   C1043     1.0  0.13873  0.46385  0.80693  1.0000
  C   C1044     1.0  0.12426  0.47152  0.80924  1.0000
  C   C1045     1.0  0.11348  0.46658  0.80654  1.0000
  H   H1231     1.0  0.13439  0.43617  0.79604  1.0000
  H   H1232     1.0  0.15344  0.44503  0.80051  1.0000
  H   H1233     1.0  0.12134  0.48124  0.81311  1.0000
  H   H1234     1.0  0.10233  0.47257  0.80832  1.0000
  H   H1235     1.0  0.12419  0.55347  0.95692  1.0000
  H   H1236     1.0  0.08949  0.41620  0.72921  1.0000
  H   H1237     1.0  0.01454  0.40585  0.51619  1.0000
  C   C1046     1.0  0.01372  0.51450  0.62326  1.0000
  S   S321      1.0  0.09265  0.58005  0.73183  1.0000
  S   S322      1.0  0.07388  0.39391  0.82999  1.0000
  H   H1238     1.0  0.08214  0.41078  0.84419  1.0000
  H   H1239     1.0  0.07610  0.41195  0.86967  1.0000
  C   C1047     1.0  0.31286  0.41200  0.96470  1.0000
  H   H1240     1.0  0.16913  0.50213  0.96807  1.0000
  C   C1048     1.0  0.09836  0.55131  0.52758  1.0000
  C   C1049     1.0  0.07495  0.50854  0.61201  1.0000
  C   C1050     1.0  0.08397  0.50401  0.59979  1.0000
  C   C1051     1.0  0.08529  0.51360  0.58648  1.0000
  C   C1052     1.0  0.07786  0.52794  0.58523  1.0000
  C   C1053     1.0  0.06884  0.53263  0.59745  1.0000
  C   C1054     1.0  0.06728  0.52287  0.61086  1.0000
  H   H1241     1.0  0.09000  0.49300  0.60063  1.0000
  H   H1242     1.0  0.09231  0.50991  0.57714  1.0000
  H   H1243     1.0  0.06297  0.54368  0.59653  1.0000
  H   H1244     1.0  0.06027  0.52640  0.62028  1.0000
  C   C1055     1.0  0.03606  0.45181  0.66336  1.0000
  C   C1056     1.0  0.04913  0.45368  0.65368  1.0000
  C   C1057     1.0  0.05441  0.44656  0.64239  1.0000
  C   C1058     1.0  0.04650  0.43781  0.64054  1.0000
  C   C1059     1.0  0.03339  0.43594  0.65020  1.0000
  C   C1060     1.0  0.02818  0.44296  0.66162  1.0000
  H   H1245     1.0  0.05528  0.46049  0.65495  1.0000
  H   H1246     1.0  0.06465  0.44787  0.63504  1.0000
  H   H1247     1.0  0.02714  0.42934  0.64870  1.0000
  S   S323      1.0  0.18793  0.39900  0.88146  1.0000
  Fe  Fe158     1.0  0.36442  0.44355  0.98192  1.0000
  H   H1248     1.0  0.02097  0.53137  0.67606  1.0000
  C   C1061     1.0  0.10669  0.54097  0.76142  1.0000
  C   C1062     1.0  0.11727  0.54917  0.75564  1.0000
  C   C1063     1.0  0.12684  0.54902  0.76384  1.0000
  C   C1064     1.0  0.12581  0.54080  0.77790  1.0000
  C   C1065     1.0  0.11477  0.53316  0.78385  1.0000
  C   C1066     1.0  0.10538  0.53310  0.77560  1.0000
  H   H1249     1.0  0.11839  0.55529  0.74471  1.0000
  H   H1250     1.0  0.13525  0.55509  0.75918  1.0000
  H   H1251     1.0  0.11347  0.52726  0.79480  1.0000
  H   H1252     1.0  0.09695  0.52710  0.78030  1.0000
  C   C1067     1.0  0.07244  0.54695  0.68787  1.0000
  C   C1068     1.0  0.06802  0.54406  0.67707  1.0000
  C   C1069     1.0  0.06283  0.53167  0.67957  1.0000
  C   C1070     1.0  0.06226  0.52197  0.69278  1.0000
  C   C1071     1.0  0.06713  0.52463  0.70346  1.0000
  C   C1072     1.0  0.07210  0.53718  0.70106  1.0000
  H   H1253     1.0  0.06855  0.55144  0.66676  1.0000
  H   H1254     1.0  0.05927  0.52969  0.67124  1.0000
  H   H1255     1.0  0.06695  0.51702  0.71362  1.0000
  H   H1256     1.0  0.07565  0.53933  0.70938  1.0000
  H   H1257     1.0  0.08610  0.53858  0.49969  1.0000
  H   H1258     1.0  0.18678  0.40057  0.80361  1.0000
  C   C1073     1.0  0.04035  0.44353  0.82336  1.0000
  H   H1259     1.0  0.03027  0.43982  0.70806  1.0000
  H   H1260     1.0  0.14005  0.44602  0.94839  1.0000
  H   H1261     1.0  0.02250  0.55165  0.68464  1.0000
  C   C1074     1.0  0.20273  0.51956  0.96454  1.0000
  H   H1262     1.0  0.01345  0.39390  0.86249  1.0000
  S   S324      1.0  0.27628  0.39533  0.90546  1.0000
  C   C1075     1.0  0.17029  0.41047  0.83830  1.0000
  H   H1263     1.0  0.16477  0.42714  0.82030  1.0000
  S   S325      1.0  0.30912  0.57702  0.96308  1.0000
  H   H1264     1.0  0.14969  0.41430  0.81445  1.0000
  C   C1076     1.0  0.34422  0.52911  0.96900  1.0000
  H   H1265     1.0  0.30597  0.41786  0.91556  1.0000
  C   C1077     1.0  0.07182  0.42440  0.68487  1.0000
  H   H1266     1.0  0.22024  0.57596  0.86923  1.0000
  H   H1267     1.0  0.19137  0.39864  0.92530  1.0000
  H   H1268     1.0  0.05912  0.40144  0.68184  1.0000
  C   C1078     1.0  0.07766  0.41289  0.69494  1.0000
  H   H1269     1.0  0.36531  0.52405  0.97373  1.0000
  C   C1079     1.0  0.01553  0.45605  0.83126  1.0000
  C   C1080     1.0  0.20056  0.39630  0.93021  1.0000
  C   C1081     1.0  0.36125  0.54477  0.95957  1.0000
  C   C1082     1.0  0.24034  0.53962  0.85636  1.0000
  S   S326      1.0  0.21253  0.41670  0.85995  1.0000
  N   N70       1.0  0.15561  0.49935  0.76842  1.0000
  C   C1083     1.0  0.16180  0.51193  0.76643  1.0000
  C   C1084     1.0  0.14325  0.49920  0.78099  1.0000
  C   C1085     1.0  0.16699  0.48623  0.77178  1.0000
  C   C1086     1.0  0.15032  0.50042  0.75562  1.0000
  C   C1087     1.0  0.13970  0.51258  0.75095  1.0000
  C   C1088     1.0  0.15517  0.48954  0.74765  1.0000
  C   C1089     1.0  0.13433  0.51387  0.73903  1.0000
  C   C1090     1.0  0.14974  0.49094  0.73569  1.0000
  C   C1091     1.0  0.13934  0.50307  0.73140  1.0000
  Fe  Fe159     1.0  0.11930  0.48612  0.97834  1.0000
  H   H1270     1.0  0.15356  0.52223  0.76548  1.0000
  Fe  Fe160     1.0  0.01836  0.39643  0.64268  1.0000
  C   C1092     1.0  0.03252  0.41073  0.85653  1.0000
  H   H1271     1.0  0.14685  0.49808  0.79087  1.0000
  H   H1272     1.0  0.13809  0.49007  0.78276  1.0000
  H   H1273     1.0  0.17680  0.48569  0.76287  1.0000
  H   H1274     1.0  0.17070  0.48590  0.78145  1.0000
  H   H1275     1.0  0.16280  0.47630  0.77437  1.0000
  H   H1276     1.0  0.13546  0.52123  0.75653  1.0000
  H   H1277     1.0  0.07255  0.56941  0.52917  1.0000
  H   H1278     1.0  0.03068  0.41870  0.84653  1.0000
  H   H1279     1.0  0.06824  0.42981  0.72262  1.0000
  S   S327      1.0  0.05044  0.57373  0.56018  1.0000
  H   H1280     1.0  0.34175  0.48637  0.93455  1.0000
  N   N71       1.0  0.26318  0.44109  0.89871  1.0000
  C   C1093     1.0  0.25051  0.43448  0.90599  1.0000
  C   C1094     1.0  0.25785  0.45683  0.89415  1.0000
  C   C1095     1.0  0.27043  0.43558  0.88551  1.0000
  C   C1096     1.0  0.27282  0.43785  0.90876  1.0000
  C   C1097     1.0  0.28672  0.42828  0.90712  1.0000
  C   C1098     1.0  0.26808  0.44379  0.92108  1.0000
  C   C1099     1.0  0.29545  0.42531  0.91694  1.0000
  C   C1100     1.0  0.27689  0.44072  0.93083  1.0000
  C   C1101     1.0  0.29057  0.43154  0.92874  1.0000
  H   H1281     1.0  0.24323  0.43610  0.89865  1.0000
  S   S328      1.0  0.16294  0.41688  0.91273  1.0000
  H   H1282     1.0  0.24373  0.43915  0.91525  1.0000
  H   H1283     1.0  0.25071  0.46178  0.90308  1.0000
  H   H1284     1.0  0.04748  0.43596  0.81713  1.0000
  H   H1285     1.0  0.26706  0.46235  0.88940  1.0000
  H   H1286     1.0  0.27370  0.42367  0.88789  1.0000
  C   C1102     1.0  0.03106  0.42834  0.71034  1.0000
  H   H1287     1.0  0.28026  0.43995  0.87970  1.0000
  H   H1288     1.0  0.29104  0.42269  0.89849  1.0000
  H   H1289     1.0  0.25743  0.45073  0.92335  1.0000
  H   H1290     1.0  0.02968  0.41857  0.54968  1.0000
  H   H1291     1.0  0.27306  0.44541  0.94014  1.0000
  H   H1292     1.0  0.29735  0.42906  0.93637  1.0000
  N   N72       1.0  0.10180  0.48814  0.76508  1.0000
  C   C1103     1.0  0.09018  0.48163  0.77576  1.0000
  C   C1104     1.0  0.11611  0.47833  0.76637  1.0000
  C   C1105     1.0  0.10151  0.50161  0.76886  1.0000
  C   C1106     1.0  0.09958  0.49031  0.75051  1.0000
  C   C1107     1.0  0.09946  0.47844  0.74540  1.0000
  C   C1108     1.0  0.09745  0.50402  0.74103  1.0000
  C   C1109     1.0  0.09712  0.48023  0.73178  1.0000
  C   C1110     1.0  0.09517  0.50568  0.72743  1.0000
  C   C1111     1.0  0.09492  0.49383  0.72283  1.0000
  H   H1293     1.0  0.09053  0.47074  0.77468  1.0000
  H   H1294     1.0  0.09125  0.48023  0.78688  1.0000
  H   H1295     1.0  0.07922  0.48842  0.77476  1.0000
  H   H1296     1.0  0.11866  0.47725  0.77682  1.0000
  H   H1297     1.0  0.12502  0.48229  0.75781  1.0000
  H   H1298     1.0  0.11650  0.46724  0.76578  1.0000
  H   H1299     1.0  0.09088  0.50941  0.76847  1.0000
  H   H1300     1.0  0.10315  0.49965  0.77988  1.0000
  H   H1301     1.0  0.11024  0.50695  0.76156  1.0000
  H   H1302     1.0  0.10112  0.46767  0.75195  1.0000
  H   H1303     1.0  0.09743  0.51368  0.74387  1.0000
  H   H1304     1.0  0.09696  0.47102  0.72815  1.0000
  H   H1305     1.0  0.09352  0.51626  0.72041  1.0000
  H   H1306     1.0  0.09298  0.49522  0.71232  1.0000
  N   N73       1.0  0.02468  0.53695  0.72693  1.0000
  C   C1112     1.0  0.03096  0.54449  0.71235  1.0000
  C   C1113     1.0  0.03553  0.52383  0.73143  1.0000
  C   C1114     1.0  0.41790  0.42518  0.98522  1.0000
  C   C1115     1.0  0.01466  0.56545  0.75553  1.0000
  H   H1307     1.0  0.17387  0.52554  0.96537  1.0000
  C   C1116     1.0  0.03197  0.55243  0.73847  1.0000
  H   H1308     1.0  0.44843  0.46033  0.97500  1.0000
  H   H1309     1.0  0.21197  0.40795  0.83228  1.0000
  C   C1117     1.0  0.01284  0.42587  0.86990  1.0000
  H   H1310     1.0  0.03354  0.53773  0.70442  1.0000
  C   C1118     1.0  0.07232  0.55810  0.53015  1.0000
  H   H1311     1.0  0.01501  0.58905  0.72455  1.0000
  C   C1119     1.0  0.00769  0.39967  0.54504  1.0000
  H   H1312     1.0  0.03848  0.51638  0.72406  1.0000
  H   H1313     1.0  0.34129  0.51939  0.97594  1.0000
  C   C1120     1.0  0.06483  0.43758  0.68842  1.0000
  S   S329      1.0  0.37687  0.54953  0.96000  1.0000
  H   H1314     1.0  0.08923  0.57771  0.50867  1.0000
  S   S330      1.0  0.03955  0.39540  0.64734  1.0000
  H   H1315     1.0  0.04303  0.55007  0.73242  1.0000
  H   H1316     1.0  0.10897  0.54612  0.52152  1.0000
  Fe  Fe161     1.0  0.37506  0.41281  0.97776  1.0000
  Fe  Fe162     1.0  0.38612  0.53690  0.97898  1.0000
  C   C1121     1.0  0.39124  0.58578  0.96849  1.0000
  C   C1122     1.0  0.33438  0.53920  0.96143  1.0000
  H   H1317     1.0  0.17116  0.48351  0.95591  1.0000
  H   H1318     1.0  0.03611  0.56766  0.66183  1.0000
  C   C1123     1.0  0.32433  0.41709  0.96576  1.0000
  C   C1124     1.0  0.15490  0.40940  0.82338  1.0000
  H   H1319     1.0  0.32441  0.48855  0.97246  1.0000
  S   S331      1.0  0.08285  0.58987  0.70109  1.0000
  N   N74       1.0  0.10048  0.49874  0.90691  1.0000
  C   C1125     1.0  0.10256  0.50356  0.91878  1.0000
  C   C1126     1.0  0.09851  0.51150  0.89500  1.0000
  C   C1127     1.0  0.08682  0.49342  0.91180  1.0000
  C   C1128     1.0  0.11298  0.48706  0.90292  1.0000
  C   C1129     1.0  0.12245  0.48814  0.88914  1.0000
  C   C1130     1.0  0.11602  0.47404  0.91306  1.0000
  C   C1131     1.0  0.13404  0.47678  0.88580  1.0000
  C   C1132     1.0  0.12761  0.46275  0.90965  1.0000
  C   C1133     1.0  0.13662  0.46410  0.89603  1.0000
  H   H1320     1.0  0.11332  0.50644  0.91613  1.0000
  H   H1321     1.0  0.09402  0.51309  0.92137  1.0000
  H   H1322     1.0  0.10187  0.49518  0.92887  1.0000
  H   H1323     1.0  0.10817  0.51640  0.89115  1.0000
  H   H1324     1.0  0.08900  0.52004  0.89827  1.0000
  H   H1325     1.0  0.09648  0.50874  0.88582  1.0000
  H   H1326     1.0  0.08670  0.48488  0.92176  1.0000
  H   H1327     1.0  0.07710  0.50207  0.91428  1.0000
  H   H1328     1.0  0.08519  0.48886  0.90360  1.0000
  H   H1329     1.0  0.12112  0.49764  0.88070  1.0000
  H   H1330     1.0  0.10942  0.47255  0.92377  1.0000
  H   H1331     1.0  0.14102  0.47786  0.87518  1.0000
  H   H1332     1.0  0.12951  0.45285  0.91759  1.0000
  H   H1333     1.0  0.14551  0.45521  0.89343  1.0000
  N   N75       1.0  0.06103  0.44671  0.83201  1.0000
  C   C1134     1.0  0.06226  0.43965  0.84692  1.0000
  C   C1135     1.0  0.07075  0.43700  0.82266  1.0000
  C   C1136     1.0  0.06654  0.46007  0.82776  1.0000
  C   C1137     1.0  0.04556  0.45006  0.83127  1.0000
  C   C1138     1.0  0.03504  0.45963  0.83921  1.0000
  C   C1139     1.0  0.02028  0.46261  0.83912  1.0000
  H   H1334     1.0  0.05742  0.43007  0.85087  1.0000
  H   H1335     1.0  0.07381  0.43622  0.84794  1.0000
  H   H1336     1.0  0.05662  0.44692  0.85437  1.0000
  H   H1337     1.0  0.07044  0.44171  0.81122  1.0000
  H   H1338     1.0  0.06801  0.42627  0.82582  1.0000
  H   H1339     1.0  0.08231  0.43505  0.82325  1.0000
  H   H1340     1.0  0.06110  0.46729  0.83530  1.0000
  H   H1341     1.0  0.07835  0.45772  0.82772  1.0000
  H   H1342     1.0  0.06512  0.46612  0.81687  1.0000
  H   H1343     1.0  0.03814  0.46475  0.84574  1.0000
  H   H1344     1.0  0.44337  0.43686  0.97823  1.0000
  C   C1140     1.0  0.26454  0.52250  0.86688  1.0000
  C   C1141     1.0  0.07158  0.39346  0.84802  1.0000
  H   H1345     1.0  0.11244  0.54444  0.95363  1.0000
  H   H1346     1.0  0.34653  0.41889  0.95661  1.0000
  H   H1347     1.0  0.21635  0.49216  0.96110  1.0000
  C   C1142     1.0  0.10223  0.58156  0.61702  1.0000
  H   H1348     1.0  0.21750  0.47425  0.94832  1.0000
  C   C1143     1.0  0.06518  0.39443  0.87681  1.0000
  H   H1349     1.0  0.01497  0.52553  0.71803  1.0000
  C   C1144     1.0  0.00699  0.54981  0.74589  1.0000
  H   H1350     1.0  0.20703  0.49652  0.98591  1.0000
  C   C1145     1.0  0.10032  0.57564  0.64640  1.0000
  H   H1351     1.0  0.13519  0.50415  0.72211  1.0000
  C   C1146     1.0  0.09803  0.56571  0.64027  1.0000
  N   N76       1.0  0.04190  0.57033  0.63280  1.0000
  C   C1147     1.0  0.09900  0.56867  0.62560  1.0000
  H   H1352     1.0  0.40759  0.42016  0.96562  1.0000
  C   C1148     1.0  0.43710  0.44605  0.97213  1.0000
  H   H1353     1.0  0.05812  0.44965  0.70470  1.0000
  C   C1149     1.0  0.04899  0.40422  0.67782  1.0000
  H   H1354     1.0  0.00674  0.41137  0.85272  1.0000
  C   C1150     1.0  0.00703  0.56708  0.67334  1.0000
  Fe  Fe163     1.0  0.09468  0.39973  0.81644  1.0000
  C   C1151     1.0  0.42150  0.47070  0.95687  1.0000
  H   H1355     1.0  0.34247  0.49071  0.96984  1.0000
  H   H1356     1.0  0.09926  0.57290  0.65786  1.0000
  C   C1152     1.0  0.09411  0.40685  0.72412  1.0000
  H   H1357     1.0  0.09539  0.55573  0.64700  1.0000
  C   C1153     1.0  0.24317  0.39811  0.88771  1.0000
  H   H1358     1.0  0.09724  0.56095  0.62087  1.0000
  N   N77       1.0  0.04138  0.48230  0.61069  1.0000
  C   C1154     1.0  0.05546  0.47814  0.61509  1.0000
  C   C1155     1.0  0.03283  0.47140  0.61937  1.0000
  C   C1156     1.0  0.04425  0.48156  0.59551  1.0000
  C   C1157     1.0  0.03398  0.49711  0.61233  1.0000
  C   C1158     1.0  0.02014  0.50044  0.62163  1.0000
  C   C1159     1.0  0.04069  0.50875  0.60457  1.0000
  H   H1359     1.0  0.27383  0.51579  0.87113  1.0000
  H   H1360     1.0  0.01421  0.40706  0.91143  1.0000
  H   H1361     1.0  0.01571  0.53646  0.61703  1.0000
  H   H1362     1.0  0.05388  0.47876  0.62639  1.0000
  H   H1363     1.0  0.06127  0.46698  0.61418  1.0000
  H   H1364     1.0  0.06304  0.48515  0.60849  1.0000
  H   H1365     1.0  0.03102  0.47073  0.63104  1.0000
  H   H1366     1.0  0.03860  0.46045  0.61768  1.0000
  H   H1367     1.0  0.02216  0.47364  0.61650  1.0000
  H   H1368     1.0  0.05193  0.48827  0.58842  1.0000
  H   H1369     1.0  0.04928  0.47039  0.59403  1.0000
  H   H1370     1.0  0.03400  0.48522  0.59159  1.0000
  H   H1371     1.0  0.17396  0.39191  0.85530  1.0000
  H   H1372     1.0  0.05129  0.50707  0.59745  1.0000
  C   C1160     1.0  0.31487  0.40450  0.95409  1.0000
  S   S332      1.0  0.31673  0.53699  0.96416  1.0000
  H   H1373     1.0  0.10910  0.44550  0.90105  1.0000
  Fe  Fe164     1.0  0.27882  0.57839  0.94471  1.0000
  S   S333      1.0  0.18111  0.42003  0.84176  1.0000
  H   H1374     1.0  0.13476  0.50924  0.78000  1.0000
  Fe  Fe165     1.0  0.21080  0.40000  0.88043  1.0000
  H   H1375     1.0  0.01208  0.57312  0.76219  1.0000
  C   C1161     1.0  0.41823  0.45743  0.95877  1.0000
  S   S334      1.0  0.00941  0.58154  0.67834  1.0000
  C   C1162     1.0  0.19267  0.49945  0.96553  1.0000
  C   C1163     1.0  0.04432  0.57359  0.65597  1.0000
  H   H1376     1.0  0.18876  0.48232  0.90569  1.0000
  H   H1377     1.0  0.05139  0.39867  0.66896  1.0000
  H   H1378     1.0  0.25348  0.56022  0.88101  1.0000
  C   C1164     1.0  0.03403  0.52279  0.60609  1.0000
  C   C1165     1.0  0.02553  0.44655  0.82339  1.0000
  N   N78       1.0  0.24067  0.56017  0.86646  1.0000
  C   C1166     1.0  0.02324  0.40463  0.68396  1.0000
  H   H1379     1.0  0.20146  0.52894  0.96909  1.0000
  H   H1380     1.0  0.04415  0.56689  0.61184  1.0000
  H   H1381     1.0  0.03070  0.40376  0.88489  1.0000
  C   C1167     1.0  0.38285  0.48530  0.97382  1.0000
  H   H1382     1.0  0.15368  0.48259  0.72966  1.0000
  C   C1168     1.0  0.02023  0.41418  0.55154  1.0000
  H   H1383     1.0  0.12748  0.58759  0.64592  1.0000
  S   S335      1.0  0.32186  0.42622  0.97924  1.0000
  H   H1384     1.0  0.12025  0.39672  0.84827  1.0000
  C   C1169     1.0  0.19913  0.40178  0.94200  1.0000
  C   C1170     1.0  0.24637  0.54529  0.86433  1.0000
  H   H1385     1.0  0.01245  0.46994  0.84529  1.0000
  H   H1386     1.0  0.10172  0.52566  0.97397  1.0000
  C   C1171     1.0  0.01192  0.53237  0.72596  1.0000
  C   C1172     1.0  0.07629  0.40335  0.85213  1.0000
  H   H1387     1.0  0.02098  0.57537  0.62740  1.0000
  C   C1173     1.0  0.08787  0.55681  0.50685  1.0000
  H   H1388     1.0  0.11427  0.58399  0.66235  1.0000
  H   H1389     1.0  0.12625  0.52337  0.73570  1.0000
  H   H1390     1.0  0.08447  0.53033  0.53782  1.0000
  H   H1391     1.0  0.04639  0.57739  0.67537  1.0000
  C   C1174     1.0  0.06054  0.58732  0.65692  1.0000
  C   C1175     1.0  0.00563  0.54422  0.66317  1.0000
  N   N79       1.0  0.08298  0.40253  0.71986  1.0000
  C   C1176     1.0  0.18090  0.48568  0.95708  1.0000
  H   H1392     1.0  0.46965  0.59067  0.94383  1.0000
  C   C1177     1.0  0.20121  0.39397  0.81812  1.0000
  H   H1393     1.0  0.20898  0.40341  0.95749  1.0000
  H   H1394     1.0  0.16930  0.51473  0.98323  1.0000
  C   C1178     1.0  0.35175  0.55446  0.95141  1.0000
  C   C1179     1.0  0.41015  0.43092  0.96318  1.0000
  C   C1180     1.0  0.33195  0.49583  0.96654  1.0000
  H   H1395     1.0  0.04906  0.58268  0.61166  1.0000
  C   C1181     1.0  0.44017  0.45941  0.97028  1.0000
  C   C1182     1.0  0.24205  0.56136  0.88049  1.0000
  H   H1396     1.0  0.12613  0.52129  0.96100  1.0000
  H   H1397     1.0  0.10504  0.40491  0.86050  1.0000
  H   H1398     1.0  0.30249  0.41365  0.97221  1.0000
  C   C1183     1.0  0.03913  0.57997  0.50144  1.0000
  C   C1184     1.0  0.10364  0.58889  0.63798  1.0000
  H   H1399     1.0  0.31351  0.51472  0.95173  1.0000
  H   H1400     1.0  0.37665  0.49277  0.96640  1.0000
  H   H1401     1.0  0.39178  0.57936  0.96081  1.0000
  N   N80       1.0  0.13752  0.44940  0.85417  1.0000
  C   C1185     1.0  0.12701  0.46300  0.85013  1.0000
  C   C1186     1.0  0.15213  0.45271  0.85029  1.0000
  C   C1187     1.0  0.13747  0.43959  0.84551  1.0000
  C   C1188     1.0  0.13409  0.44239  0.86952  1.0000
  C   C1189     1.0  0.12150  0.44788  0.87928  1.0000
  C   C1190     1.0  0.14349  0.42957  0.87510  1.0000
  C   C1191     1.0  0.11873  0.44108  0.89375  1.0000
  C   C1192     1.0  0.14060  0.42286  0.88958  1.0000
  C   C1193     1.0  0.03449  0.40670  0.70153  1.0000
  H   H1402     1.0  0.13008  0.46811  0.83858  1.0000
  H   H1403     1.0  0.11596  0.46113  0.85194  1.0000
  H   H1404     1.0  0.12641  0.47099  0.85623  1.0000
  H   H1405     1.0  0.15281  0.45958  0.85699  1.0000
  H   H1406     1.0  0.15497  0.45833  0.83888  1.0000
  H   H1407     1.0  0.16093  0.44295  0.85156  1.0000
  H   H1408     1.0  0.12649  0.43734  0.84768  1.0000
  H   H1409     1.0  0.14071  0.44420  0.83386  1.0000
  H   H1410     1.0  0.14519  0.42917  0.84778  1.0000
  H   H1411     1.0  0.11366  0.45746  0.87608  1.0000
  H   H1412     1.0  0.15325  0.42469  0.86832  1.0000
  C   C1194     1.0  0.20702  0.48036  0.95289  1.0000
  C   C1195     1.0  0.43512  0.42004  0.96374  1.0000
  H   H1413     1.0  0.03126  0.51790  0.74239  1.0000
  H   H1414     1.0  0.00542  0.39365  0.51400  1.0000
  C   C1196     1.0  0.16348  0.41664  0.82670  1.0000
  S   S336      1.0  0.36795  0.46612  0.97360  1.0000
  C   C1197     1.0  0.21091  0.39881  0.94840  1.0000
  C   C1198     1.0  0.35772  0.53186  0.96797  1.0000
  H   H1415     1.0  0.00347  0.51675  0.63086  1.0000
  H   H1416     1.0  0.03422  0.42841  0.68850  1.0000
  C   C1199     1.0  0.35852  0.50367  0.94490  1.0000
  H   H1417     1.0  0.39473  0.50056  0.97340  1.0000
  H   H1418     1.0  0.30604  0.40052  0.95337  1.0000
  H   H1419     1.0  0.17070  0.51287  0.75667  1.0000
  Fe  Fe166     1.0  0.34304  0.42599  0.98373  1.0000
  H   H1420     1.0  0.16320  0.47989  0.75039  1.0000
  C   C1200     1.0  0.33931  0.48469  0.94639  1.0000
  H   H1421     1.0  0.14927  0.50615  0.91016  1.0000
  H   H1422     1.0  0.13245  0.52618  0.89895  1.0000
  H   H1423     1.0  0.00230  0.39309  0.60694  1.0000
  H   H1424     1.0  0.25485  0.41231  0.88973  1.0000
  H   H1425     1.0  0.04135  0.54726  0.71165  1.0000
  H   H1426     1.0  0.02757  0.42560  0.73306  1.0000
  C   C1201     1.0  0.18045  0.49079  0.90060  1.0000
  C   C1202     1.0  0.14912  0.50674  0.89928  1.0000
  C   C1203     1.0  0.13945  0.51835  0.89288  1.0000
  H   H1427     1.0  0.18627  0.49654  0.89026  1.0000
  H   H1428     1.0  0.17552  0.49862  0.90759  1.0000
  C   C1204     1.0  0.33834  0.55166  0.95231  1.0000
  H   H1429     1.0  0.24832  0.56922  0.84425  1.0000
  C   C1205     1.0  0.25512  0.54403  0.91606  1.0000
  H   H1430     1.0  0.23263  0.55512  0.91838  1.0000
  C   C1206     1.0  0.31882  0.50463  0.94783  1.0000
  H   H1431     1.0  0.26230  0.50628  0.85782  1.0000
  S   S337      1.0  0.09420  0.41387  0.79475  1.0000
  C   C1207     1.0  0.11628  0.39814  0.85947  1.0000
  H   H1432     1.0  0.26305  0.43853  0.87798  1.0000
  S   S338      1.0  0.12145  0.46468  0.97391  1.0000
  Fe  Fe167     1.0  0.12729  0.39608  0.81287  1.0000
  H   H1433     1.0  0.04122  0.41312  0.85997  1.0000
  H   H1434     1.0  0.13190  0.52933  0.87356  1.0000
  N   N81       1.0  0.33358  0.49859  0.95087  1.0000
  C   C1208     1.0  0.24313  0.55479  0.92005  1.0000
  C   C1209     1.0  0.02231  0.40113  0.88121  1.0000
  C   C1210     1.0  0.07283  0.40403  0.86652  1.0000
  H   H1435     1.0  0.16629  0.51128  0.77570  1.0000
  C   C1211     1.0  0.13915  0.52016  0.87864  1.0000
  C   C1212     1.0  0.02950  0.42037  0.72436  1.0000
  H   H1436     1.0  0.03941  0.53149  0.60010  1.0000
  C   C1213     1.0  0.15873  0.49646  0.89161  1.0000
  H   H1437     1.0  0.10293  0.58386  0.60559  1.0000
  S   S339      1.0  0.03073  0.39638  0.58958  1.0000
  N   N82       1.0  0.16940  0.48467  0.89839  1.0000
  H   H1438     1.0  0.32861  0.52682  0.93388  1.0000
  H   H1439     1.0  0.25410  0.42271  0.91001  1.0000
  H   H1440     1.0  0.14803  0.41321  0.89368  1.0000
  H   H1441     1.0  0.21844  0.55779  0.87298  1.0000
  H   H1442     1.0  0.15777  0.48387  0.92049  1.0000
  H   H1443     1.0  0.18434  0.47815  0.87960  1.0000
  H   H1444     1.0  0.39408  0.57803  0.97829  1.0000
  H   H1445     1.0  0.31921  0.50693  0.93620  1.0000
  H   H1446     1.0  0.23547  0.57373  0.92886  1.0000
  C   C1214     1.0  0.24476  0.56534  0.92601  1.0000
  H   H1447     1.0  0.23616  0.57195  0.88306  1.0000
  H   H1448     1.0  0.26092  0.56626  0.85524  1.0000
  C   C1215     1.0  0.16211  0.47708  0.91249  1.0000
  C   C1216     1.0  0.17709  0.47372  0.88972  1.0000
  C   C1217     1.0  0.15817  0.49866  0.87710  1.0000
  C   C1218     1.0  0.14848  0.51033  0.87079  1.0000
  H   H1449     1.0  0.16984  0.46774  0.91737  1.0000
  H   H1450     1.0  0.18431  0.46453  0.89547  1.0000
  C   C1219     1.0  0.34383  0.50819  0.94354  1.0000
  H   H1451     1.0  0.09550  0.52835  0.52056  1.0000
  H   H1452     1.0  0.08291  0.40299  0.69144  1.0000
  H   H1453     1.0  0.25108  0.45954  0.88610  1.0000
  H   H1454     1.0  0.01428  0.49233  0.62818  1.0000
  C   C1220     1.0  0.26868  0.54385  0.91830  1.0000
  H   H1455     1.0  0.16932  0.46921  0.88708  1.0000
  C   C1221     1.0  0.33961  0.52222  0.93525  1.0000
  C   C1222     1.0  0.03006  0.40574  0.72719  1.0000
  S   S340      1.0  0.03006  0.57256  0.49347  1.0000
  S   S341      1.0  0.08386  0.57871  0.55052  1.0000
  N   N83       1.0  0.11764  0.53658  0.97445  1.0000
  Fe  Fe168     1.0  0.07161  0.56306  0.56668  1.0000
  C   C1223     1.0  0.00887  0.40528  0.86338  1.0000
  C   C1224     1.0  0.04140  0.55503  0.63910  1.0000
  H   H1456     1.0  0.27804  0.53564  0.91520  1.0000
  H   H1457     1.0  0.15304  0.47307  0.91155  1.0000
  C   C1225     1.0  0.16866  0.39685  0.84645  1.0000
  C   C1226     1.0  0.07672  0.41435  0.70895  1.0000
  H   H1458     1.0  0.03886  0.58438  0.53409  1.0000
  N   N84       1.0  0.01892  0.41103  0.86777  1.0000
  N   N85       1.0  0.19212  0.51054  0.97300  1.0000
  C   C1227     1.0  0.11232  0.39630  0.90391  1.0000
  H   H1459     1.0  0.36248  0.49316  0.95103  1.0000
  S   S342      1.0  0.33137  0.39239  0.93141  1.0000
  C   C1228     1.0  0.02110  0.54638  0.73710  1.0000
  H   H1460     1.0  0.02843  0.40525  0.53316  1.0000
  H   H1461     1.0  0.06033  0.44647  0.68058  1.0000
  C   C1229     1.0  0.06536  0.58960  0.64213  1.0000
  H   H1462     1.0  0.07579  0.53339  0.52349  1.0000
  H   H1463     1.0  0.16536  0.49173  0.87024  1.0000
  H   H1464     1.0  0.02064  0.41639  0.67964  1.0000
  H   H1465     1.0  0.19991  0.39203  0.85307  1.0000
  C   C1230     1.0  0.00941  0.41821  0.91160  1.0000
  C   C1231     1.0  0.34950  0.53115  0.92896  1.0000
  S   S343      1.0  0.06741  0.57430  0.58431  1.0000
  C   C1232     1.0  0.20622  0.49082  0.96004  1.0000
  C   C1233     1.0  0.02050  0.43243  0.87536  1.0000
  H   H1466     1.0  0.22327  0.56761  0.85491  1.0000
  H   H1467     1.0  0.02332  0.55467  0.70870  1.0000
  H   H1468     1.0  0.35453  0.56437  0.94471  1.0000
  H   H1469     1.0  0.44755  0.59098  0.93654  1.0000
  H   H1470     1.0  0.07011  0.55314  0.54179  1.0000
  C   C1234     1.0  0.12833  0.42870  0.89892  1.0000
  C   C1235     1.0  0.27025  0.55423  0.92453  1.0000
  H   H1471     1.0  0.39995  0.43828  0.96739  1.0000
  C   C1236     1.0  0.03234  0.39900  0.71600  1.0000
  S   S344      1.0  0.12956  0.40965  0.79039  1.0000
  S   S345      1.0  0.02056  0.41452  0.62330  1.0000
  H   H1472     1.0  0.03713  0.56656  0.74822  1.0000
  Fe  Fe169     1.0  0.30607  0.58959  0.94142  1.0000
  C   C1237     1.0  0.39297  0.48981  0.97796  1.0000
  C   C1238     1.0  0.25831  0.56513  0.92832  1.0000
  C   C1239     1.0  0.36825  0.51275  0.93872  1.0000
  H   H1473     1.0  0.02163  0.53551  0.49323  1.0000
  C   C1240     1.0  0.17995  0.49636  0.96407  1.0000
  H   H1474     1.0  0.21421  0.51367  0.96408  1.0000
  C   C1241     1.0  0.04946  0.57134  0.61757  1.0000
  H   H1475     1.0  0.06099  0.56531  0.61646  1.0000
  H   H1476     1.0  0.33102  0.55924  0.94599  1.0000
  C   C1242     1.0  0.36372  0.52650  0.93084  1.0000
  H   H1477     1.0  0.37929  0.50924  0.94030  1.0000
  N   N86       1.0  0.42225  0.43051  0.96954  1.0000
  C   C1243     1.0  0.05985  0.58370  0.63421  1.0000
  C   C1244     1.0  0.06361  0.43934  0.70205  1.0000
  S   S346      1.0  0.02562  0.58956  0.59252  1.0000
  C   C1245     1.0  0.06943  0.42792  0.71220  1.0000
  C   C1246     1.0  0.08546  0.53490  0.52611  1.0000
  H   H1478     1.0  0.09870  0.56258  0.52667  1.0000
  H   H1479     1.0  0.05243  0.54835  0.64002  1.0000
  C   C1247     1.0  0.42590  0.44465  0.96659  1.0000
  H   H1480     1.0  0.12626  0.42363  0.91022  1.0000
  H   H1481     1.0  0.02657  0.57353  0.52269  1.0000
  H   H1482     1.0  0.03411  0.55342  0.64983  1.0000
  H   H1483     1.0  0.01239  0.40133  0.89001  1.0000
  H   H1484     1.0  0.28074  0.55397  0.92614  1.0000
  H   H1485     1.0  0.13953  0.52887  0.96317  1.0000
  C   C1248     1.0  0.01950  0.40633  0.54230  1.0000
  Fe  Fe170     1.0  0.28519  0.58451  0.97056  1.0000
  C   C1249     1.0  0.03509  0.57900  0.51622  1.0000
  C   C1250     1.0  0.12933  0.52508  0.96885  1.0000
  Fe  Fe171     1.0  0.30361  0.55922  0.95770  1.0000
  C   C1251     1.0  0.33768  0.41490  0.95600  1.0000
  H   H1486     1.0  0.41292  0.43439  0.95132  1.0000
  C   C1252     1.0  0.03345  0.42165  0.69910  1.0000
  C   C1253     1.0  0.08761  0.54942  0.49670  1.0000
  H   H1487     1.0  0.07280  0.42314  0.67420  1.0000
  C   C1254     1.0  0.17757  0.52038  0.97554  1.0000
  H   H1488     1.0  0.04582  0.52631  0.73150  1.0000
  H   H1489     1.0  0.04680  0.41581  0.67272  1.0000
  H   H1490     1.0  0.02407  0.39942  0.67523  1.0000
  H   H1491     1.0  0.23761  0.55302  0.88930  1.0000
  H   H1492     1.0  0.31142  0.49713  0.95333  1.0000
  S   S347      1.0  0.27982  0.56549  0.96702  1.0000
  H   H1493     1.0  0.13168  0.51550  0.97750  1.0000
  C   C1255     1.0  0.02686  0.57901  0.63326  1.0000
  H   H1494     1.0  0.06288  0.55829  0.52600  1.0000
  H   H1495     1.0  0.04115  0.58764  0.72277  1.0000
  H   H1496     1.0  0.41523  0.48038  0.95127  1.0000
  C   C1256     1.0  0.25890  0.53639  0.86923  1.0000
  S   S348      1.0  0.06046  0.39546  0.89466  1.0000
  H   H1497     1.0  0.24081  0.52148  0.84850  1.0000
  H   H1498     1.0  0.03707  0.55051  0.63258  1.0000
  C   C1257     1.0  0.24916  0.56961  0.85499  1.0000
  C   C1258     1.0  0.02874  0.56182  0.74756  1.0000
  H   H1499     1.0  0.09754  0.54607  0.53913  1.0000
  C   C1259     1.0  0.04897  0.57563  0.64092  1.0000
  S   S349      1.0  0.25991  0.57901  0.93535  1.0000
  C   C1260     1.0  0.33954  0.40778  0.94518  1.0000
  H   H1500     1.0  0.43256  0.40938  0.96545  1.0000
  H   H1501     1.0  0.14030  0.42988  0.93343  1.0000
  C   C1261     1.0  0.15021  0.43288  0.93291  1.0000
  C   C1262     1.0  0.22504  0.56558  0.86587  1.0000
  H   H1502     1.0  0.26441  0.53989  0.87510  1.0000
  H   H1503     1.0  0.24646  0.40357  0.93425  1.0000
  C   C1263     1.0  0.08957  0.57118  0.50154  1.0000
  H   H1504     1.0  0.01790  0.44177  0.66893  1.0000
  H   H1505     1.0  0.03076  0.42671  0.87815  1.0000
  S   S350      1.0  0.39125  0.39712  0.96559  1.0000
  H   H1506     1.0  0.23102  0.54564  0.85192  1.0000
  H   H1507     1.0  0.37115  0.53369  0.92642  1.0000
  C   C1264     1.0  0.05006  0.57930  0.66383  1.0000
  C   C1265     1.0  0.43234  0.47171  0.96272  1.0000
  Fe  Fe172     1.0  0.10351  0.58146  0.70869  1.0000
  Fe  Fe173     1.0  0.07190  0.58661  0.72419  1.0000
  H   H1508     1.0  0.02177  0.44146  0.81729  1.0000
  C   C1266     1.0  0.00384  0.55937  0.75479  1.0000
  H   H1509     1.0  0.43441  0.48212  0.96173  1.0000
  H   H1510     1.0  0.24531  0.58098  0.85605  1.0000
  Fe  Fe174     1.0  0.03170  0.39673  0.61158  1.0000
  H   H1511     1.0  0.33144  0.47755  0.95099  1.0000
  C   C1267     1.0  0.24601  0.52570  0.85414  1.0000
  C   C1268     1.0  0.02065  0.52564  0.61554  1.0000
  H   H1512     1.0  0.11765  0.40198  0.90794  1.0000
  C   C1269     1.0  0.32825  0.40230  0.94438  1.0000
  C   C1270     1.0  0.11467  0.54839  0.96200  1.0000
  C   C1271     1.0  0.36573  0.58632  0.97625  1.0000
  H   H1513     1.0  0.44434  0.41800  0.96892  1.0000
  H   H1514     1.0  0.32302  0.55466  0.98450  1.0000
  H   H1515     1.0  0.00445  0.55381  0.50314  1.0000
  H   H1516     1.0  0.23148  0.40489  0.95923  1.0000
  C   C1272     1.0  0.25388  0.40132  0.89223  1.0000
  H   H1517     1.0  0.02059  0.45085  0.88257  1.0000
  H   H1518     1.0  0.00997  0.42152  0.57101  1.0000
  H   H1519     1.0  0.02038  0.57849  0.64438  1.0000
  H   H1520     1.0  0.22689  0.40039  0.81920  1.0000
  H   H1521     1.0  0.01374  0.40190  0.69254  1.0000
  H   H1522     1.0  0.33975  0.55982  0.98013  1.0000
  C   C1273     1.0  0.01484  0.44629  0.87779  1.0000
  H   H1523     1.0  0.02850  0.39955  0.73813  1.0000
  Fe  Fe175     1.0  0.04698  0.58626  0.57667  1.0000
  H   H1524     1.0  0.03696  0.40000  0.85384  1.0000
  H   H1525     1.0  0.09532  0.39448  0.92294  1.0000
  H   H1526     1.0  0.06220  0.39709  0.72974  1.0000
  C   C1274     1.0  0.15365  0.39559  0.83123  1.0000
  C   C1275     1.0  0.00560  0.40005  0.52144  1.0000
  Fe  Fe176     1.0  0.06223  0.59045  0.54539  1.0000
  H   H1527     1.0  0.14291  0.52770  0.98566  1.0000
  H   H1528     1.0  0.06677  0.40817  0.73840  1.0000
  H   H1529     1.0  0.09469  0.53889  0.98448  1.0000
  C   C1276     1.0  0.04205  0.58512  0.52269  1.0000
  C   C1277     1.0  0.38075  0.47128  0.97923  1.0000
  H   H1530     1.0  0.17764  0.52912  0.98037  1.0000
  C   C1278     1.0  0.07132  0.39928  0.73268  1.0000
  C   C1279     1.0  0.09128  0.57762  0.48699  1.0000
  C   C1280     1.0  0.12140  0.54204  0.98493  1.0000
  H   H1531     1.0  0.20351  0.40454  0.81499  1.0000
  H   H1532     1.0  0.09928  0.39806  0.73209  1.0000
  H   H1533     1.0  0.12738  0.39752  0.88386  1.0000
  C   C1281     1.0  0.05005  0.58719  0.49313  1.0000
  C   C1282     1.0  0.22152  0.39884  0.83075  1.0000
  H   H1534     1.0  0.22932  0.39984  0.83643  1.0000
  H   H1535     1.0  0.37287  0.39367  0.94651  1.0000
  C   C1283     1.0  0.23440  0.39296  0.96220  1.0000
  C   C1284     1.0  0.09972  0.39205  0.91244  1.0000
  H   H1536     1.0  0.00334  0.54178  0.72253  1.0000
  H   H1537     1.0  0.02682  0.59053  0.62827  1.0000
  Fe  Fe177     1.0  0.07756  0.59117  0.56762  1.0000
  S   S351      1.0  0.29012  0.39183  0.93735  1.0000
  C   C1285     1.0  0.19149  0.39186  0.81146  1.0000
  C   C1286     1.0  0.24962  0.39191  0.93896  1.0000
  Fe  Fe178     1.0  0.13276  0.73574  0.46965  1.0000
  S   S352      1.0  0.12964  0.75954  0.46219  1.0000
  H   H1538     1.0  0.44384  0.70128  0.11586  1.0000
  Fe  Fe179     1.0  0.13335  0.73147  0.44027  1.0000
  S   S353      1.0  0.13082  0.75513  0.43059  1.0000
  S   S354      1.0  0.13534  0.71628  0.42603  1.0000
  Fe  Fe180     1.0  0.14682  0.75501  0.44292  1.0000
  S   S355      1.0  0.16411  0.76819  0.43241  1.0000
  Fe  Fe181     1.0  0.11405  0.75765  0.45070  1.0000
  H   H1539     1.0  0.46032  0.69510  0.06273  1.0000
  S   S356      1.0  0.15106  0.73096  0.45095  1.0000
  S   S357      1.0  0.11550  0.73416  0.45976  1.0000
  C   C1287     1.0  0.31010  0.65313  0.01333  1.0000
  C   C1288     1.0  0.42278  0.62361  0.03573  1.0000
  H   H1540     1.0  0.09060  0.73871  0.40753  1.0000
  Fe  Fe182     1.0  0.48278  0.75718  0.08819  1.0000
  S   S358      1.0  0.48260  0.73378  0.09378  1.0000
  H   H1541     1.0  0.30202  0.59432  0.02714  1.0000
  Fe  Fe183     1.0  0.46583  0.76206  0.11737  1.0000
  S   S359      1.0  0.46369  0.73913  0.12545  1.0000
  S   S360      1.0  0.45770  0.78007  0.12924  1.0000
  Fe  Fe184     1.0  0.48725  0.73391  0.11447  1.0000
  H   H1542     1.0  0.50014  0.76390  0.21564  1.0000
  Fe  Fe185     1.0  0.45906  0.74090  0.10404  1.0000
  S   S361      1.0  0.44118  0.73061  0.10361  1.0000
  S   S362      1.0  0.48970  0.75660  0.10782  1.0000
  S   S363      1.0  0.45896  0.76448  0.09698  1.0000
  C   C1289     1.0  0.02417  0.59215  0.30432  1.0000
  C   C1290     1.0  0.43790  0.76779  0.06225  1.0000
  C   C1291     1.0  0.06255  0.61200  0.36998  1.0000
  H   H1543     1.0  0.10954  0.73802  0.40123  1.0000
  H   H1544     1.0  0.43144  0.62485  0.02578  1.0000
  H   H1545     1.0  0.02189  0.59678  0.39464  1.0000
  H   H1546     1.0  0.00958  0.65855  0.41126  1.0000
  H   H1547     1.0  0.46922  0.66183  0.01691  1.0000
  S   S364      1.0  0.48040  0.60998  0.01293  1.0000
  C   C1292     1.0  0.34789  0.65417  0.00586  1.0000
  H   H1548     1.0  0.08879  0.78003  0.42206  1.0000
  H   H1549     1.0  0.41149  0.70820  0.01346  1.0000
  H   H1550     1.0  0.04407  0.63908  0.27797  1.0000
  H   H1551     1.0  0.33502  0.67490  0.01956  1.0000
  Fe  Fe186     1.0  0.41866  0.69408  0.05431  1.0000
  S   S365      1.0  0.41302  0.67643  0.07327  1.0000
  S   S366      1.0  0.42677  0.71397  0.05270  1.0000
  Fe  Fe187     1.0  0.41878  0.67697  0.03320  1.0000
  S   S367      1.0  0.41409  0.65777  0.05027  1.0000
  S   S368      1.0  0.42356  0.67654  0.00994  1.0000
  Fe  Fe188     1.0  0.39761  0.67379  0.06164  1.0000
  S   S369      1.0  0.37642  0.66677  0.07284  1.0000
  Fe  Fe189     1.0  0.42970  0.66174  0.06038  1.0000
  S   S370      1.0  0.44591  0.64467  0.07130  1.0000
  S   S371      1.0  0.40140  0.69309  0.04384  1.0000
  S   S372      1.0  0.43627  0.67929  0.04209  1.0000
  H   H1552     1.0  0.47980  0.63567  0.05585  1.0000
  H   H1553     1.0  0.13672  0.59943  0.16107  1.0000
  Fe  Fe190     1.0  0.33604  0.61994  0.04871  1.0000
  S   S373      1.0  0.31616  0.62181  0.04067  1.0000
  S   S374      1.0  0.34822  0.63802  0.04121  1.0000
  C   C1293     1.0  0.50067  0.60229  0.04022  1.0000
  C   C1294     1.0  0.09967  0.74908  0.42433  1.0000
  Fe  Fe191     1.0  0.32848  0.60202  0.03258  1.0000
  S   S375      1.0  0.33034  0.59969  0.01040  1.0000
  C   C1295     1.0  0.30214  0.64405  0.01217  1.0000
  S   S376      1.0  0.34883  0.60120  0.03896  1.0000
  Fe  Fe192     1.0  0.05981  0.66623  0.40362  1.0000
  S   S377      1.0  0.07544  0.64661  0.39758  1.0000
  S   S378      1.0  0.03599  0.66595  0.41050  1.0000
  Fe  Fe193     1.0  0.08378  0.68159  0.40092  1.0000
  S   S379      1.0  0.10141  0.66332  0.39385  1.0000
  S   S380      1.0  0.08515  0.70120  0.40777  1.0000
  Fe  Fe194     1.0  0.08693  0.66213  0.38041  1.0000
  S   S381      1.0  0.09658  0.65513  0.35932  1.0000
  Fe  Fe195     1.0  0.08851  0.64912  0.41130  1.0000
  S   S382      1.0  0.10005  0.63153  0.42659  1.0000
  S   S383      1.0  0.07036  0.68196  0.38564  1.0000
  S   S384      1.0  0.07176  0.66720  0.41922  1.0000
  H   H1554     1.0  0.43822  0.73903  0.99535  1.0000
  C   C1296     1.0  0.38741  0.60419  0.98730  1.0000
  H   H1555     1.0  0.00617  0.69210  0.38122  1.0000
  H   H1556     1.0  0.47618  0.70172  0.11362  1.0000
  H   H1557     1.0  0.28215  0.63094  0.98712  1.0000
  H   H1558     1.0  0.46634  0.70962  0.09989  1.0000
  Fe  Fe196     1.0  0.06715  0.61127  0.32248  1.0000
  S   S385      1.0  0.05963  0.63067  0.33244  1.0000
  C   C1297     1.0  0.02572  0.61960  0.45915  1.0000
  S   S386      1.0  0.05418  0.60894  0.30827  1.0000
  H   H1559     1.0  0.00467  0.62408  0.29733  1.0000
  C   C1298     1.0  0.08312  0.76698  0.41109  1.0000
  C   C1299     1.0  0.31494  0.59842  0.00569  1.0000
  C   C1300     1.0  0.39727  0.62658  0.04634  1.0000
  C   C1301     1.0  0.06174  0.76977  0.48015  1.0000
  H   H1560     1.0  0.41364  0.63880  0.01189  1.0000
  H   H1561     1.0  0.38604  0.62857  0.04481  1.0000
  C   C1302     1.0  0.01614  0.59398  0.29406  1.0000
  H   H1562     1.0  0.06318  0.76494  0.47094  1.0000
  H   H1563     1.0  0.01475  0.63068  0.40662  1.0000
  C   C1303     1.0  0.44462  0.78697  0.20734  1.0000
  H   H1564     1.0  0.02928  0.59600  0.34943  1.0000
  H   H1565     1.0  0.34065  0.68231  0.99365  1.0000
  H   H1566     1.0  0.26071  0.60107  0.09532  1.0000
  C   C1304     1.0  0.04441  0.63229  0.43404  1.0000
  N   N87       1.0  0.01778  0.64969  0.32237  1.0000
  H   H1567     1.0  0.13816  0.69097  0.44919  1.0000
  C   C1305     1.0  0.09771  0.61417  0.42878  1.0000
  C   C1306     1.0  0.08546  0.61191  0.42599  1.0000
  C   C1307     1.0  0.08317  0.59795  0.42923  1.0000
  H   H1568     1.0  0.02885  0.63213  0.38065  1.0000
  C   C1308     1.0  0.07141  0.76580  0.40610  1.0000
  C   C1309     1.0  0.10797  0.60242  0.43414  1.0000
  H   H1569     1.0  0.07753  0.62091  0.42181  1.0000
  H   H1570     1.0  0.44779  0.71380  0.99266  1.0000
  H   H1571     1.0  0.06816  0.60686  0.36117  1.0000
  H   H1572     1.0  0.11746  0.60412  0.43629  1.0000
  C   C1310     1.0  0.08626  0.64827  0.35195  1.0000
  C   C1311     1.0  0.07108  0.65104  0.35605  1.0000
  C   C1312     1.0  0.06314  0.64571  0.34982  1.0000
  C   C1313     1.0  0.07026  0.63705  0.33990  1.0000
  C   C1314     1.0  0.08546  0.63394  0.33605  1.0000
  C   C1315     1.0  0.09341  0.63969  0.34192  1.0000
  H   H1573     1.0  0.06546  0.65756  0.36378  1.0000
  H   H1574     1.0  0.05139  0.64818  0.35285  1.0000
  H   H1575     1.0  0.09108  0.62742  0.32829  1.0000
  H   H1576     1.0  0.10515  0.63750  0.33867  1.0000
  C   C1316     1.0  0.02880  0.66471  0.39680  1.0000
  C   C1317     1.0  0.03614  0.66782  0.38250  1.0000
  C   C1318     1.0  0.02996  0.66733  0.37164  1.0000
  H   H1577     1.0  0.26726  0.61696  0.02800  1.0000
  C   C1319     1.0  0.03605  0.62697  0.47446  1.0000
  H   H1578     1.0  0.49275  0.78527  0.10995  1.0000
  H   H1579     1.0  0.04646  0.67087  0.37978  1.0000
  H   H1580     1.0  0.03560  0.66999  0.36059  1.0000
  H   H1581     1.0  0.04917  0.77449  0.40400  1.0000
  H   H1582     1.0  0.01843  0.64158  0.34464  1.0000
  H   H1583     1.0  0.43136  0.77109  0.18953  1.0000
  H   H1584     1.0  0.30546  0.65876  0.02190  1.0000
  H   H1585     1.0  0.09258  0.60936  0.35758  1.0000
  H   H1586     1.0  0.07344  0.59627  0.42759  1.0000
  H   H1587     1.0  0.40475  0.64818  0.02584  1.0000
  H   H1588     1.0  0.42627  0.61301  0.04276  1.0000
  C   C1320     1.0  0.29159  0.59452  0.99726  1.0000
  H   H1589     1.0  0.15072  0.74744  0.48094  1.0000
  S   S387      1.0  0.08865  0.60157  0.30950  1.0000
  C   C1321     1.0  0.36917  0.65819  0.06407  1.0000
  C   C1322     1.0  0.35980  0.64898  0.07213  1.0000
  C   C1323     1.0  0.35353  0.64240  0.06535  1.0000
  C   C1324     1.0  0.35629  0.64530  0.05044  1.0000
  C   C1325     1.0  0.36565  0.65451  0.04238  1.0000
  C   C1326     1.0  0.37223  0.66075  0.04915  1.0000
  H   H1590     1.0  0.35733  0.64700  0.08367  1.0000
  H   H1591     1.0  0.34629  0.63539  0.07167  1.0000
  H   H1592     1.0  0.36782  0.65687  0.03084  1.0000
  H   H1593     1.0  0.37931  0.66790  0.04285  1.0000
  H   H1594     1.0  0.03961  0.65211  0.31969  1.0000
  H   H1595     1.0  0.44746  0.67544  0.06912  1.0000
  H   H1596     1.0  0.02418  0.61943  0.44896  1.0000
  C   C1327     1.0  0.40910  0.67548  0.00347  1.0000
  C   C1328     1.0  0.39467  0.67875  0.01096  1.0000
  C   C1329     1.0  0.38333  0.67825  0.00526  1.0000
  H   H1597     1.0  0.06521  0.61996  0.40004  1.0000
  C   C1330     1.0  0.06087  0.61965  0.39140  1.0000
  H   H1598     1.0  0.39221  0.68191  0.02101  1.0000
  H   H1599     1.0  0.37217  0.68101  0.01101  1.0000
  N   N88       1.0  0.40833  0.62512  0.03287  1.0000
  C   C1331     1.0  0.45960  0.60259  0.05671  1.0000
  C   C1332     1.0  0.24340  0.59573  0.03456  1.0000
  H   H1600     1.0  0.09050  0.62613  0.37432  1.0000
  H   H1601     1.0  0.01086  0.60565  0.47000  1.0000
  C   C1333     1.0  0.45525  0.61571  0.07506  1.0000
  C   C1334     1.0  0.45039  0.62851  0.06576  1.0000
  C   C1335     1.0  0.44994  0.62834  0.05195  1.0000
  C   C1336     1.0  0.45481  0.61539  0.04734  1.0000
  H   H1602     1.0  0.46837  0.70110  0.08059  1.0000
  H   H1603     1.0  0.45558  0.61584  0.08574  1.0000
  H   H1604     1.0  0.44638  0.63825  0.04467  1.0000
  H   H1605     1.0  0.45488  0.61533  0.03655  1.0000
  C   C1337     1.0  0.43816  0.72537  0.08927  1.0000
  C   C1338     1.0  0.44527  0.72974  0.07505  1.0000
  C   C1339     1.0  0.44184  0.72598  0.06399  1.0000
  C   C1340     1.0  0.43157  0.71753  0.06703  1.0000
  C   C1341     1.0  0.42491  0.71271  0.08130  1.0000
  C   C1342     1.0  0.42806  0.71676  0.09231  1.0000
  H   H1606     1.0  0.45311  0.73631  0.07253  1.0000
  H   H1607     1.0  0.44711  0.72973  0.05301  1.0000
  H   H1608     1.0  0.41697  0.70624  0.08383  1.0000
  H   H1609     1.0  0.42243  0.71336  0.10324  1.0000
  C   C1343     1.0  0.46532  0.77910  0.14358  1.0000
  S   S388      1.0  0.00872  0.66350  0.36123  1.0000
  C   C1344     1.0  0.47397  0.64966  0.03717  1.0000
  C   C1345     1.0  0.47608  0.77819  0.16723  1.0000
  C   C1346     1.0  0.47760  0.76556  0.16285  1.0000
  C   C1347     1.0  0.47228  0.76600  0.15103  1.0000
  S   S389      1.0  0.03064  0.60792  0.42433  1.0000
  C   C1348     1.0  0.32868  0.64645  0.99308  1.0000
  H   H1610     1.0  0.48289  0.75537  0.16860  1.0000
  H   H1611     1.0  0.47343  0.75621  0.14776  1.0000
  H   H1612     1.0  0.16496  0.59396  0.15285  1.0000
  C   C1349     1.0  0.01904  0.61141  0.48484  1.0000
  C   C1350     1.0  0.04799  0.61892  0.37022  1.0000
  C   C1351     1.0  0.10925  0.76434  0.40226  1.0000
  C   C1352     1.0  0.40518  0.63857  0.02201  1.0000
  H   H1613     1.0  0.03141  0.59914  0.30260  1.0000
  H   H1614     1.0  0.44593  0.68348  0.12664  1.0000
  H   H1615     1.0  0.48323  0.69658  0.09680  1.0000
  H   H1616     1.0  0.38918  0.60608  0.04248  1.0000
  H   H1617     1.0  0.09098  0.74315  0.43044  1.0000
  H   H1618     1.0  0.37047  0.62340  0.01297  1.0000
  C   C1353     1.0  0.12132  0.71130  0.42178  1.0000
  C   C1354     1.0  0.12466  0.70530  0.40979  1.0000
  C   C1355     1.0  0.11383  0.70161  0.40572  1.0000
  C   C1356     1.0  0.09946  0.70388  0.41360  1.0000
  C   C1357     1.0  0.09614  0.70967  0.42573  1.0000
  C   C1358     1.0  0.10703  0.71316  0.42993  1.0000
  H   H1619     1.0  0.13568  0.70377  0.40341  1.0000
  H   H1620     1.0  0.11650  0.69743  0.39620  1.0000
  H   H1621     1.0  0.08506  0.71154  0.43188  1.0000
  H   H1622     1.0  0.10436  0.71737  0.43941  1.0000
  C   C1359     1.0  0.03446  0.63849  0.28658  1.0000
  H   H1623     1.0  0.42159  0.77440  0.21943  1.0000
  Fe  Fe197     1.0  0.30925  0.60630  0.06121  1.0000
  C   C1360     1.0  0.43613  0.76379  0.05071  1.0000
  H   H1624     1.0  0.09961  0.76842  0.48018  1.0000
  C   C1361     1.0  0.01533  0.66096  0.40021  1.0000
  H   H1625     1.0  0.40327  0.72678  0.01321  1.0000
  H   H1626     1.0  0.50190  0.75455  0.20239  1.0000
  C   C1362     1.0  0.09265  0.61566  0.38200  1.0000
  H   H1627     1.0  0.35448  0.65931  0.00949  1.0000
  C   C1363     1.0  0.49612  0.63183  0.02160  1.0000
  H   H1628     1.0  0.04278  0.63281  0.47634  1.0000
  C   C1364     1.0  0.25936  0.61052  0.03399  1.0000
  C   C1365     1.0  0.46038  0.68445  0.09856  1.0000
  C   C1366     1.0  0.00296  0.65896  0.32513  1.0000
  H   H1629     1.0  0.48402  0.67071  0.10897  1.0000
  H   H1630     1.0  0.12008  0.75676  0.40065  1.0000
  H   H1631     1.0  0.11801  0.78430  0.44215  1.0000
  C   C1367     1.0  0.00916  0.62198  0.41017  1.0000
  H   H1632     1.0  0.31682  0.67669  0.01839  1.0000
  H   H1633     1.0  0.01060  0.60517  0.35178  1.0000
  H   H1634     1.0  0.10481  0.59574  0.36715  1.0000
  S   S390      1.0  0.09226  0.77290  0.45121  1.0000
  C   C1368     1.0  0.01652  0.66352  0.37505  1.0000
  H   H1635     1.0  0.18389  0.78716  0.42189  1.0000
  C   C1369     1.0  0.45175  0.69225  0.12090  1.0000
  C   C1370     1.0  0.02010  0.64373  0.30972  1.0000
  C   C1371     1.0  0.40852  0.61273  0.02739  1.0000
  C   C1372     1.0  0.38637  0.67431  0.99214  1.0000
  C   C1373     1.0  0.47303  0.69938  0.10479  1.0000
  C   C1374     1.0  0.42891  0.73551  0.00372  1.0000
  C   C1375     1.0  0.30249  0.59550  0.01594  1.0000
  C   C1376     1.0  0.09308  0.60036  0.36718  1.0000
  H   H1636     1.0  0.39912  0.61691  0.05506  1.0000
  H   H1637     1.0  0.39452  0.64006  0.01934  1.0000
  H   H1638     1.0  0.04074  0.64994  0.29778  1.0000
  C   C1377     1.0  0.02000  0.60107  0.35708  1.0000
  H   H1639     1.0  0.35428  0.65211  0.99529  1.0000
  H   H1640     1.0  0.02624  0.62620  0.27738  1.0000
  C   C1378     1.0  0.03239  0.64471  0.29811  1.0000
  H   H1641     1.0  0.44227  0.70868  0.01186  1.0000
  C   C1379     1.0  0.33399  0.67531  0.99284  1.0000
  N   N89       1.0  0.08501  0.60547  0.38045  1.0000
  C   C1380     1.0  0.02447  0.63116  0.28625  1.0000
  C   C1381     1.0  0.04642  0.62675  0.39136  1.0000
  C   C1382     1.0  0.01452  0.60935  0.41934  1.0000
  H   H1642     1.0  0.35159  0.61021  0.98676  1.0000
  C   C1383     1.0  0.48860  0.79065  0.07923  1.0000
  Fe  Fe198     1.0  0.46785  0.60776  0.99853  1.0000
  H   H1643     1.0  0.41632  0.71708  0.02399  1.0000
  H   H1644     1.0  0.48162  0.77946  0.04192  1.0000
  H   H1645     1.0  0.04830  0.62065  0.43411  1.0000
  H   H1646     1.0  0.25643  0.60612  0.01529  1.0000
  H   H1647     1.0  0.04311  0.61899  0.36177  1.0000
  H   H1648     1.0  0.00387  0.70188  0.35878  1.0000
  H   H1649     1.0  0.11023  0.77168  0.40831  1.0000
  C   C1384     1.0  0.35965  0.61686  0.00078  1.0000
  H   H1650     1.0  0.46866  0.66592  0.12250  1.0000
  H   H1651     1.0  0.07985  0.59607  0.40298  1.0000
  H   H1652     1.0  0.10466  0.61161  0.38003  1.0000
  H   H1653     1.0  0.45007  0.66717  0.11260  1.0000
  C   C1385     1.0  0.45854  0.68883  0.07363  1.0000
  H   H1654     1.0  0.02614  0.66291  0.33053  1.0000
  H   H1655     1.0  0.30170  0.62849  0.00125  1.0000
  H   H1656     1.0  0.42272  0.63195  0.04111  1.0000
  C   C1386     1.0  0.17922  0.78737  0.43303  1.0000
  C   C1387     1.0  0.39814  0.60395  0.03359  1.0000
  C   C1388     1.0  0.25322  0.60444  0.02686  1.0000
  C   C1389     1.0  0.43863  0.71107  0.00168  1.0000
  C   C1390     1.0  0.08578  0.59298  0.39270  1.0000
  C   C1391     1.0  0.48255  0.63756  0.04434  1.0000
  S   S391      1.0  0.28595  0.60859  0.07426  1.0000
  C   C1392     1.0  0.47438  0.67480  0.11697  1.0000
  H   H1657     1.0  0.02767  0.66778  0.31154  1.0000
  C   C1393     1.0  0.00926  0.66027  0.38937  1.0000
  C   C1394     1.0  0.16308  0.77931  0.45533  1.0000
  C   C1395     1.0  0.41363  0.71857  0.01347  1.0000
  C   C1396     1.0  0.45116  0.67784  0.07721  1.0000
  H   H1658     1.0  0.44134  0.76664  0.02788  1.0000
  H   H1659     1.0  0.41697  0.70434  0.99120  1.0000
  H   H1660     1.0  0.04484  0.65734  0.43778  1.0000
  C   C1397     1.0  0.49501  0.78519  0.06692  1.0000
  C   C1398     1.0  0.16902  0.77897  0.44093  1.0000
  N   N90       1.0  0.42548  0.72290  0.00133  1.0000
  C   C1399     1.0  0.45085  0.78004  0.03445  1.0000
  C   C1400     1.0  0.00376  0.59839  0.38017  1.0000
  H   H1661     1.0  0.46519  0.65644  0.04325  1.0000
  S   S392      1.0  0.48223  0.77723  0.18252  1.0000
  H   H1662     1.0  0.01740  0.60224  0.28437  1.0000
  C   C1401     1.0  0.47659  0.78989  0.03559  1.0000
  C   C1402     1.0  0.44830  0.67009  0.09126  1.0000
  H   H1663     1.0  0.06975  0.77668  0.47694  1.0000
  C   C1403     1.0  0.41941  0.60910  0.01544  1.0000
  H   H1664     1.0  0.03003  0.63013  0.33301  1.0000
  S   S393      1.0  0.32797  0.60627  0.07017  1.0000
  H   H1665     1.0  0.08935  0.61779  0.39290  1.0000
  N   N91       1.0  0.46486  0.68775  0.11001  1.0000
  H   H1666     1.0  0.45486  0.78851  0.19939  1.0000
  C   C1404     1.0  0.44605  0.77801  0.05999  1.0000
  H   H1667     1.0  0.01209  0.69188  0.40331  1.0000
  H   H1668     1.0  0.44243  0.66162  0.09393  1.0000
  H   H1669     1.0  0.04016  0.63254  0.39962  1.0000
  C   C1405     1.0  0.08048  0.77849  0.41787  1.0000
  H   H1670     1.0  0.44695  0.78054  0.06944  1.0000
  H   H1671     1.0  0.26067  0.61250  0.05440  1.0000
  C   C1406     1.0  0.43927  0.77280  0.19459  1.0000
  H   H1672     1.0  0.47843  0.67711  0.12523  1.0000
  C   C1407     1.0  0.24567  0.59944  0.05665  1.0000
  C   C1408     1.0  0.02825  0.65853  0.32086  1.0000
  H   H1673     1.0  0.44742  0.77704  0.21552  1.0000
  H   H1674     1.0  0.03346  0.63607  0.43143  1.0000
  N   N92       1.0  0.09736  0.75664  0.40984  1.0000
  C   C1409     1.0  0.25564  0.60798  0.04885  1.0000
  C   C1410     1.0  0.32383  0.65434  0.00396  1.0000
  H   H1675     1.0  0.43667  0.70087  0.00097  1.0000
  H   H1676     1.0  0.05161  0.63805  0.42485  1.0000
  C   C1411     1.0  0.45278  0.67333  0.10182  1.0000
  H   H1677     1.0  0.45445  0.69600  0.12911  1.0000
  H   H1678     1.0  0.39509  0.61325  0.00013  1.0000
  H   H1679     1.0  0.12270  0.68603  0.47344  1.0000
  C   C1412     1.0  0.03999  0.62642  0.38077  1.0000
  C   C1413     1.0  0.48736  0.64386  0.01457  1.0000
  H   H1680     1.0  0.02300  0.61041  0.35859  1.0000
  H   H1681     1.0  0.15527  0.77288  0.46156  1.0000
  N   N93       1.0  0.04433  0.63524  0.44781  1.0000
  C   C1414     1.0  0.05971  0.63158  0.44912  1.0000
  C   C1415     1.0  0.03845  0.65079  0.44704  1.0000
  C   C1416     1.0  0.03546  0.62713  0.46038  1.0000
  H   H1682     1.0  0.43300  0.76285  0.07306  1.0000
  H   H1683     1.0  0.48903  0.60176  0.04328  1.0000
  H   H1684     1.0  0.06412  0.61976  0.45099  1.0000
  H   H1685     1.0  0.06686  0.63665  0.43931  1.0000
  H   H1686     1.0  0.06114  0.63538  0.45792  1.0000
  H   H1687     1.0  0.03854  0.65393  0.45681  1.0000
  C   C1417     1.0  0.49881  0.61244  0.05980  1.0000
  C   C1418     1.0  0.30759  0.63594  0.00178  1.0000
  H   H1688     1.0  0.02703  0.65401  0.44565  1.0000
  C   C1419     1.0  0.01926  0.63769  0.33499  1.0000
  N   N94       1.0  0.33304  0.66309  0.00537  1.0000
  C   C1420     1.0  0.32748  0.66896  0.01847  1.0000
  C   C1421     1.0  0.36132  0.60994  0.98989  1.0000
  H   H1689     1.0  0.24345  0.59780  0.06813  1.0000
  H   H1690     1.0  0.42872  0.59481  0.00112  1.0000
  H   H1691     1.0  0.43205  0.73306  0.01418  1.0000
  C   C1422     1.0  0.45276  0.78449  0.04595  1.0000
  H   H1692     1.0  0.32302  0.68205  0.99182  1.0000
  H   H1693     1.0  0.45576  0.78438  0.02349  1.0000
  C   C1423     1.0  0.05576  0.78669  0.41464  1.0000
  H   H1694     1.0  0.32643  0.66021  0.02828  1.0000
  H   H1695     1.0  0.09968  0.75654  0.43068  1.0000
  H   H1696     1.0  0.48901  0.64611  0.00303  1.0000
  H   H1697     1.0  0.34742  0.64362  0.01333  1.0000
  C   C1424     1.0  0.47623  0.65271  0.02234  1.0000
  C   C1425     1.0  0.46310  0.69218  0.08409  1.0000
  H   H1698     1.0  0.39748  0.63590  0.05029  1.0000
  C   C1426     1.0  0.06954  0.61243  0.38045  1.0000
  C   C1427     1.0  0.01782  0.61172  0.47122  1.0000
  H   H1699     1.0  0.42746  0.61545  0.01000  1.0000
  H   H1700     1.0  0.44151  0.76306  0.20316  1.0000
  C   C1428     1.0  0.09866  0.74555  0.40199  1.0000
  H   H1701     1.0  0.48731  0.61137  0.06414  1.0000
  C   C1429     1.0  0.01024  0.63604  0.30909  1.0000
  N   N95       1.0  0.12120  0.65952  0.43383  1.0000
  C   C1430     1.0  0.12471  0.64373  0.43923  1.0000
  C   C1431     1.0  0.10627  0.66396  0.43124  1.0000
  C   C1432     1.0  0.13143  0.66287  0.41985  1.0000
  C   C1433     1.0  0.12191  0.66679  0.44455  1.0000
  C   C1434     1.0  0.11311  0.66426  0.45858  1.0000
  C   C1435     1.0  0.13099  0.67663  0.44146  1.0000
  C   C1436     1.0  0.11345  0.67109  0.46888  1.0000
  C   C1437     1.0  0.13124  0.68338  0.45185  1.0000
  C   C1438     1.0  0.12249  0.68064  0.46550  1.0000
  H   H1702     1.0  0.11636  0.63996  0.44862  1.0000
  H   H1703     1.0  0.12523  0.63792  0.43102  1.0000
  H   H1704     1.0  0.13540  0.64009  0.44235  1.0000
  H   H1705     1.0  0.10288  0.67583  0.42794  1.0000
  H   H1706     1.0  0.09805  0.66031  0.44081  1.0000
  H   H1707     1.0  0.10548  0.65940  0.42264  1.0000
  H   H1708     1.0  0.12897  0.67448  0.41477  1.0000
  H   H1709     1.0  0.14292  0.65961  0.42098  1.0000
  H   H1710     1.0  0.13065  0.65717  0.41207  1.0000
  H   H1711     1.0  0.10582  0.65705  0.46165  1.0000
  H   H1712     1.0  0.13788  0.67953  0.43105  1.0000
  H   H1713     1.0  0.10661  0.66902  0.47952  1.0000
  H   H1714     1.0  0.44977  0.77313  0.18659  1.0000
  S   S394      1.0  0.49404  0.76798  0.06668  1.0000
  Fe  Fe199     1.0  0.07536  0.59705  0.29688  1.0000
  H   H1715     1.0  0.16281  0.78794  0.47291  1.0000
  C   C1439     1.0  0.16742  0.78783  0.46174  1.0000
  C   C1440     1.0  0.00717  0.59812  0.42400  1.0000
  S   S395      1.0  0.07874  0.59828  0.27330  1.0000
  C   C1441     1.0  0.31543  0.59998  0.99124  1.0000
  C   C1442     1.0  0.45961  0.60273  0.07062  1.0000
  H   H1716     1.0  0.11035  0.74131  0.42389  1.0000
  H   H1717     1.0  0.42978  0.75589  0.05255  1.0000
  C   C1443     1.0  0.26467  0.59334  0.08861  1.0000
  C   C1444     1.0  0.32080  0.63720  0.99222  1.0000
  H   H1718     1.0  0.29193  0.64291  0.01971  1.0000
  C   C1445     1.0  0.49380  0.62813  0.03674  1.0000
  C   C1446     1.0  0.44263  0.76987  0.03684  1.0000
  H   H1719     1.0  0.07232  0.75739  0.40087  1.0000
  H   H1720     1.0  0.10751  0.77083  0.39157  1.0000
  C   C1447     1.0  0.04208  0.78698  0.47096  1.0000
  H   H1721     1.0  0.21045  0.59993  0.05175  1.0000
  C   C1448     1.0  0.09499  0.78949  0.45121  1.0000
  C   C1449     1.0  0.01236  0.62997  0.29748  1.0000
  C   C1450     1.0  0.42002  0.78454  0.21115  1.0000
  H   H1722     1.0  0.01069  0.63150  0.33768  1.0000
  C   C1451     1.0  0.37179  0.61785  0.00466  1.0000
  H   H1723     1.0  0.34882  0.62149  0.00618  1.0000
  H   H1724     1.0  0.09727  0.75045  0.39086  1.0000
  H   H1725     1.0  0.43689  0.78945  0.17052  1.0000
  H   H1726     1.0  0.11371  0.78357  0.47542  1.0000
  H   H1727     1.0  0.41933  0.74473  0.00397  1.0000
  N   N96       1.0  0.43365  0.78607  0.20026  1.0000
  H   H1728     1.0  0.00565  0.60833  0.38159  1.0000
  C   C1452     1.0  0.27680  0.59472  0.07719  1.0000
  H   H1729     1.0  0.41126  0.78453  0.20613  1.0000
  H   H1730     1.0  0.08876  0.59176  0.36582  1.0000
  H   H1731     1.0  0.46720  0.78930  0.06357  1.0000
  H   H1732     1.0  0.48241  0.78456  0.08849  1.0000
  C   C1453     1.0  0.41214  0.67156  0.99039  1.0000
  C   C1454     1.0  0.11648  0.78354  0.48540  1.0000
  Fe  Fe200     1.0  0.49886  0.59498  0.00186  1.0000
  C   C1455     1.0  0.38564  0.61186  0.99764  1.0000
  H   H1733     1.0  0.04378  0.78048  0.46300  1.0000
  H   H1734     1.0  0.47714  0.78827  0.02490  1.0000
  C   C1456     1.0  0.50193  0.77561  0.12843  1.0000
  H   H1735     1.0  0.21893  0.59453  0.07502  1.0000
  C   C1457     1.0  0.42021  0.59724  0.01025  1.0000
  C   C1458     1.0  0.29089  0.59339  0.01172  1.0000
  S   S396      1.0  0.45239  0.62755  0.99001  1.0000
  C   C1459     1.0  0.49673  0.78715  0.11814  1.0000
  H   H1736     1.0  0.50200  0.76480  0.12824  1.0000
  H   H1737     1.0  0.03649  0.76167  0.48425  1.0000
  C   C1460     1.0  0.06699  0.78813  0.41964  1.0000
  C   C1461     1.0  0.30372  0.59820  0.98708  1.0000
  C   C1462     1.0  0.05796  0.77557  0.40786  1.0000
  H   H1738     1.0  0.50041  0.62132  0.06345  1.0000
  C   C1463     1.0  0.23913  0.59312  0.04970  1.0000
  C   C1464     1.0  0.42099  0.72569  0.98766  1.0000
  S   S397      1.0  0.00528  0.79004  0.46061  1.0000
  N   N97       1.0  0.04669  0.77818  0.48431  1.0000
  H   H1739     1.0  0.46334  0.59285  0.07787  1.0000
  C   C1465     1.0  0.39902  0.59208  0.02829  1.0000
  Fe  Fe201     1.0  0.14447  0.75051  0.57189  1.0000
  S   S398      1.0  0.14372  0.76871  0.58152  1.0000
  S   S399      1.0  0.14448  0.72790  0.58528  1.0000
  Fe  Fe202     1.0  0.14466  0.76937  0.54217  1.0000
  H   H1740     1.0  0.40855  0.70891  0.96935  1.0000
  C   C1466     1.0  0.42754  0.63383  0.98057  1.0000
  Fe  Fe203     1.0  0.16003  0.77587  0.56158  1.0000
  H   H1741     1.0  0.00209  0.73521  0.50559  1.0000
  H   H1742     1.0  0.06966  0.59920  0.59496  1.0000
  C   C1467     1.0  0.13387  0.69804  0.54422  1.0000
  S   S400      1.0  0.16258  0.75633  0.55324  1.0000
  S   S401      1.0  0.12679  0.76226  0.56008  1.0000
  C   C1468     1.0  0.02227  0.62973  0.60720  1.0000
  C   C1469     1.0  0.41680  0.71482  0.98414  1.0000
  C   C1470     1.0  0.09520  0.74914  0.49459  1.0000
  C   C1471     1.0  0.02946  0.66967  0.58020  1.0000
  H   H1743     1.0  0.05167  0.64610  0.60141  1.0000
  C   C1472     1.0  0.14949  0.75754  0.49777  1.0000
  H   H1744     1.0  0.29324  0.65220  0.97729  1.0000
  H   H1745     1.0  0.02410  0.64881  0.65523  1.0000
  H   H1746     1.0  0.00477  0.63091  0.65159  1.0000
  H   H1747     1.0  0.06657  0.63663  0.58060  1.0000
  Fe  Fe204     1.0  0.38624  0.66720  0.93404  1.0000
  S   S402      1.0  0.38373  0.64510  0.93497  1.0000
  S   S403      1.0  0.39799  0.68022  0.91397  1.0000
  Fe  Fe205     1.0  0.36286  0.65019  0.95102  1.0000
  S   S404      1.0  0.34154  0.64334  0.95505  1.0000
  Fe  Fe206     1.0  0.39421  0.63847  0.95368  1.0000
  C   C1473     1.0  0.45086  0.60095  0.93480  1.0000
  S   S405      1.0  0.36432  0.67306  0.94857  1.0000
  S   S406      1.0  0.39836  0.66001  0.95147  1.0000
  H   H1748     1.0  0.05428  0.60888  0.69849  1.0000
  C   C1474     1.0  0.37521  0.60288  0.98320  1.0000
  H   H1749     1.0  0.00448  0.65874  0.57070  1.0000
  H   H1750     1.0  0.49783  0.76444  0.93060  1.0000
  H   H1751     1.0  0.48209  0.75850  0.91943  1.0000
  C   C1475     1.0  0.48730  0.75446  0.87110  1.0000
  H   H1752     1.0  0.37481  0.60110  0.94992  1.0000
  C   C1476     1.0  0.40083  0.67082  0.98481  1.0000
  S   S407      1.0  0.48969  0.78103  0.98410  1.0000
  C   C1477     1.0  0.01066  0.61198  0.60554  1.0000
  C   C1478     1.0  0.10025  0.76851  0.50180  1.0000
  H   H1753     1.0  0.41522  0.75178  0.95755  1.0000
  S   S408      1.0  0.44105  0.75302  0.91642  1.0000
  C   C1479     1.0  0.00389  0.63536  0.70176  1.0000
  Fe  Fe207     1.0  0.43631  0.77079  0.87812  1.0000
  S   S409      1.0  0.44163  0.74665  0.88582  1.0000
  H   H1754     1.0  0.33884  0.64709  0.98533  1.0000
  Fe  Fe208     1.0  0.42493  0.75061  0.90578  1.0000
  S   S410      1.0  0.41019  0.73660  0.92164  1.0000
  Fe  Fe209     1.0  0.45709  0.75088  0.89597  1.0000
  S   S411      1.0  0.47930  0.73724  0.89735  1.0000
  H   H1755     1.0  0.09823  0.70783  0.62603  1.0000
  S   S412      1.0  0.45315  0.77453  0.88686  1.0000
  H   H1756     1.0  0.42350  0.74800  0.97923  1.0000
  H   H1757     1.0  0.47617  0.75645  0.87021  1.0000
  S   S413      1.0  0.05496  0.60486  0.73177  1.0000
  H   H1758     1.0  0.02793  0.62091  0.63538  1.0000
  C   C1480     1.0  0.44945  0.77771  0.95890  1.0000
  N   N98       1.0  0.16998  0.71709  0.53892  1.0000
  Fe  Fe210     1.0  0.06973  0.67197  0.64060  1.0000
  S   S414      1.0  0.07960  0.64858  0.64650  1.0000
  S   S415      1.0  0.05101  0.68185  0.65630  1.0000
  Fe  Fe211     1.0  0.09107  0.67648  0.61186  1.0000
  S   S416      1.0  0.10243  0.65309  0.61500  1.0000
  S   S417      1.0  0.09609  0.69386  0.59202  1.0000
  Fe  Fe212     1.0  0.08007  0.64867  0.62403  1.0000
  S   S418      1.0  0.07078  0.63061  0.62378  1.0000
  Fe  Fe213     1.0  0.10098  0.65487  0.63727  1.0000
  S   S419      1.0  0.12068  0.64563  0.64674  1.0000
  S   S420      1.0  0.06864  0.67180  0.61867  1.0000
  S   S421      1.0  0.09119  0.67847  0.63357  1.0000
  H   H1759     1.0  0.00666  0.67812  0.58022  1.0000
  C   C1481     1.0  0.16696  0.73214  0.53072  1.0000
  H   H1760     1.0  0.12474  0.69338  0.54548  1.0000
  H   H1761     1.0  0.30409  0.59958  0.97597  1.0000
  H   H1762     1.0  0.00942  0.61468  0.66371  1.0000
  H   H1763     1.0  0.09852  0.78735  0.51882  1.0000
  C   C1482     1.0  0.14138  0.70362  0.53062  1.0000
  C   C1483     1.0  0.28221  0.62852  0.96648  1.0000
  S   S422      1.0  0.05676  0.60420  0.56127  1.0000
  H   H1764     1.0  0.11707  0.77789  0.51332  1.0000
  H   H1765     1.0  0.15205  0.70494  0.56454  1.0000
  C   C1484     1.0  0.02405  0.60494  0.59840  1.0000
  C   C1485     1.0  0.01616  0.66973  0.57768  1.0000
  C   C1486     1.0  0.14962  0.70474  0.55473  1.0000
  H   H1766     1.0  0.29980  0.66144  0.95161  1.0000
  N   N99       1.0  0.05598  0.65888  0.58002  1.0000
  H   H1767     1.0  0.02499  0.64037  0.69330  1.0000
  C   C1487     1.0  0.03560  0.62244  0.60042  1.0000
  S   S423      1.0  0.48676  0.59424  0.98613  1.0000
  C   C1488     1.0  0.07772  0.62251  0.60910  1.0000
  C   C1489     1.0  0.07035  0.61311  0.60764  1.0000
  C   C1490     1.0  0.07539  0.60646  0.59603  1.0000
  C   C1491     1.0  0.08782  0.60925  0.58576  1.0000
  C   C1492     1.0  0.09541  0.61850  0.58733  1.0000
  C   C1493     1.0  0.09031  0.62522  0.59897  1.0000
  H   H1768     1.0  0.06045  0.61128  0.61531  1.0000
  C   C1494     1.0  0.17313  0.71729  0.55253  1.0000
  H   H1769     1.0  0.10509  0.62063  0.57940  1.0000
  H   H1770     1.0  0.09608  0.63247  0.60005  1.0000
  C   C1495     1.0  0.03331  0.68425  0.65397  1.0000
  C   C1496     1.0  0.02169  0.69213  0.66243  1.0000
  C   C1497     1.0  0.03054  0.67834  0.64413  1.0000
  H   H1771     1.0  0.02374  0.69667  0.67009  1.0000
  H   H1772     1.0  0.03942  0.67209  0.63768  1.0000
  C   C1498     1.0  0.12064  0.63083  0.66128  1.0000
  C   C1499     1.0  0.10790  0.62609  0.66876  1.0000
  C   C1500     1.0  0.10835  0.61393  0.68009  1.0000
  C   C1501     1.0  0.12153  0.60662  0.68412  1.0000
  C   C1502     1.0  0.13417  0.61159  0.67678  1.0000
  C   C1503     1.0  0.13374  0.62361  0.66539  1.0000
  H   H1773     1.0  0.09769  0.63189  0.66592  1.0000
  H   H1774     1.0  0.09847  0.61042  0.68576  1.0000
  C   C1504     1.0  0.37417  0.60620  0.95871  1.0000
  H   H1775     1.0  0.14362  0.62730  0.65971  1.0000
  H   H1776     1.0  0.05223  0.68187  0.57747  1.0000
  H   H1777     1.0  0.19299  0.71324  0.52943  1.0000
  H   H1778     1.0  0.04561  0.66493  0.60031  1.0000
  H   H1779     1.0  0.31577  0.65660  0.91390  1.0000
  C   C1505     1.0  0.13803  0.69853  0.55622  1.0000
  H   H1780     1.0  0.02888  0.62250  0.74404  1.0000
  C   C1506     1.0  0.03686  0.76817  0.49148  1.0000
  H   H1781     1.0  0.04015  0.76064  0.50117  1.0000
  H   H1782     1.0  0.01922  0.64650  0.64033  1.0000
  C   C1507     1.0  0.09430  0.74698  0.51942  1.0000
  H   H1783     1.0  0.45450  0.65901  0.95760  1.0000
  H   H1784     1.0  0.08874  0.59495  0.66379  1.0000
  H   H1785     1.0  0.03779  0.64290  0.64038  1.0000
  C   C1508     1.0  0.48866  0.79062  0.81850  1.0000
  H   H1786     1.0  0.05698  0.78379  0.52502  1.0000
  C   C1509     1.0  0.42348  0.64019  0.91847  1.0000
  H   H1787     1.0  0.05609  0.73037  0.61844  1.0000
  H   H1788     1.0  0.03299  0.60609  0.64945  1.0000
  H   H1789     1.0  0.13212  0.69419  0.56680  1.0000
  H   H1790     1.0  0.01635  0.66225  0.67589  1.0000
  H   H1791     1.0  0.11117  0.62000  0.64004  1.0000
  H   H1792     1.0  0.12422  0.73231  0.52175  1.0000
  C   C1510     1.0  0.02698  0.64182  0.64750  1.0000
  C   C1511     1.0  0.03672  0.60503  0.73323  1.0000
  C   C1512     1.0  0.40125  0.69603  0.91595  1.0000
  C   C1513     1.0  0.39500  0.70088  0.92860  1.0000
  C   C1514     1.0  0.39761  0.71351  0.93000  1.0000
  C   C1515     1.0  0.40662  0.72132  0.91885  1.0000
  C   C1516     1.0  0.41301  0.71640  0.90623  1.0000
  C   C1517     1.0  0.41027  0.70382  0.90477  1.0000
  H   H1793     1.0  0.38799  0.69502  0.93726  1.0000
  H   H1794     1.0  0.39263  0.71723  0.93981  1.0000
  H   H1795     1.0  0.41995  0.72235  0.89756  1.0000
  H   H1796     1.0  0.41508  0.70015  0.89492  1.0000
  C   C1518     1.0  0.33823  0.63019  0.94830  1.0000
  C   C1519     1.0  0.34683  0.62607  0.93571  1.0000
  C   C1520     1.0  0.34250  0.61708  0.92978  1.0000
  C   C1521     1.0  0.32971  0.61196  0.93652  1.0000
  C   C1522     1.0  0.32158  0.61559  0.94936  1.0000
  C   C1523     1.0  0.32574  0.62468  0.95517  1.0000
  H   H1797     1.0  0.35643  0.63031  0.93021  1.0000
  H   H1798     1.0  0.34886  0.61437  0.91976  1.0000
  H   H1799     1.0  0.31162  0.61199  0.95436  1.0000
  H   H1800     1.0  0.31891  0.62781  0.96481  1.0000
  H   H1801     1.0  0.15840  0.71406  0.51820  1.0000
  H   H1802     1.0  0.40768  0.63877  0.97351  1.0000
  C   C1524     1.0  0.46330  0.60075  0.93895  1.0000
  H   H1803     1.0  0.41684  0.65094  0.91441  1.0000
  C   C1525     1.0  0.28737  0.66523  0.92607  1.0000
  H   H1804     1.0  0.18505  0.78053  0.51999  1.0000
  C   C1526     1.0  0.07289  0.74250  0.60985  1.0000
  C   C1527     1.0  0.00462  0.68870  0.65094  1.0000
  C   C1528     1.0  0.05998  0.67291  0.57292  1.0000
  Fe  Fe214     1.0  0.12714  0.78078  0.56844  1.0000
  H   H1805     1.0  0.43406  0.76707  0.93833  1.0000
  C   C1529     1.0  0.44378  0.76882  0.95433  1.0000
  H   H1806     1.0  0.42533  0.66094  0.92800  1.0000
  C   C1530     1.0  0.13133  0.73930  0.51506  1.0000
  H   H1807     1.0  0.18229  0.70943  0.51985  1.0000
  N   N100      1.0  0.37666  0.59535  0.97189  1.0000
  C   C1531     1.0  0.44567  0.64818  0.90746  1.0000
  S   S424      1.0  0.17990  0.78542  0.55637  1.0000
  H   H1808     1.0  0.49497  0.77686  0.88312  1.0000
  H   H1809     1.0  0.01410  0.67597  0.63504  1.0000
  C   C1532     1.0  0.02699  0.64792  0.56919  1.0000
  C   C1533     1.0  0.42220  0.61981  0.96730  1.0000
  H   H1810     1.0  0.46260  0.63623  0.93000  1.0000
  H   H1811     1.0  0.09272  0.61213  0.66007  1.0000
  H   H1812     1.0  0.31429  0.66032  0.93067  1.0000
  C   C1534     1.0  0.13072  0.71879  0.58718  1.0000
  C   C1535     1.0  0.12083  0.72373  0.57824  1.0000
  C   C1536     1.0  0.11015  0.71612  0.57996  1.0000
  C   C1537     1.0  0.10922  0.70351  0.59063  1.0000
  C   C1538     1.0  0.11909  0.69858  0.59957  1.0000
  C   C1539     1.0  0.12981  0.70616  0.59781  1.0000
  H   H1813     1.0  0.12161  0.73321  0.56980  1.0000
  H   H1814     1.0  0.10268  0.71991  0.57289  1.0000
  H   H1815     1.0  0.11858  0.68882  0.60774  1.0000
  H   H1816     1.0  0.13745  0.70220  0.60473  1.0000
  H   H1817     1.0  0.42446  0.64304  0.98531  1.0000
  C   C1540     1.0  0.01094  0.62590  0.66019  1.0000
  H   H1818     1.0  0.14438  0.60610  0.67989  1.0000
  C   C1541     1.0  0.07650  0.71787  0.62321  1.0000
  H   H1819     1.0  0.44909  0.64126  0.89957  1.0000
  C   C1542     1.0  0.28490  0.63513  0.97568  1.0000
  Fe  Fe215     1.0  0.43552  0.77635  0.90650  1.0000
  H   H1820     1.0  0.06033  0.67547  0.56127  1.0000
  C   C1543     1.0  0.43885  0.78788  0.93372  1.0000
  H   H1821     1.0  0.42331  0.66898  0.98463  1.0000
  C   C1544     1.0  0.14372  0.75821  0.51213  1.0000
  H   H1822     1.0  0.18557  0.69742  0.53634  1.0000
  C   C1545     1.0  0.05441  0.65663  0.59563  1.0000
  S   S425      1.0  0.02184  0.64508  0.61253  1.0000
  C   C1546     1.0  0.03281  0.59552  0.72780  1.0000
  H   H1823     1.0  0.13012  0.74947  0.53191  1.0000
  C   C1547     1.0  0.05266  0.78069  0.50623  1.0000
  C   C1548     1.0  0.10789  0.78622  0.50957  1.0000
  C   C1549     1.0  0.49709  0.76168  0.86037  1.0000
  H   H1824     1.0  0.30251  0.63048  0.92432  1.0000
  S   S426      1.0  0.43662  0.78156  0.85493  1.0000
  H   H1825     1.0  0.31984  0.64223  0.92855  1.0000
  C   C1550     1.0  0.29499  0.65219  0.95534  1.0000
  S   S427      1.0  0.13217  0.72710  0.49327  1.0000
  H   H1826     1.0  0.02968  0.67801  0.58500  1.0000
  H   H1827     1.0  0.09852  0.76412  0.52494  1.0000
  H   H1828     1.0  0.43256  0.61330  0.92649  1.0000
  H   H1829     1.0  0.10088  0.61857  0.62866  1.0000
  N   N101      1.0  0.29701  0.65101  0.92997  1.0000
  H   H1830     1.0  0.11998  0.60976  0.62673  1.0000
  H   H1831     1.0  0.00765  0.62596  0.70956  1.0000
  H   H1832     1.0  0.04920  0.63894  0.56902  1.0000
  H   H1833     1.0  0.07011  0.64852  0.56323  1.0000
  H   H1834     1.0  0.28855  0.67317  0.93130  1.0000
  C   C1551     1.0  0.43851  0.77391  0.94174  1.0000
  C   C1552     1.0  0.13687  0.73887  0.50058  1.0000
  N   N102      1.0  0.02653  0.62667  0.65494  1.0000
  C   C1553     1.0  0.29115  0.64704  0.97013  1.0000
  H   H1835     1.0  0.02554  0.77417  0.49503  1.0000
  H   H1836     1.0  0.01319  0.60498  0.49415  1.0000
  H   H1837     1.0  0.45567  0.65033  0.90874  1.0000
  H   H1838     1.0  0.06243  0.62712  0.67720  1.0000
  H   H1839     1.0  0.18240  0.72242  0.55066  1.0000
  C   C1554     1.0  0.04205  0.65878  0.57709  1.0000
  C   C1555     1.0  0.09111  0.71761  0.62165  1.0000
  H   H1840     1.0  0.42560  0.63383  0.91030  1.0000
  H   H1841     1.0  0.07223  0.70840  0.62890  1.0000
  H   H1842     1.0  0.44381  0.75793  0.96032  1.0000
  C   C1556     1.0  0.09768  0.76043  0.51613  1.0000
  H   H1843     1.0  0.47695  0.61335  0.94057  1.0000
  C   C1557     1.0  0.04042  0.64788  0.57143  1.0000
  H   H1844     1.0  0.02903  0.61874  0.49709  1.0000
  H   H1845     1.0  0.17252  0.78545  0.50865  1.0000
  H   H1846     1.0  0.03490  0.59742  0.69882  1.0000
  H   H1847     1.0  0.38238  0.61297  0.95491  1.0000
  C   C1558     1.0  0.44231  0.61395  0.92897  1.0000
  H   H1848     1.0  0.00562  0.63142  0.66918  1.0000
  H   H1849     1.0  0.29985  0.64548  0.90975  1.0000
  H   H1850     1.0  0.28983  0.66972  0.91433  1.0000
  H   H1851     1.0  0.44264  0.65398  0.93243  1.0000
  C   C1559     1.0  0.13468  0.74900  0.52082  1.0000
  C   C1560     1.0  0.02591  0.61515  0.73980  1.0000
  C   C1561     1.0  0.28598  0.63359  0.95168  1.0000
  S   S428      1.0  0.37337  0.64191  0.96984  1.0000
  C   C1562     1.0  0.44609  0.62724  0.92705  1.0000
  C   C1563     1.0  0.01619  0.68053  0.64264  1.0000
  H   H1852     1.0  0.07084  0.67300  0.57424  1.0000
  H   H1853     1.0  0.07872  0.64809  0.57694  1.0000
  H   H1854     1.0  0.28439  0.64083  0.92288  1.0000
  N   N103      1.0  0.09239  0.63215  0.71446  1.0000
  C   C1564     1.0  0.09299  0.61650  0.71913  1.0000
  C   C1565     1.0  0.10746  0.63404  0.70757  1.0000
  C   C1566     1.0  0.08747  0.63835  0.72731  1.0000
  C   C1567     1.0  0.08198  0.63905  0.70500  1.0000
  C   C1568     1.0  0.08581  0.64766  0.69108  1.0000
  C   C1569     1.0  0.06730  0.63765  0.70986  1.0000
  C   C1570     1.0  0.07549  0.65445  0.68271  1.0000
  C   C1571     1.0  0.05712  0.64434  0.70136  1.0000
  C   C1572     1.0  0.06119  0.65280  0.68783  1.0000
  H   H1855     1.0  0.09553  0.61157  0.70982  1.0000
  H   H1856     1.0  0.10152  0.61074  0.72535  1.0000
  H   H1857     1.0  0.08259  0.61398  0.72609  1.0000
  H   H1858     1.0  0.11184  0.62958  0.69781  1.0000
  H   H1859     1.0  0.11512  0.62832  0.71475  1.0000
  H   H1860     1.0  0.10804  0.64553  0.70460  1.0000
  H   H1861     1.0  0.07673  0.63625  0.73378  1.0000
  H   H1862     1.0  0.09522  0.63370  0.73453  1.0000
  H   H1863     1.0  0.08638  0.65019  0.72427  1.0000
  H   H1864     1.0  0.09669  0.64938  0.68635  1.0000
  H   H1865     1.0  0.06353  0.63146  0.72039  1.0000
  H   H1866     1.0  0.07855  0.66116  0.67219  1.0000
  H   H1867     1.0  0.04599  0.64308  0.70541  1.0000
  H   H1868     1.0  0.05324  0.65820  0.68132  1.0000
  C   C1573     1.0  0.06742  0.73029  0.61730  1.0000
  C   C1574     1.0  0.00881  0.65571  0.68279  1.0000
  H   H1869     1.0  0.41648  0.63524  0.92845  1.0000
  H   H1870     1.0  0.46802  0.79025  0.91443  1.0000
  C   C1575     1.0  0.45900  0.62660  0.93116  1.0000
  C   C1576     1.0  0.06834  0.64755  0.57492  1.0000
  H   H1871     1.0  0.04678  0.60471  0.59055  1.0000
  S   S429      1.0  0.14776  0.77100  0.51860  1.0000
  H   H1872     1.0  0.02590  0.63926  0.56529  1.0000
  H   H1873     1.0  0.08026  0.76170  0.58422  1.0000
  C   C1577     1.0  0.43525  0.60979  0.96872  1.0000
  C   C1578     1.0  0.29285  0.64540  0.94562  1.0000
  C   C1579     1.0  0.01122  0.61574  0.74108  1.0000
  H   H1874     1.0  0.36327  0.61357  0.96050  1.0000
  H   H1875     1.0  0.04522  0.62652  0.59827  1.0000
  H   H1876     1.0  0.09288  0.74077  0.53034  1.0000
  H   H1877     1.0  0.06545  0.75180  0.60530  1.0000
  H   H1878     1.0  0.43823  0.60048  0.96415  1.0000
  H   H1879     1.0  0.40738  0.73263  0.95248  1.0000
  H   H1880     1.0  0.07341  0.59598  0.63670  1.0000
  H   H1881     1.0  0.17580  0.73766  0.52939  1.0000
  H   H1882     1.0  0.15670  0.73845  0.53624  1.0000
  C   C1580     1.0  0.03647  0.61016  0.59593  1.0000
  S   S430      1.0  0.41141  0.61827  0.95679  1.0000
  H   H1883     1.0  0.27574  0.66449  0.92940  1.0000
  H   H1884     1.0  0.06493  0.59947  0.49303  1.0000
  C   C1581     1.0  0.01367  0.64347  0.69261  1.0000
  C   C1582     1.0  0.09186  0.60399  0.65495  1.0000
  H   H1885     1.0  0.49609  0.75902  0.90354  1.0000
  H   H1886     1.0  0.12581  0.77439  0.48725  1.0000
  N   N104      1.0  0.10562  0.59934  0.64485  1.0000
  H   H1887     1.0  0.40327  0.66773  0.97477  1.0000
  C   C1583     1.0  0.03344  0.61749  0.64447  1.0000
  C   C1584     1.0  0.03441  0.62158  0.66668  1.0000
  S   S431      1.0  0.06215  0.59985  0.52207  1.0000
  C   C1585     1.0  0.04645  0.62708  0.66622  1.0000
  C   C1586     1.0  0.41812  0.63151  0.97373  1.0000
  H   H1888     1.0  0.32494  0.60245  0.98322  1.0000
  H   H1889     1.0  0.06463  0.65669  0.59828  1.0000
  H   H1890     1.0  0.39845  0.59960  0.98250  1.0000
  C   C1587     1.0  0.14610  0.74790  0.49202  1.0000
  N   N105      1.0  0.49010  0.77805  0.91199  1.0000
  S   S432      1.0  0.37190  0.67425  0.98501  1.0000
  S   S433      1.0  0.14309  0.78925  0.54932  1.0000
  C   C1588     1.0  0.41136  0.73063  0.96210  1.0000
  H   H1891     1.0  0.06498  0.76066  0.48886  1.0000
  C   C1589     1.0  0.00974  0.62451  0.60986  1.0000
  H   H1892     1.0  0.04505  0.61800  0.63989  1.0000
  H   H1893     1.0  0.13803  0.70345  0.52123  1.0000
  H   H1894     1.0  0.05053  0.63495  0.65714  1.0000
  C   C1590     1.0  0.29584  0.64154  0.92142  1.0000
  Fe  Fe216     1.0  0.37660  0.66413  0.96617  1.0000
  C   C1591     1.0  0.10958  0.61243  0.63456  1.0000
  N   N106      1.0  0.45316  0.70673  0.93151  1.0000
  C   C1592     1.0  0.45015  0.71194  0.91696  1.0000
  C   C1593     1.0  0.44661  0.71841  0.93940  1.0000
  C   C1594     1.0  0.46919  0.70361  0.92982  1.0000
  C   C1595     1.0  0.44664  0.69419  0.93928  1.0000
  C   C1596     1.0  0.45486  0.68065  0.94523  1.0000
  C   C1597     1.0  0.43146  0.69550  0.94151  1.0000
  C   C1598     1.0  0.44817  0.66920  0.95282  1.0000
  C   C1599     1.0  0.42492  0.68396  0.94894  1.0000
  C   C1600     1.0  0.43327  0.67084  0.95457  1.0000
  H   H1895     1.0  0.45537  0.72105  0.91062  1.0000
  H   H1896     1.0  0.45425  0.70329  0.91089  1.0000
  H   H1897     1.0  0.43836  0.71600  0.91713  1.0000
  H   H1898     1.0  0.43506  0.72325  0.93873  1.0000
  H   H1899     1.0  0.45243  0.72734  0.93502  1.0000
  H   H1900     1.0  0.44690  0.71445  0.95092  1.0000
  H   H1901     1.0  0.47480  0.69502  0.92380  1.0000
  H   H1902     1.0  0.47374  0.71320  0.92361  1.0000
  H   H1903     1.0  0.47226  0.70049  0.94035  1.0000
  H   H1904     1.0  0.46642  0.67866  0.94436  1.0000
  H   H1905     1.0  0.42452  0.70557  0.93762  1.0000
  H   H1906     1.0  0.09131  0.73057  0.51114  1.0000
  H   H1907     1.0  0.41327  0.68530  0.95049  1.0000
  H   H1908     1.0  0.42816  0.66194  0.96050  1.0000
  N   N107      1.0  0.09320  0.75571  0.60014  1.0000
  C   C1601     1.0  0.09177  0.75898  0.58513  1.0000
  C   C1602     1.0  0.08458  0.76804  0.60665  1.0000
  C   C1603     1.0  0.10870  0.75436  0.59990  1.0000
  C   C1604     1.0  0.08770  0.74264  0.60815  1.0000
  C   C1605     1.0  0.09671  0.72974  0.61420  1.0000
  C   C1606     1.0  0.05350  0.62254  0.67760  1.0000
  H   H1909     1.0  0.09753  0.74967  0.58011  1.0000
  H   H1910     1.0  0.27734  0.61923  0.97085  1.0000
  H   H1911     1.0  0.09648  0.76831  0.57853  1.0000
  H   H1912     1.0  0.07304  0.77099  0.60578  1.0000
  H   H1913     1.0  0.08894  0.77788  0.60132  1.0000
  H   H1914     1.0  0.08475  0.76562  0.61818  1.0000
  H   H1915     1.0  0.11601  0.74594  0.59427  1.0000
  H   H1916     1.0  0.11237  0.76449  0.59413  1.0000
  H   H1917     1.0  0.11061  0.75184  0.61088  1.0000
  H   H1918     1.0  0.10820  0.72862  0.61317  1.0000
  N   N108      1.0  0.43718  0.64127  0.92119  1.0000
  H   H1919     1.0  0.42803  0.64523  0.94224  1.0000
  C   C1607     1.0  0.04907  0.61216  0.68951  1.0000
  H   H1920     1.0  0.17602  0.70628  0.55911  1.0000
  H   H1921     1.0  0.16580  0.73298  0.51977  1.0000
  H   H1922     1.0  0.45481  0.60436  0.97672  1.0000
  C   C1608     1.0  0.43315  0.65076  0.93139  1.0000
  C   C1609     1.0  0.31231  0.65267  0.92565  1.0000
  H   H1923     1.0  0.43917  0.65870  0.90268  1.0000
  C   C1610     1.0  0.09840  0.76266  0.49122  1.0000
  H   H1924     1.0  0.16662  0.78852  0.52656  1.0000
  H   H1925     1.0  0.15657  0.76455  0.49099  1.0000
  H   H1926     1.0  0.49341  0.76933  0.85136  1.0000
  H   H1927     1.0  0.10698  0.60132  0.61575  1.0000
  H   H1928     1.0  0.48122  0.78451  0.81754  1.0000
  C   C1611     1.0  0.18327  0.70894  0.53079  1.0000
  S   S434      1.0  0.41808  0.77448  0.89719  1.0000
  C   C1612     1.0  0.05669  0.59366  0.49954  1.0000
  C   C1613     1.0  0.09331  0.74124  0.50864  1.0000
  C   C1614     1.0  0.49552  0.78816  0.89882  1.0000
  C   C1615     1.0  0.15754  0.71055  0.54100  1.0000
  C   C1616     1.0  0.41573  0.74143  0.96501  1.0000
  C   C1617     1.0  0.15306  0.70975  0.52900  1.0000
  H   H1929     1.0  0.16365  0.72358  0.55900  1.0000
  C   C1618     1.0  0.17554  0.78888  0.51690  1.0000
  C   C1619     1.0  0.01803  0.59631  0.72882  1.0000
  C   C1620     1.0  0.04599  0.78688  0.49437  1.0000
  C   C1621     1.0  0.49192  0.74472  0.88296  1.0000
  C   C1622     1.0  0.44460  0.61196  0.97585  1.0000
  C   C1623     1.0  0.41201  0.71731  0.97159  1.0000
  C   C1624     1.0  0.03084  0.61036  0.67856  1.0000
  C   C1625     1.0  0.44085  0.62418  0.98148  1.0000
  H   H1930     1.0  0.28366  0.62787  0.94524  1.0000
  H   H1931     1.0  0.02255  0.60485  0.67936  1.0000
  C   C1626     1.0  0.47677  0.78568  0.92054  1.0000
  S   S435      1.0  0.28211  0.59828  0.94905  1.0000
  C   C1627     1.0  0.00723  0.60637  0.73558  1.0000
  H   H1932     1.0  0.00292  0.62355  0.74627  1.0000
  S   S436      1.0  0.48807  0.78811  0.95073  1.0000
  C   C1628     1.0  0.03800  0.60587  0.68981  1.0000
  S   S437      1.0  0.09371  0.60156  0.57080  1.0000
  N   N109      1.0  0.10396  0.78272  0.49787  1.0000
  H   H1933     1.0  0.05857  0.76965  0.50810  1.0000
  C   C1629     1.0  0.48639  0.76574  0.90931  1.0000
  C   C1630     1.0  0.49762  0.78590  0.88491  1.0000
  S   S438      1.0  0.32313  0.60246  0.92809  1.0000
  C   C1631     1.0  0.46737  0.61355  0.93712  1.0000
  S   S439      1.0  0.45741  0.77099  0.97382  1.0000
  H   H1934     1.0  0.12018  0.60036  0.65701  1.0000
  H   H1935     1.0  0.08275  0.60893  0.64932  1.0000
  C   C1632     1.0  0.01491  0.65883  0.57229  1.0000
  H   H1936     1.0  0.47243  0.77837  0.93059  1.0000
  H   H1937     1.0  0.47779  0.76937  0.90302  1.0000
  C   C1633     1.0  0.00744  0.69437  0.66090  1.0000
  Fe  Fe217     1.0  0.47247  0.78507  0.97180  1.0000
  H   H1938     1.0  0.49549  0.78313  0.82586  1.0000
  C   C1634     1.0  0.05290  0.59242  0.51434  1.0000
  C   C1635     1.0  0.42048  0.73908  0.97759  1.0000
  C   C1636     1.0  0.02802  0.61913  0.48646  1.0000
  H   H1939     1.0  0.32516  0.63072  0.98429  1.0000
  H   H1940     1.0  0.33926  0.67169  0.98266  1.0000
  C   C1637     1.0  0.05168  0.78862  0.51610  1.0000
  C   C1638     1.0  0.10456  0.59156  0.62304  1.0000
  H   H1941     1.0  0.16975  0.78998  0.58565  1.0000
  C   C1639     1.0  0.11735  0.59250  0.65286  1.0000
  C   C1640     1.0  0.50144  0.77211  0.92053  1.0000
  H   H1942     1.0  0.35446  0.59277  0.97634  1.0000
  S   S440      1.0  0.12267  0.59170  0.69857  1.0000
  H   H1943     1.0  0.39995  0.59191  0.96339  1.0000
  H   H1944     1.0  0.06492  0.59167  0.66313  1.0000
  H   H1945     1.0  0.09459  0.74463  0.48618  1.0000
  H   H1946     1.0  0.44361  0.81311  0.03894  1.0000
  Fe  Fe218     1.0  0.19545  0.85441  0.45450  1.0000
  S   S441      1.0  0.21745  0.85061  0.45893  1.0000
  S   S442      1.0  0.18058  0.87622  0.45365  1.0000
  Fe  Fe219     1.0  0.22431  0.83603  0.44368  1.0000
  S   S443      1.0  0.24544  0.83618  0.42684  1.0000
  C   C1641     1.0  0.46677  0.87562  0.19308  1.0000
  S   S444      1.0  0.20238  0.84114  0.43796  1.0000
  C   C1642     1.0  0.10043  0.81335  0.45644  1.0000
  C   C1643     1.0  0.16173  0.83774  0.44552  1.0000
  H   H1947     1.0  0.38986  0.91392  0.39062  1.0000
  H   H1948     1.0  0.38045  0.90418  0.34331  1.0000
  H   H1949     1.0  0.47754  0.82148  0.14180  1.0000
  H   H1950     1.0  0.29107  0.90934  0.45857  1.0000
  S   S445      1.0  0.34765  0.96093  0.45782  1.0000
  C   C1644     1.0  0.47514  0.86278  0.22717  1.0000
  H   H1951     1.0  0.30246  0.88886  0.44511  1.0000
  S   S446      1.0  0.48151  0.84656  0.16080  1.0000
  S   S447      1.0  0.47438  0.83204  0.20323  1.0000
  C   C1645     1.0  0.31867  0.90753  0.44476  1.0000
  H   H1952     1.0  0.24848  0.85469  0.46944  1.0000
  N   N110      1.0  0.25919  0.83544  0.48210  1.0000
  C   C1646     1.0  0.38267  0.97360  0.42234  1.0000
  N   N111      1.0  0.46874  0.87615  0.21781  1.0000
  Fe  Fe220     1.0  0.42281  0.88102  0.30352  1.0000
  S   S448      1.0  0.43347  0.88836  0.28063  1.0000
  S   S449      1.0  0.43148  0.87928  0.32260  1.0000
  Fe  Fe221     1.0  0.39565  0.87948  0.29574  1.0000
  S   S450      1.0  0.40443  0.88638  0.27210  1.0000
  S   S451      1.0  0.37190  0.87971  0.30435  1.0000
  Fe  Fe222     1.0  0.42530  0.87126  0.27669  1.0000
  S   S452      1.0  0.44348  0.85709  0.26391  1.0000
  Fe  Fe223     1.0  0.41182  0.90249  0.27847  1.0000
  S   S453      1.0  0.40854  0.92598  0.26852  1.0000
  S   S454      1.0  0.41586  0.86298  0.29997  1.0000
  S   S455      1.0  0.40178  0.89653  0.30165  1.0000
  Fe  Fe224     1.0  0.33351  0.87144  0.38099  1.0000
  S   S456      1.0  0.30960  0.87240  0.38441  1.0000
  S   S457      1.0  0.35299  0.85647  0.37100  1.0000
  Fe  Fe225     1.0  0.32879  0.89726  0.39295  1.0000
  S   S458      1.0  0.30456  0.90042  0.39808  1.0000
  S   S459      1.0  0.33968  0.91413  0.39316  1.0000
  Fe  Fe226     1.0  0.30795  0.87656  0.40582  1.0000
  S   S460      1.0  0.29187  0.86991  0.42641  1.0000
  Fe  Fe227     1.0  0.30786  0.89615  0.37656  1.0000
  S   S461      1.0  0.29370  0.91130  0.36220  1.0000
  S   S462      1.0  0.33214  0.87378  0.40306  1.0000
  S   S463      1.0  0.33175  0.89474  0.37085  1.0000
  Fe  Fe228     1.0  0.48369  0.93993  0.34464  1.0000
  H   H1953     1.0  0.39311  0.86484  0.35783  1.0000
  H   H1954     1.0  0.08749  0.79169  0.48548  1.0000
  Fe  Fe229     1.0  0.46765  0.91656  0.36190  1.0000
  S   S464      1.0  0.48375  0.89969  0.35112  1.0000
  S   S465      1.0  0.44719  0.91121  0.37700  1.0000
  Fe  Fe230     1.0  0.42091  0.98173  0.29899  1.0000
  Fe  Fe231     1.0  0.48255  0.91679  0.33114  1.0000
  S   S466      1.0  0.48122  0.91253  0.31079  1.0000
  S   S467      1.0  0.48467  0.92496  0.36597  1.0000
  S   S468      1.0  0.46517  0.93299  0.34167  1.0000
  Fe  Fe232     1.0  0.36775  0.94380  0.45419  1.0000
  H   H1955     1.0  0.34827  0.88163  0.45363  1.0000
  S   S469      1.0  0.02510  0.82059  0.45426  1.0000
  Fe  Fe233     1.0  0.39965  0.93663  0.44052  1.0000
  S   S470      1.0  0.40215  0.91350  0.45174  1.0000
  S   S471      1.0  0.41876  0.94523  0.42607  1.0000
  Fe  Fe234     1.0  0.38114  0.91530  0.44608  1.0000
  S   S472      1.0  0.37872  0.89722  0.43829  1.0000
  H   H1956     1.0  0.07726  0.81932  0.46429  1.0000
  S   S473      1.0  0.37969  0.93793  0.43324  1.0000
  S   S474      1.0  0.38758  0.94486  0.46022  1.0000
  C   C1647     1.0  0.33320  0.91630  0.45541  1.0000
  C   C1648     1.0  0.44029  0.91988  0.39129  1.0000
  C   C1649     1.0  0.42791  0.91658  0.40147  1.0000
  C   C1650     1.0  0.42143  0.92421  0.41231  1.0000
  C   C1651     1.0  0.42730  0.93517  0.41299  1.0000
  C   C1652     1.0  0.43981  0.93835  0.40295  1.0000
  C   C1653     1.0  0.44634  0.93066  0.39212  1.0000
  H   H1957     1.0  0.42323  0.90821  0.40090  1.0000
  H   H1958     1.0  0.41177  0.92170  0.42000  1.0000
  H   H1959     1.0  0.44437  0.94681  0.40347  1.0000
  H   H1960     1.0  0.45585  0.93329  0.38427  1.0000
  C   C1654     1.0  0.35032  0.90930  0.40586  1.0000
  C   C1655     1.0  0.35285  0.92006  0.41067  1.0000
  C   C1656     1.0  0.36146  0.91643  0.42073  1.0000
  C   C1657     1.0  0.36786  0.90207  0.42571  1.0000
  C   C1658     1.0  0.36540  0.89134  0.42078  1.0000
  C   C1659     1.0  0.35651  0.89492  0.41097  1.0000
  H   H1961     1.0  0.34791  0.93119  0.40688  1.0000
  H   H1962     1.0  0.36295  0.92473  0.42474  1.0000
  H   H1963     1.0  0.37030  0.88021  0.42466  1.0000
  H   H1964     1.0  0.35466  0.88658  0.40722  1.0000
  C   C1660     1.0  0.01873  0.84520  0.48254  1.0000
  C   C1661     1.0  0.32137  0.91859  0.44931  1.0000
  C   C1662     1.0  0.31980  0.95979  0.45981  1.0000
  C   C1663     1.0  0.30847  0.95899  0.45440  1.0000
  C   C1664     1.0  0.42556  0.81289  0.19282  1.0000
  H   H1965     1.0  0.46134  0.81725  0.03162  1.0000
  H   H1966     1.0  0.49004  0.94781  0.27288  1.0000
  C   C1665     1.0  0.29034  0.95757  0.36355  1.0000
  C   C1666     1.0  0.28281  0.95457  0.35518  1.0000
  C   C1667     1.0  0.28381  0.94035  0.35484  1.0000
  C   C1668     1.0  0.29264  0.92909  0.36260  1.0000
  C   C1669     1.0  0.30060  0.93213  0.37055  1.0000
  C   C1670     1.0  0.29917  0.94630  0.37133  1.0000
  H   H1967     1.0  0.27603  0.96327  0.34908  1.0000
  H   H1968     1.0  0.27778  0.93811  0.34851  1.0000
  H   H1969     1.0  0.30796  0.92362  0.37604  1.0000
  H   H1970     1.0  0.30501  0.94849  0.37782  1.0000
  C   C1671     1.0  0.44489  0.88910  0.31914  1.0000
  C   C1672     1.0  0.44841  0.89185  0.33056  1.0000
  C   C1673     1.0  0.45927  0.89942  0.32801  1.0000
  C   C1674     1.0  0.46697  0.90388  0.31406  1.0000
  C   C1675     1.0  0.46344  0.90117  0.30264  1.0000
  C   C1676     1.0  0.45236  0.89389  0.30518  1.0000
  H   H1971     1.0  0.44280  0.88808  0.34140  1.0000
  H   H1972     1.0  0.46176  0.90161  0.33689  1.0000
  H   H1973     1.0  0.46929  0.90468  0.29183  1.0000
  H   H1974     1.0  0.44990  0.89174  0.29633  1.0000
  C   C1677     1.0  0.36684  0.87309  0.32284  1.0000
  C   C1678     1.0  0.35238  0.87729  0.32998  1.0000
  C   C1679     1.0  0.34809  0.87227  0.34479  1.0000
  C   C1680     1.0  0.35814  0.86265  0.35242  1.0000
  C   C1681     1.0  0.37256  0.85828  0.34524  1.0000
  C   C1682     1.0  0.37698  0.86370  0.33051  1.0000
  H   H1975     1.0  0.34448  0.88438  0.32403  1.0000
  H   H1976     1.0  0.33689  0.87549  0.35022  1.0000
  H   H1977     1.0  0.38029  0.85066  0.35109  1.0000
  H   H1978     1.0  0.38811  0.86028  0.32501  1.0000
  H   H1979     1.0  0.47958  0.82779  0.12282  1.0000
  H   H1980     1.0  0.49664  0.86635  0.13903  1.0000
  C   C1683     1.0  0.02115  0.87136  0.45083  1.0000
  C   C1684     1.0  0.46263  0.97352  0.32919  1.0000
  H   H1981     1.0  0.50020  0.83716  0.20836  1.0000
  H   H1982     1.0  0.42581  0.94334  0.46032  1.0000
  H   H1983     1.0  0.46388  0.96295  0.32761  1.0000
  C   C1685     1.0  0.44897  0.92281  0.45316  1.0000
  C   C1686     1.0  0.42239  0.94899  0.29417  1.0000
  C   C1687     1.0  0.41595  0.95682  0.28268  1.0000
  C   C1688     1.0  0.41187  0.94970  0.27471  1.0000
  C   C1689     1.0  0.41429  0.93473  0.27815  1.0000
  C   C1690     1.0  0.42089  0.92688  0.28955  1.0000
  C   C1691     1.0  0.42494  0.93400  0.29754  1.0000
  H   H1984     1.0  0.41419  0.96835  0.27984  1.0000
  H   H1985     1.0  0.40685  0.95582  0.26585  1.0000
  H   H1986     1.0  0.42297  0.91531  0.29221  1.0000
  H   H1987     1.0  0.43007  0.92785  0.30632  1.0000
  H   H1988     1.0  0.15003  0.82441  0.47192  1.0000
  H   H1989     1.0  0.48136  0.86483  0.23382  1.0000
  C   C1692     1.0  0.34047  0.89184  0.45271  1.0000
  H   H1990     1.0  0.27766  0.81076  0.43664  1.0000
  C   C1693     1.0  0.11180  0.80383  0.44960  1.0000
  Fe  Fe235     1.0  0.47846  0.82949  0.18077  1.0000
  H   H1991     1.0  0.42485  0.94139  0.48424  1.0000
  C   C1694     1.0  0.43753  0.83172  0.23528  1.0000
  C   C1695     1.0  0.45084  0.82929  0.23895  1.0000
  C   C1696     1.0  0.45217  0.83655  0.24845  1.0000
  C   C1697     1.0  0.44032  0.84656  0.25412  1.0000
  C   C1698     1.0  0.42683  0.84873  0.25084  1.0000
  C   C1699     1.0  0.42542  0.84121  0.24148  1.0000
  H   H1992     1.0  0.46018  0.82184  0.23440  1.0000
  H   H1993     1.0  0.46256  0.83468  0.25108  1.0000
  H   H1994     1.0  0.41762  0.85643  0.25518  1.0000
  H   H1995     1.0  0.41507  0.84312  0.23870  1.0000
  C   C1700     1.0  0.39500  0.90992  0.38094  1.0000
  C   C1701     1.0  0.42512  0.82508  0.16826  1.0000
  H   H1996     1.0  0.48715  0.82717  0.01993  1.0000
  H   H1997     1.0  0.42372  0.81387  0.20372  1.0000
  C   C1702     1.0  0.48358  0.84728  0.27904  1.0000
  S   S475      1.0  0.28174  0.98501  0.40102  1.0000
  C   C1703     1.0  0.26622  0.98235  0.45283  1.0000
  H   H1998     1.0  0.43004  0.90536  0.46156  1.0000
  C   C1704     1.0  0.36898  0.98270  0.42526  1.0000
  H   H1999     1.0  0.39993  0.86753  0.37150  1.0000
  H   H2000     1.0  0.49605  0.97564  0.30782  1.0000
  H   H2001     1.0  0.48257  0.85501  0.22079  1.0000
  H   H2002     1.0  0.45182  0.89506  0.22033  1.0000
  H   H2003     1.0  0.46238  0.88875  0.23386  1.0000
  C   C1705     1.0  0.45755  0.88528  0.22694  1.0000
  C   C1706     1.0  0.26093  0.81414  0.45532  1.0000
  C   C1707     1.0  0.25811  0.84583  0.42676  1.0000
  C   C1708     1.0  0.25575  0.85360  0.43717  1.0000
  C   C1709     1.0  0.26616  0.86090  0.43696  1.0000
  C   C1710     1.0  0.27901  0.86062  0.42627  1.0000
  C   C1711     1.0  0.28136  0.85294  0.41579  1.0000
  C   C1712     1.0  0.27096  0.84559  0.41605  1.0000
  H   H2004     1.0  0.24595  0.85390  0.44542  1.0000
  H   H2005     1.0  0.26423  0.86684  0.44507  1.0000
  H   H2006     1.0  0.29128  0.85249  0.40758  1.0000
  H   H2007     1.0  0.27293  0.83956  0.40798  1.0000
  C   C1713     1.0  0.24608  0.84679  0.47969  1.0000
  H   H2008     1.0  0.45874  0.80190  0.14207  1.0000
  Fe  Fe236     1.0  0.21130  0.83157  0.47547  1.0000
  H   H2009     1.0  0.47564  0.88091  0.18759  1.0000
  H   H2010     1.0  0.46667  0.85734  0.23478  1.0000
  C   C1714     1.0  0.46195  0.87252  0.20823  1.0000
  H   H2011     1.0  0.03085  0.88111  0.46130  1.0000
  S   S476      1.0  0.43638  0.82364  0.22223  1.0000
  S   S477      1.0  0.28892  0.97551  0.36358  1.0000
  C   C1715     1.0  0.48052  0.88396  0.21005  1.0000
  H   H2012     1.0  0.48964  0.87739  0.20350  1.0000
  C   C1716     1.0  0.42285  0.82555  0.18252  1.0000
  H   H2013     1.0  0.12285  0.80527  0.44695  1.0000
  H   H2014     1.0  0.16812  0.83659  0.45350  1.0000
  H   H2015     1.0  0.42708  0.94542  0.34500  1.0000
  S   S478      1.0  0.49647  0.80997  0.18306  1.0000
  N   N112      1.0  0.43746  0.92146  0.46647  1.0000
  H   H2016     1.0  0.14325  0.83071  0.43568  1.0000
  C   C1717     1.0  0.04386  0.84248  0.46960  1.0000
  H   H2017     1.0  0.07243  0.79823  0.45959  1.0000
  H   H2018     1.0  0.36899  0.87855  0.36468  1.0000
  H   H2019     1.0  0.45125  0.96685  0.28238  1.0000
  S   S479      1.0  0.42727  0.95765  0.30452  1.0000
  N   N113      1.0  0.47126  0.95471  0.28868  1.0000
  H   H2020     1.0  0.00742  0.89169  0.47558  1.0000
  H   H2021     1.0  0.25399  0.80870  0.45307  1.0000
  C   C1718     1.0  0.48545  0.99072  0.29177  1.0000
  H   H2022     1.0  0.44914  0.87956  0.23439  1.0000
  H   H2023     1.0  0.32452  0.95834  0.36092  1.0000
  H   H2024     1.0  0.48308  0.83807  0.13301  1.0000
  H   H2025     1.0  0.06526  0.79674  0.42499  1.0000
  H   H2026     1.0  0.48012  0.93412  0.28312  1.0000
  C   C1719     1.0  0.43008  0.81193  0.16426  1.0000
  H   H2027     1.0  0.30935  0.93136  0.42576  1.0000
  H   H2028     1.0  0.34919  0.95639  0.37448  1.0000
  C   C1720     1.0  0.39796  0.87228  0.36053  1.0000
  Fe  Fe237     1.0  0.49105  0.81141  0.20598  1.0000
  H   H2029     1.0  0.31855  0.91696  0.41708  1.0000
  H   H2030     1.0  0.44386  0.89824  0.47158  1.0000
  H   H2031     1.0  0.45827  0.94004  0.30328  1.0000
  C   C1721     1.0  0.28299  0.82281  0.44844  1.0000
  H   H2032     1.0  0.46850  0.84179  0.31480  1.0000
  S   S480      1.0  0.34665  0.98492  0.37921  1.0000
  H   H2033     1.0  0.49033  0.85906  0.29795  1.0000
  C   C1722     1.0  0.47509  0.83890  0.30452  1.0000
  H   H2034     1.0  0.41475  0.93122  0.47264  1.0000
  H   H2035     1.0  0.11765  0.84707  0.46651  1.0000
  C   C1723     1.0  0.38256  0.94961  0.38436  1.0000
  C   C1724     1.0  0.38259  0.95807  0.37064  1.0000
  C   C1725     1.0  0.46361  0.94854  0.30326  1.0000
  H   H2036     1.0  0.27399  0.97245  0.45681  1.0000
  C   C1726     1.0  0.48876  0.83253  0.26147  1.0000
  C   C1727     1.0  0.40829  0.94846  0.38047  1.0000
  N   N114      1.0  0.49975  0.81901  0.13002  1.0000
  H   H2037     1.0  0.05019  0.83019  0.45340  1.0000
  H   H2038     1.0  0.31446  0.92919  0.44797  1.0000
  C   C1728     1.0  0.12444  0.85419  0.46576  1.0000
  C   C1729     1.0  0.39490  0.89600  0.36424  1.0000
  H   H2039     1.0  0.43546  0.96037  0.33602  1.0000
  S   S481      1.0  0.10451  0.82638  0.46225  1.0000
  H   H2040     1.0  0.43772  0.94360  0.36538  1.0000
  C   C1730     1.0  0.32526  0.95655  0.43179  1.0000
  S   S482      1.0  0.46110  0.81737  0.18534  1.0000
  C   C1731     1.0  0.44903  0.86444  0.19052  1.0000
  C   C1732     1.0  0.26476  0.82827  0.46990  1.0000
  N   N115      1.0  0.14601  0.83897  0.45226  1.0000
  H   H2041     1.0  0.28003  0.83429  0.48591  1.0000
  H   H2042     1.0  0.41910  0.83578  0.18563  1.0000
  C   C1733     1.0  0.01633  0.83677  0.47466  1.0000
  H   H2043     1.0  0.37772  0.90024  0.38319  1.0000
  H   H2044     1.0  0.39764  0.89286  0.33698  1.0000
  H   H2045     1.0  0.18997  0.86097  0.47967  1.0000
  Fe  Fe238     1.0  0.38840  0.92176  0.47105  1.0000
  C   C1734     1.0  0.45522  0.91404  0.48244  1.0000
  H   H2046     1.0  0.45400  0.84896  0.29045  1.0000
  C   C1735     1.0  0.16419  0.89160  0.47397  1.0000
  C   C1736     1.0  0.40875  0.89881  0.35661  1.0000
  H   H2047     1.0  0.43363  0.95892  0.37333  1.0000
  N   N116      1.0  0.38837  0.88684  0.35966  1.0000
  H   H2048     1.0  0.47639  0.89428  0.20295  1.0000
  C   C1737     1.0  0.38814  0.90192  0.37654  1.0000
  C   C1738     1.0  0.38690  0.89295  0.34463  1.0000
  H   H2049     1.0  0.48535  0.88662  0.21752  1.0000
  S   S483      1.0  0.48042  0.81396  0.00118  1.0000
  C   C1739     1.0  0.49641  0.85582  0.17449  1.0000
  H   H2050     1.0  0.04531  0.79420  0.41605  1.0000
  H   H2051     1.0  0.45852  0.86582  0.28112  1.0000
  H   H2052     1.0  0.03155  0.86634  0.44495  1.0000
  N   N117      1.0  0.34740  0.94795  0.35764  1.0000
  C   C1740     1.0  0.33522  0.96018  0.35411  1.0000
  C   C1741     1.0  0.34402  0.93482  0.35634  1.0000
  C   C1742     1.0  0.34770  0.94641  0.37272  1.0000
  C   C1743     1.0  0.36176  0.94979  0.34837  1.0000
  C   C1744     1.0  0.36385  0.96270  0.33817  1.0000
  C   C1745     1.0  0.37431  0.93852  0.34957  1.0000
  C   C1746     1.0  0.37757  0.96403  0.32954  1.0000
  C   C1747     1.0  0.38797  0.93994  0.34084  1.0000
  C   C1748     1.0  0.38957  0.95264  0.33078  1.0000
  C   C1749     1.0  0.48433  0.82693  0.13195  1.0000
  H   H2053     1.0  0.31764  0.96133  0.47056  1.0000
  H   H2054     1.0  0.33634  0.97025  0.35600  1.0000
  H   H2055     1.0  0.34493  0.93494  0.34499  1.0000
  N   N118      1.0  0.46149  0.79533  0.04308  1.0000
  H   H2056     1.0  0.35124  0.92483  0.36097  1.0000
  H   H2057     1.0  0.35648  0.93740  0.37632  1.0000
  S   S484      1.0  0.50090  0.92530  0.33214  1.0000
  H   H2058     1.0  0.33738  0.94411  0.38008  1.0000
  H   H2059     1.0  0.27252  0.85110  0.47483  1.0000
  H   H2060     1.0  0.37366  0.92858  0.35743  1.0000
  H   H2061     1.0  0.12076  0.88531  0.47545  1.0000
  H   H2062     1.0  0.39742  0.93121  0.34194  1.0000
  H   H2063     1.0  0.40015  0.95373  0.32399  1.0000
  N   N119      1.0  0.36623  0.93196  0.29999  1.0000
  C   C1750     1.0  0.37814  0.92862  0.30756  1.0000
  C   C1751     1.0  0.36941  0.92143  0.29095  1.0000
  C   C1752     1.0  0.36630  0.94630  0.29019  1.0000
  C   C1753     1.0  0.35235  0.93108  0.31066  1.0000
  C   C1754     1.0  0.35015  0.91770  0.31981  1.0000
  C   C1755     1.0  0.34083  0.94329  0.31254  1.0000
  C   C1756     1.0  0.33707  0.91653  0.32980  1.0000
  C   C1757     1.0  0.32779  0.94198  0.32261  1.0000
  C   C1758     1.0  0.32587  0.92862  0.33111  1.0000
  H   H2064     1.0  0.37919  0.91777  0.31471  1.0000
  H   H2065     1.0  0.38885  0.92890  0.29988  1.0000
  H   H2066     1.0  0.37632  0.93649  0.31419  1.0000
  H   H2067     1.0  0.37932  0.92236  0.28224  1.0000
  H   H2068     1.0  0.36021  0.92294  0.28588  1.0000
  H   H2069     1.0  0.37151  0.91013  0.29702  1.0000
  H   H2070     1.0  0.36513  0.95471  0.29599  1.0000
  H   H2071     1.0  0.37679  0.94634  0.28206  1.0000
  H   H2072     1.0  0.35752  0.94953  0.28417  1.0000
  H   H2073     1.0  0.35843  0.90792  0.31914  1.0000
  H   H2074     1.0  0.34152  0.95393  0.30622  1.0000
  H   H2075     1.0  0.33547  0.90614  0.33641  1.0000
  H   H2076     1.0  0.31897  0.95135  0.32373  1.0000
  H   H2077     1.0  0.31565  0.92759  0.33867  1.0000
  H   H2078     1.0  0.41592  0.79340  0.21696  1.0000
  H   H2079     1.0  0.45135  0.80374  0.06208  1.0000
  H   H2080     1.0  0.14936  0.81593  0.45861  1.0000
  H   H2081     1.0  0.39474  0.96855  0.35130  1.0000
  H   H2082     1.0  0.41662  0.98125  0.36439  1.0000
  C   C1759     1.0  0.32872  0.89405  0.44650  1.0000
  C   C1760     1.0  0.00753  0.88558  0.46814  1.0000
  Fe  Fe239     1.0  0.29662  0.98024  0.38052  1.0000
  C   C1761     1.0  0.48376  0.94354  0.28366  1.0000
  N   N120      1.0  0.42195  0.96170  0.35703  1.0000
  C   C1762     1.0  0.47287  0.98100  0.28040  1.0000
  H   H2083     1.0  0.00926  0.86170  0.44300  1.0000
  C   C1763     1.0  0.48014  0.83708  0.27382  1.0000
  C   C1764     1.0  0.40868  0.95708  0.36641  1.0000
  C   C1765     1.0  0.45028  0.86535  0.21403  1.0000
  H   H2084     1.0  0.39538  0.93824  0.39997  1.0000
  C   C1766     1.0  0.43417  0.90705  0.47009  1.0000
  C   C1767     1.0  0.33675  0.95656  0.43748  1.0000
  H   H2085     1.0  0.48604  0.82459  0.25778  1.0000
  H   H2086     1.0  0.37254  0.94701  0.39132  1.0000
  C   C1768     1.0  0.43504  0.95554  0.36324  1.0000
  C   C1769     1.0  0.31111  0.95785  0.44024  1.0000
  H   H2087     1.0  0.45219  0.93327  0.45050  1.0000
  H   H2088     1.0  0.42084  0.93064  0.45429  1.0000
  H   H2089     1.0  0.42566  0.90560  0.48018  1.0000
  H   H2090     1.0  0.28552  0.83521  0.46112  1.0000
  S   S485      1.0  0.41014  0.99087  0.31829  1.0000
  C   C1770     1.0  0.11786  0.86621  0.47170  1.0000
  H   H2091     1.0  0.29928  0.92349  0.41891  1.0000
  C   C1771     1.0  0.00828  0.86882  0.44977  1.0000
  C   C1772     1.0  0.48550  0.96540  0.29863  1.0000
  H   H2092     1.0  0.47070  0.83039  0.30310  1.0000
  H   H2093     1.0  0.50063  0.90194  0.06275  1.0000
  C   C1773     1.0  0.47656  0.96707  0.28909  1.0000
  H   H2094     1.0  0.36584  0.89578  0.36839  1.0000
  C   C1774     1.0  0.43077  0.79930  0.18911  1.0000
  H   H2095     1.0  0.49878  0.81597  0.15240  1.0000
  H   H2096     1.0  0.33519  0.92502  0.45854  1.0000
  Fe  Fe240     1.0  0.50055  0.90964  0.35323  1.0000
  C   C1775     1.0  0.45917  0.85730  0.29103  1.0000
  H   H2097     1.0  0.46633  0.98332  0.27266  1.0000
  H   H2098     1.0  0.24548  0.81974  0.47367  1.0000
  N   N121      1.0  0.47449  0.85157  0.29240  1.0000
  H   H2099     1.0  0.48648  0.83406  0.30575  1.0000
  H   H2100     1.0  0.42633  0.90838  0.35545  1.0000
  H   H2101     1.0  0.36395  0.98286  0.43635  1.0000
  C   C1776     1.0  0.40867  0.91230  0.37330  1.0000
  H   H2102     1.0  0.41467  0.89447  0.34730  1.0000
  H   H2103     1.0  0.34767  0.95567  0.43091  1.0000
  C   C1777     1.0  0.46096  0.95848  0.27913  1.0000
  H   H2104     1.0  0.45504  0.95697  0.30800  1.0000
  H   H2105     1.0  0.12679  0.83996  0.44523  1.0000
  H   H2106     1.0  0.37414  0.87975  0.37984  1.0000
  H   H2107     1.0  0.46439  0.87377  0.17293  1.0000
  H   H2108     1.0  0.47108  0.94333  0.31062  1.0000
  H   H2109     1.0  0.35511  0.97203  0.33668  1.0000
  H   H2110     1.0  0.16642  0.82807  0.44084  1.0000
  H   H2111     1.0  0.33278  0.93375  0.36232  1.0000
  H   H2112     1.0  0.38140  0.88661  0.34112  1.0000
  H   H2113     1.0  0.49197  0.84884  0.18409  1.0000
  C   C1778     1.0  0.44243  0.92328  0.47837  1.0000
  C   C1779     1.0  0.27429  0.81529  0.44602  1.0000
  C   C1780     1.0  0.49037  0.80398  0.07966  1.0000
  H   H2114     1.0  0.19138  0.80233  0.43321  1.0000
  C   C1781     1.0  0.38271  0.98040  0.39723  1.0000
  C   C1782     1.0  0.13851  0.83997  0.44096  1.0000
  C   C1783     1.0  0.02766  0.83140  0.46409  1.0000
  H   H2115     1.0  0.40876  0.87231  0.35299  1.0000
  C   C1784     1.0  0.49314  0.85664  0.16154  1.0000
  H   H2116     1.0  0.33925  0.98682  0.43694  1.0000
  Fe  Fe241     1.0  0.45857  0.81804  0.20817  1.0000
  C   C1785     1.0  0.26982  0.84228  0.48416  1.0000
  N   N122      1.0  0.25651  0.89845  0.39291  1.0000
  C   C1786     1.0  0.25683  0.91367  0.39117  1.0000
  C   C1787     1.0  0.26998  0.88944  0.39742  1.0000
  C   C1788     1.0  0.25681  0.89642  0.37870  1.0000
  C   C1789     1.0  0.24362  0.89408  0.40344  1.0000
  C   C1790     1.0  0.24190  0.87977  0.40645  1.0000
  C   C1791     1.0  0.23244  0.90372  0.41087  1.0000
  C   C1792     1.0  0.22975  0.87543  0.41619  1.0000
  C   C1793     1.0  0.22037  0.89921  0.42066  1.0000
  C   C1794     1.0  0.21903  0.88510  0.42331  1.0000
  H   H2117     1.0  0.25715  0.91586  0.40136  1.0000
  H   H2118     1.0  0.26669  0.91656  0.38323  1.0000
  H   H2119     1.0  0.24734  0.92115  0.38713  1.0000
  H   H2120     1.0  0.26988  0.88991  0.40844  1.0000
  H   H2121     1.0  0.27985  0.89293  0.39013  1.0000
  H   H2122     1.0  0.27154  0.87800  0.39732  1.0000
  H   H2123     1.0  0.25794  0.88499  0.37875  1.0000
  H   H2124     1.0  0.24667  0.90266  0.37507  1.0000
  H   H2125     1.0  0.26619  0.89996  0.37042  1.0000
  H   H2126     1.0  0.24995  0.87176  0.40134  1.0000
  H   H2127     1.0  0.23272  0.91480  0.40933  1.0000
  H   H2128     1.0  0.22867  0.86445  0.41827  1.0000
  H   H2129     1.0  0.21193  0.90668  0.42623  1.0000
  H   H2130     1.0  0.20964  0.88165  0.43090  1.0000
  C   C1795     1.0  0.34267  0.90290  0.45720  1.0000
  C   C1796     1.0  0.47221  0.97605  0.33573  1.0000
  C   C1797     1.0  0.46396  0.79173  0.14789  1.0000
  H   H2131     1.0  0.44520  0.92230  0.44382  1.0000
  H   H2132     1.0  0.41040  0.98311  0.34865  1.0000
  H   H2133     1.0  0.47842  0.87285  0.28760  1.0000
  H   H2134     1.0  0.33616  0.98462  0.42097  1.0000
  H   H2135     1.0  0.25504  0.98182  0.45926  1.0000
  C   C1798     1.0  0.43289  0.79920  0.17447  1.0000
  S   S486      1.0  0.48631  0.96230  0.34155  1.0000
  S   S487      1.0  0.47489  0.79741  0.21285  1.0000
  C   C1799     1.0  0.17506  0.87958  0.47096  1.0000
  H   H2136     1.0  0.45667  0.94909  0.27959  1.0000
  H   H2137     1.0  0.29226  0.92730  0.44871  1.0000
  S   S488      1.0  0.21998  0.81634  0.46074  1.0000
  Fe  Fe242     1.0  0.19755  0.82242  0.45624  1.0000
  S   S489      1.0  0.18229  0.80697  0.46255  1.0000
  C   C1800     1.0  0.49691  0.81655  0.00239  1.0000
  C   C1801     1.0  0.49604  0.85283  0.27095  1.0000
  H   H2138     1.0  0.41671  0.96229  0.33717  1.0000
  Fe  Fe243     1.0  0.30053  0.97232  0.41089  1.0000
  H   H2139     1.0  0.40005  0.96519  0.40623  1.0000
  C   C1802     1.0  0.49910  0.86567  0.14911  1.0000
  C   C1803     1.0  0.14066  0.87355  0.46444  1.0000
  H   H2140     1.0  0.31342  0.89293  0.42722  1.0000
  H   H2141     1.0  0.48890  0.95511  0.30546  1.0000
  Fe  Fe244     1.0  0.47879  0.79784  0.18949  1.0000
  H   H2142     1.0  0.15936  0.89913  0.46552  1.0000
  H   H2143     1.0  0.44440  0.98294  0.31906  1.0000
  H   H2144     1.0  0.45217  0.86192  0.30028  1.0000
  H   H2145     1.0  0.28275  0.91770  0.44346  1.0000
  C   C1804     1.0  0.08341  0.79973  0.45682  1.0000
  H   H2146     1.0  0.44435  0.86106  0.18378  1.0000
  C   C1805     1.0  0.04138  0.83434  0.46153  1.0000
  C   C1806     1.0  0.29249  0.91641  0.44767  1.0000
  Fe  Fe245     1.0  0.08793  0.83305  0.48108  1.0000
  H   H2147     1.0  0.32793  0.88510  0.44294  1.0000
  C   C1807     1.0  0.42539  0.95727  0.34326  1.0000
  H   H2148     1.0  0.44610  0.86252  0.22542  1.0000
  H   H2149     1.0  0.32736  0.95551  0.42087  1.0000
  C   C1808     1.0  0.08615  0.81163  0.45955  1.0000
  C   C1809     1.0  0.37372  0.88526  0.36855  1.0000
  H   H2150     1.0  0.13291  0.82514  0.46820  1.0000
  H   H2151     1.0  0.46158  0.90567  0.47688  1.0000
  S   S490      1.0  0.36750  0.92126  0.46656  1.0000
  C   C1810     1.0  0.45509  0.80882  0.03387  1.0000
  C   C1811     1.0  0.25615  0.82056  0.46706  1.0000
  H   H2152     1.0  0.29430  0.89974  0.43065  1.0000
  H   H2153     1.0  0.33439  0.96203  0.34284  1.0000
  H   H2154     1.0  0.15885  0.86048  0.45365  1.0000
  H   H2155     1.0  0.42308  0.83492  0.16028  1.0000
  C   C1812     1.0  0.46034  0.87161  0.18444  1.0000
  S   S491      1.0  0.31022  0.99106  0.40769  1.0000
  H   H2156     1.0  0.37255  0.96216  0.36693  1.0000
  S   S492      1.0  0.31458  0.96573  0.39089  1.0000
  S   S493      1.0  0.07895  0.85620  0.48151  1.0000
  C   C1813     1.0  0.39541  0.96174  0.36176  1.0000
  C   C1814     1.0  0.39541  0.94476  0.38923  1.0000
  H   H2157     1.0  0.29761  0.95980  0.46104  1.0000
  S   S494      1.0  0.18878  0.83651  0.47208  1.0000
  C   C1815     1.0  0.30403  0.89740  0.43521  1.0000
  C   C1816     1.0  0.33392  0.95862  0.45135  1.0000
  H   H2158     1.0  0.38796  0.96727  0.43098  1.0000
  N   N123      1.0  0.30612  0.91040  0.43815  1.0000
  C   C1817     1.0  0.44394  0.86141  0.20528  1.0000
  H   H2159     1.0  0.44484  0.95914  0.35587  1.0000
  H   H2160     1.0  0.41418  0.91810  0.37697  1.0000
  H   H2161     1.0  0.05450  0.84472  0.46752  1.0000
  S   S495      1.0  0.29661  0.95860  0.43301  1.0000
  C   C1818     1.0  0.30836  0.92101  0.42441  1.0000
  H   H2162     1.0  0.46619  0.96230  0.26777  1.0000
  H   H2163     1.0  0.41776  0.94455  0.38502  1.0000
  C   C1819     1.0  0.41551  0.90680  0.36114  1.0000
  C   C1820     1.0  0.41941  0.97755  0.35425  1.0000
  C   C1821     1.0  0.45170  0.98486  0.32425  1.0000
  C   C1822     1.0  0.12593  0.87592  0.47097  1.0000
  C   C1823     1.0  0.13941  0.85153  0.45887  1.0000
  H   H2164     1.0  0.43522  0.85569  0.21002  1.0000
  C   C1824     1.0  0.02079  0.87968  0.46003  1.0000
  H   H2165     1.0  0.42918  0.98155  0.34743  1.0000
  H   H2166     1.0  0.35203  0.90117  0.46166  1.0000
  H   H2167     1.0  0.46923  0.80684  0.05375  1.0000
  H   H2168     1.0  0.14691  0.88115  0.46383  1.0000
  H   H2169     1.0  0.10641  0.86803  0.47691  1.0000
  C   C1825     1.0  0.14740  0.86155  0.45852  1.0000
  H   H2170     1.0  0.16373  0.84718  0.43670  1.0000
  H   H2171     1.0  0.44089  0.79599  0.21292  1.0000
  C   C1826     1.0  0.17765  0.79619  0.45385  1.0000
  C   C1827     1.0  0.14446  0.82559  0.46326  1.0000
  H   H2172     1.0  0.49138  0.93924  0.29102  1.0000
  H   H2173     1.0  0.45890  0.91413  0.45391  1.0000
  H   H2174     1.0  0.13924  0.85001  0.43259  1.0000
  H   H2175     1.0  0.48564  0.80805  0.08928  1.0000
  H   H2176     1.0  0.37891  0.97405  0.32188  1.0000
  C   C1828     1.0  0.49615  0.80115  0.11867  1.0000
  H   H2177     1.0  0.38793  0.97931  0.38638  1.0000
  H   H2178     1.0  0.26619  0.98200  0.44180  1.0000
  H   H2179     1.0  0.29317  0.82407  0.44089  1.0000
  C   C1829     1.0  0.38951  0.97242  0.40836  1.0000
  C   C1830     1.0  0.50070  0.80402  0.12962  1.0000
  C   C1831     1.0  0.47909  0.86280  0.29609  1.0000
  H   H2180     1.0  0.47195  0.86583  0.30614  1.0000
  C   C1832     1.0  0.27837  0.82924  0.46018  1.0000
  H   H2181     1.0  0.49952  0.86067  0.27397  1.0000
  C   C1833     1.0  0.42414  0.93219  0.46338  1.0000
  C   C1834     1.0  0.49708  0.82378  0.01244  1.0000
  H   H2182     1.0  0.45519  0.80737  0.02324  1.0000
  H   H2183     1.0  0.47071  0.83255  0.27924  1.0000
  H   H2184     1.0  0.00575  0.83447  0.47676  1.0000
  H   H2185     1.0  0.17403  0.92095  0.47921  1.0000
  C   C1835     1.0  0.18350  0.79597  0.43943  1.0000
  H   H2186     1.0  0.46817  0.80109  0.16286  1.0000
  C   C1836     1.0  0.47079  0.98986  0.33743  1.0000
  H   H2187     1.0  0.26116  0.97820  0.48007  1.0000
  Fe  Fe246     1.0  0.00497  0.81172  0.46327  1.0000
  C   C1837     1.0  0.48977  0.97709  0.29999  1.0000
  H   H2188     1.0  0.04819  0.79563  0.46569  1.0000
  H   H2189     1.0  0.43186  0.81157  0.15315  1.0000
  H   H2190     1.0  0.29350  0.98742  0.44595  1.0000
  H   H2191     1.0  0.23716  0.84229  0.47921  1.0000
  H   H2192     1.0  0.48365  0.79754  0.03366  1.0000
  C   C1838     1.0  0.46228  0.79895  0.05621  1.0000
  C   C1839     1.0  0.18136  0.87003  0.48192  1.0000
  H   H2193     1.0  0.37465  0.99024  0.36356  1.0000
  H   H2194     1.0  0.49188  0.80975  0.11054  1.0000
  Fe  Fe247     1.0  0.32255  0.98584  0.38652  1.0000
  C   C1840     1.0  0.26644  0.98632  0.48006  1.0000
  H   H2195     1.0  0.12035  0.79363  0.48302  1.0000
  C   C1841     1.0  0.10908  0.79187  0.44702  1.0000
  C   C1842     1.0  0.50091  0.83810  0.25386  1.0000
  C   C1843     1.0  0.03257  0.84789  0.48015  1.0000
  C   C1844     1.0  0.49851  0.81188  0.06780  1.0000
  C   C1845     1.0  0.36913  0.98975  0.39999  1.0000
  C   C1846     1.0  0.46933  0.79130  0.15964  1.0000
  H   H2196     1.0  0.03220  0.80682  0.48487  1.0000
  H   H2197     1.0  0.03026  0.79205  0.47300  1.0000
  Fe  Fe248     1.0  0.19004  0.87293  0.58093  1.0000
  S   S496      1.0  0.20824  0.88219  0.56546  1.0000
  S   S497      1.0  0.17054  0.88637  0.59271  1.0000
  Fe  Fe249     1.0  0.21000  0.86572  0.55338  1.0000
  S   S498      1.0  0.21324  0.87200  0.52944  1.0000
  Fe  Fe250     1.0  0.22281  0.86488  0.57816  1.0000
  S   S499      1.0  0.24172  0.87249  0.58068  1.0000
  S   S500      1.0  0.19001  0.85853  0.56744  1.0000
  S   S501      1.0  0.20433  0.85650  0.59445  1.0000
  S   S502      1.0  0.15898  0.96134  0.57137  1.0000
  Fe  Fe251     1.0  0.13204  0.93713  0.52186  1.0000
  S   S503      1.0  0.10928  0.93504  0.53331  1.0000
  S   S504      1.0  0.14078  0.95676  0.51766  1.0000
  Fe  Fe252     1.0  0.14249  0.90594  0.51992  1.0000
  S   S505      1.0  0.12080  0.90117  0.53106  1.0000
  Fe  Fe253     1.0  0.11183  0.92205  0.51739  1.0000
  H   H2198     1.0  0.49127  0.92282  0.78615  1.0000
  Fe  Fe254     1.0  0.12011  0.91434  0.54585  1.0000
  S   S506      1.0  0.11324  0.90577  0.56933  1.0000
  N   N124      1.0  0.48047  0.80389  0.82360  1.0000
  S   S507      1.0  0.14262  0.91758  0.53591  1.0000
  Fe  Fe255     1.0  0.07409  0.82271  0.51246  1.0000
  C   C1847     1.0  0.21277  0.85885  0.52113  1.0000
  H   H2199     1.0  0.49384  0.85438  0.97885  1.0000
  H   H2200     1.0  0.11872  0.90026  0.50361  1.0000
  H   H2201     1.0  0.44965  0.90560  0.73646  1.0000
  C   C1848     1.0  0.39303  0.85389  0.82372  1.0000
  C   C1849     1.0  0.08344  0.89970  0.50712  1.0000
  H   H2202     1.0  0.42911  0.96908  0.67519  1.0000
  S   S508      1.0  0.06388  0.84497  0.51560  1.0000
  H   H2203     1.0  0.47072  0.95059  0.57325  1.0000
  H   H2204     1.0  0.39316  0.85605  0.83402  1.0000
  H   H2205     1.0  0.41381  0.89229  0.63744  1.0000
  H   H2206     1.0  0.46171  0.83554  0.85244  1.0000
  S   S509      1.0  0.46471  0.80860  0.97147  1.0000
  Fe  Fe256     1.0  0.46834  0.90710  0.87508  1.0000
  S   S510      1.0  0.48869  0.89126  0.87954  1.0000
  S   S511      1.0  0.45161  0.89896  0.87007  1.0000
  Fe  Fe257     1.0  0.47685  0.93145  0.88126  1.0000
  S   S512      1.0  0.47089  0.95539  0.87926  1.0000
  H   H2207     1.0  0.48911  0.91227  0.58384  1.0000
  Fe  Fe258     1.0  0.48483  0.90091  0.89832  1.0000
  S   S513      1.0  0.48688  0.88780  0.92038  1.0000
  S   S514      1.0  0.47980  0.92437  0.86108  1.0000
  S   S515      1.0  0.46344  0.91552  0.89488  1.0000
  Fe  Fe259     1.0  0.37586  0.95301  0.57436  1.0000
  S   S516      1.0  0.38256  0.93363  0.59096  1.0000
  Fe  Fe260     1.0  0.39954  0.94263  0.55037  1.0000
  S   S517      1.0  0.40863  0.92224  0.56470  1.0000
  S   S518      1.0  0.40720  0.94908  0.52656  1.0000
  Fe  Fe261     1.0  0.38533  0.92135  0.57453  1.0000
  S   S519      1.0  0.37778  0.90099  0.57965  1.0000
  Fe  Fe262     1.0  0.40526  0.93621  0.57995  1.0000
  S   S520      1.0  0.42105  0.93084  0.59410  1.0000
  S   S521      1.0  0.37650  0.94044  0.55889  1.0000
  S   S522      1.0  0.39833  0.95686  0.56469  1.0000
  H   H2208     1.0  0.47759  0.93116  0.60990  1.0000
  H   H2209     1.0  0.32328  0.98521  0.71549  1.0000
  S   S523      1.0  0.47067  0.95432  0.62578  1.0000
  H   H2210     1.0  0.43787  0.83953  0.92303  1.0000
  H   H2211     1.0  0.48664  0.87363  0.76435  1.0000
  H   H2212     1.0  0.09034  0.88746  0.57552  1.0000
  H   H2213     1.0  0.39580  0.92657  0.61652  1.0000
  H   H2214     1.0  0.41127  0.91775  0.62432  1.0000
  Fe  Fe263     1.0  0.45796  0.95020  0.64848  1.0000
  S   S524      1.0  0.45533  0.92872  0.66265  1.0000
  H   H2215     1.0  0.47112  0.94861  0.59143  1.0000
  Fe  Fe264     1.0  0.05845  0.84877  0.49424  1.0000
  Fe  Fe265     1.0  0.38103  0.91680  0.68561  1.0000
  S   S525      1.0  0.38745  0.92007  0.70398  1.0000
  S   S526      1.0  0.39508  0.91768  0.66358  1.0000
  Fe  Fe266     1.0  0.34936  0.91761  0.70101  1.0000
  S   S527      1.0  0.35306  0.92054  0.72121  1.0000
  S   S528      1.0  0.32660  0.92142  0.69735  1.0000
  Fe  Fe267     1.0  0.36630  0.93618  0.70669  1.0000
  S   S529      1.0  0.36398  0.95896  0.70785  1.0000
  Fe  Fe268     1.0  0.37400  0.90405  0.71717  1.0000
  S   S530      1.0  0.38370  0.88574  0.73362  1.0000
  S   S531      1.0  0.36124  0.93442  0.68696  1.0000
  S   S532      1.0  0.36904  0.89955  0.69830  1.0000
  Fe  Fe269     1.0  0.29664  0.91904  0.60458  1.0000
  S   S533      1.0  0.27327  0.93061  0.60699  1.0000
  S   S534      1.0  0.31036  0.91644  0.58306  1.0000
  Fe  Fe270     1.0  0.29534  0.91052  0.63651  1.0000
  S   S535      1.0  0.27140  0.92071  0.64175  1.0000
  S   S536      1.0  0.31117  0.89876  0.65106  1.0000
  Fe  Fe271     1.0  0.26906  0.91142  0.62446  1.0000
  S   S537      1.0  0.24962  0.90217  0.62603  1.0000
  Fe  Fe272     1.0  0.27755  0.93891  0.62370  1.0000
  S   S538      1.0  0.27048  0.96233  0.62433  1.0000
  S   S539      1.0  0.29239  0.89933  0.62112  1.0000
  S   S540      1.0  0.30148  0.92923  0.61940  1.0000
  Fe  Fe273     1.0  0.45276  0.88029  0.80222  1.0000
  S   S541      1.0  0.45248  0.87928  0.78018  1.0000
  S   S542      1.0  0.46579  0.89348  0.80595  1.0000
  Fe  Fe274     1.0  0.43289  0.85970  0.81700  1.0000
  S   S543      1.0  0.43043  0.85691  0.79638  1.0000
  S   S544      1.0  0.42286  0.84950  0.83943  1.0000
  Fe  Fe275     1.0  0.45455  0.85566  0.78959  1.0000
  S   S545      1.0  0.46877  0.83794  0.77899  1.0000
  Fe  Fe276     1.0  0.42845  0.88079  0.78872  1.0000
  S   S546      1.0  0.41127  0.89759  0.77822  1.0000
  S   S547      1.0  0.45708  0.85656  0.81081  1.0000
  S   S548      1.0  0.42870  0.88366  0.81012  1.0000
  H   H2216     1.0  0.42124  0.82917  0.86635  1.0000
  C   C1850     1.0  0.29183  0.97133  0.65499  1.0000
  H   H2217     1.0  0.45535  0.80855  0.89411  1.0000
  C   C1851     1.0  0.33393  0.96036  0.55533  1.0000
  C   C1852     1.0  0.27882  0.96578  0.63602  1.0000
  C   C1853     1.0  0.28131  0.95548  0.64837  1.0000
  C   C1854     1.0  0.28757  0.95835  0.65793  1.0000
  C   C1855     1.0  0.44644  0.98395  0.68533  1.0000
  H   H2218     1.0  0.32895  0.92856  0.55450  1.0000
  H   H2219     1.0  0.27821  0.94534  0.65070  1.0000
  H   H2220     1.0  0.28931  0.95038  0.66753  1.0000
  C   C1856     1.0  0.39195  0.88955  0.74525  1.0000
  C   C1857     1.0  0.38640  0.90212  0.75038  1.0000
  C   C1858     1.0  0.39237  0.90440  0.76055  1.0000
  C   C1859     1.0  0.40404  0.89421  0.76553  1.0000
  C   C1860     1.0  0.40969  0.88168  0.76032  1.0000
  C   C1861     1.0  0.40361  0.87935  0.75024  1.0000
  H   H2221     1.0  0.37724  0.90991  0.74679  1.0000
  H   H2222     1.0  0.38774  0.91399  0.76472  1.0000
  H   H2223     1.0  0.41864  0.87373  0.76412  1.0000
  H   H2224     1.0  0.40786  0.86953  0.74640  1.0000
  C   C1862     1.0  0.32301  0.91556  0.68377  1.0000
  C   C1863     1.0  0.31056  0.92284  0.67828  1.0000
  C   C1864     1.0  0.30694  0.91808  0.66800  1.0000
  C   C1865     1.0  0.31558  0.90573  0.66338  1.0000
  C   C1866     1.0  0.32799  0.89842  0.66892  1.0000
  C   C1867     1.0  0.33181  0.90341  0.67890  1.0000
  H   H2225     1.0  0.30362  0.93214  0.68214  1.0000
  H   H2226     1.0  0.29728  0.92373  0.66395  1.0000
  H   H2227     1.0  0.33470  0.88882  0.66549  1.0000
  H   H2228     1.0  0.34133  0.89760  0.68315  1.0000
  C   C1868     1.0  0.29687  0.86992  0.65329  1.0000
  H   H2229     1.0  0.22444  0.92049  0.61436  1.0000
  H   H2230     1.0  0.49635  0.88958  0.79717  1.0000
  C   C1869     1.0  0.36567  0.96245  0.72349  1.0000
  C   C1870     1.0  0.36799  0.95153  0.73555  1.0000
  C   C1871     1.0  0.28512  0.84380  0.63283  1.0000
  H   H2231     1.0  0.21447  0.84142  0.53957  1.0000
  H   H2232     1.0  0.41099  0.97977  0.69121  1.0000
  H   H2233     1.0  0.36809  0.94062  0.73565  1.0000
  H   H2234     1.0  0.43339  0.94313  0.50391  1.0000
  C   C1872     1.0  0.43895  0.92506  0.66261  1.0000
  C   C1873     1.0  0.43265  0.91519  0.67398  1.0000
  C   C1874     1.0  0.41904  0.91301  0.67441  1.0000
  C   C1875     1.0  0.41206  0.92025  0.66317  1.0000
  C   C1876     1.0  0.41864  0.92967  0.65152  1.0000
  C   C1877     1.0  0.43197  0.93223  0.65139  1.0000
  H   H2235     1.0  0.43815  0.90941  0.68256  1.0000
  H   H2236     1.0  0.41406  0.90556  0.68335  1.0000
  H   H2237     1.0  0.41329  0.93524  0.64277  1.0000
  H   H2238     1.0  0.43700  0.93955  0.64251  1.0000
  C   C1878     1.0  0.11108  0.88154  0.50540  1.0000
  C   C1879     1.0  0.42428  0.94568  0.59782  1.0000
  C   C1880     1.0  0.43004  0.94366  0.60971  1.0000
  C   C1881     1.0  0.43480  0.95475  0.61172  1.0000
  C   C1882     1.0  0.43354  0.96799  0.60206  1.0000
  C   C1883     1.0  0.42705  0.97032  0.59059  1.0000
  C   C1884     1.0  0.42246  0.95913  0.58844  1.0000
  H   H2239     1.0  0.43120  0.93340  0.61717  1.0000
  H   H2240     1.0  0.44002  0.95292  0.62040  1.0000
  H   H2241     1.0  0.25987  0.85429  0.62556  1.0000
  H   H2242     1.0  0.41809  0.96078  0.57920  1.0000
  C   C1885     1.0  0.40311  0.93862  0.51742  1.0000
  C   C1886     1.0  0.39776  0.94523  0.50503  1.0000
  C   C1887     1.0  0.39476  0.93697  0.49742  1.0000
  C   C1888     1.0  0.39744  0.92203  0.50197  1.0000
  C   C1889     1.0  0.40282  0.91543  0.51436  1.0000
  C   C1890     1.0  0.40556  0.92371  0.52215  1.0000
  H   H2243     1.0  0.39582  0.95678  0.50139  1.0000
  H   H2244     1.0  0.40488  0.90387  0.51797  1.0000
  H   H2245     1.0  0.40976  0.91854  0.53168  1.0000
  C   C1891     1.0  0.35889  0.90495  0.58166  1.0000
  C   C1892     1.0  0.35243  0.89554  0.57883  1.0000
  C   C1893     1.0  0.33745  0.89902  0.57950  1.0000
  C   C1894     1.0  0.32883  0.91167  0.58348  1.0000
  C   C1895     1.0  0.33519  0.92086  0.58681  1.0000
  C   C1896     1.0  0.35028  0.91764  0.58561  1.0000
  H   H2246     1.0  0.35908  0.88574  0.57575  1.0000
  H   H2247     1.0  0.33254  0.89192  0.57691  1.0000
  H   H2248     1.0  0.32856  0.93072  0.58975  1.0000
  H   H2249     1.0  0.35524  0.92498  0.58775  1.0000
  H   H2250     1.0  0.37967  0.96602  0.59311  1.0000
  C   C1897     1.0  0.45520  0.89797  0.85212  1.0000
  C   C1898     1.0  0.46656  0.90345  0.84206  1.0000
  C   C1899     1.0  0.46971  0.90209  0.82788  1.0000
  C   C1900     1.0  0.46158  0.89514  0.82373  1.0000
  C   C1901     1.0  0.45031  0.88952  0.83382  1.0000
  C   C1902     1.0  0.44706  0.89102  0.84798  1.0000
  H   H2251     1.0  0.47289  0.90879  0.84516  1.0000
  H   H2252     1.0  0.47849  0.90638  0.82015  1.0000
  H   H2253     1.0  0.44405  0.88404  0.83074  1.0000
  H   H2254     1.0  0.43828  0.88672  0.85572  1.0000
  H   H2255     1.0  0.40466  0.85091  0.81829  1.0000
  C   C1903     1.0  0.47896  0.96137  0.88941  1.0000
  C   C1904     1.0  0.47826  0.97606  0.88708  1.0000
  N   N125      1.0  0.09455  0.87535  0.55940  1.0000
  H   H2256     1.0  0.49240  0.81860  0.76541  1.0000
  H   H2257     1.0  0.04331  0.80901  0.52212  1.0000
  H   H2258     1.0  0.50136  0.87609  0.96511  1.0000
  H   H2259     1.0  0.36393  0.86175  0.82539  1.0000
  H   H2260     1.0  0.45360  0.79878  0.95450  1.0000
  C   C1905     1.0  0.48623  0.86983  0.92303  1.0000
  C   C1906     1.0  0.48023  0.86247  0.93663  1.0000
  C   C1907     1.0  0.47900  0.84830  0.93876  1.0000
  H   H2261     1.0  0.46607  0.91449  0.57629  1.0000
  H   H2262     1.0  0.20474  0.90998  0.53952  1.0000
  H   H2263     1.0  0.47611  0.86788  0.94540  1.0000
  H   H2264     1.0  0.47396  0.84278  0.94918  1.0000
  C   C1908     1.0  0.43268  0.80044  0.85082  1.0000
  C   C1909     1.0  0.45035  0.90662  0.62005  1.0000
  H   H2265     1.0  0.07771  0.89169  0.55049  1.0000
  H   H2266     1.0  0.45868  0.87441  0.89068  1.0000
  C   C1910     1.0  0.21208  0.85236  0.49970  1.0000
  H   H2267     1.0  0.48103  0.83948  0.88492  1.0000
  C   C1911     1.0  0.09547  0.90503  0.50632  1.0000
  N   N126      1.0  0.27711  0.85900  0.63177  1.0000
  C   C1912     1.0  0.08525  0.88517  0.50723  1.0000
  C   C1913     1.0  0.09905  0.87605  0.50676  1.0000
  C   C1914     1.0  0.10932  0.89604  0.50494  1.0000
  H   H2268     1.0  0.47888  0.84704  0.83695  1.0000
  S   S549      1.0  0.09321  0.92238  0.50850  1.0000
  C   C1915     1.0  0.14663  0.95675  0.53263  1.0000
  C   C1916     1.0  0.13967  0.95069  0.54640  1.0000
  C   C1917     1.0  0.14389  0.95157  0.55834  1.0000
  C   C1918     1.0  0.15515  0.95837  0.55649  1.0000
  C   C1919     1.0  0.16275  0.96349  0.54270  1.0000
  C   C1920     1.0  0.15828  0.96299  0.53079  1.0000
  H   H2269     1.0  0.13070  0.94576  0.54787  1.0000
  H   H2270     1.0  0.13809  0.94740  0.56899  1.0000
  H   H2271     1.0  0.17201  0.96795  0.54117  1.0000
  N   N127      1.0  0.47000  0.92925  0.58621  1.0000
  C   C1921     1.0  0.24291  0.88185  0.59289  1.0000
  C   C1922     1.0  0.25521  0.88762  0.59007  1.0000
  C   C1923     1.0  0.25713  0.89440  0.59979  1.0000
  C   C1924     1.0  0.24690  0.89522  0.61265  1.0000
  C   C1925     1.0  0.23437  0.88983  0.61532  1.0000
  C   C1926     1.0  0.23233  0.88324  0.60547  1.0000
  H   H2272     1.0  0.26344  0.88664  0.58035  1.0000
  H   H2273     1.0  0.26676  0.89862  0.59747  1.0000
  H   H2274     1.0  0.22637  0.89039  0.62523  1.0000
  H   H2275     1.0  0.22285  0.87880  0.60784  1.0000
  C   C1927     1.0  0.15460  0.89071  0.58640  1.0000
  C   C1928     1.0  0.15486  0.88847  0.57315  1.0000
  C   C1929     1.0  0.14206  0.89283  0.56799  1.0000
  C   C1930     1.0  0.12900  0.89929  0.57615  1.0000
  C   C1931     1.0  0.12869  0.90111  0.58958  1.0000
  C   C1932     1.0  0.14151  0.89697  0.59462  1.0000
  H   H2276     1.0  0.16492  0.88359  0.56682  1.0000
  H   H2277     1.0  0.14227  0.89121  0.55770  1.0000
  H   H2278     1.0  0.11863  0.90611  0.59589  1.0000
  H   H2279     1.0  0.14128  0.89868  0.60489  1.0000
  C   C1933     1.0  0.21186  0.86274  0.50676  1.0000
  C   C1934     1.0  0.43887  0.85797  0.90462  1.0000
  H   H2280     1.0  0.48594  0.88832  0.78038  1.0000
  H   H2281     1.0  0.44413  0.80777  0.93256  1.0000
  S   S550      1.0  0.16044  0.88667  0.51646  1.0000
  H   H2282     1.0  0.28243  0.83741  0.64396  1.0000
  H   H2283     1.0  0.18032  0.93587  0.63390  1.0000
  H   H2284     1.0  0.36629  0.93788  0.51446  1.0000
  H   H2285     1.0  0.44995  0.86764  0.92971  1.0000
  H   H2286     1.0  0.48020  0.86482  0.83557  1.0000
  C   C1935     1.0  0.03710  0.80914  0.50316  1.0000
  H   H2287     1.0  0.41438  0.94249  0.77832  1.0000
  C   C1936     1.0  0.42249  0.93766  0.76969  1.0000
  H   H2288     1.0  0.07594  0.88094  0.50821  1.0000
  H   H2289     1.0  0.08190  0.79447  0.50332  1.0000
  H   H2290     1.0  0.20825  0.90209  0.52470  1.0000
  H   H2291     1.0  0.45154  0.81622  0.86951  1.0000
  H   H2292     1.0  0.20735  0.81828  0.55934  1.0000
  C   C1937     1.0  0.44752  0.98731  0.85548  1.0000
  C   C1938     1.0  0.16569  0.88409  0.49893  1.0000
  C   C1939     1.0  0.32909  0.97245  0.73467  1.0000
  H   H2293     1.0  0.39385  0.95760  0.69051  1.0000
  H   H2294     1.0  0.07623  0.85249  0.53549  1.0000
  C   C1940     1.0  0.08805  0.87765  0.57413  1.0000
  H   H2295     1.0  0.11139  0.79658  0.50608  1.0000
  H   H2296     1.0  0.45461  0.94933  0.58689  1.0000
  N   N128      1.0  0.33174  0.95179  0.62921  1.0000
  C   C1941     1.0  0.32323  0.96675  0.62654  1.0000
  C   C1942     1.0  0.33569  0.94678  0.61568  1.0000
  C   C1943     1.0  0.32229  0.94268  0.63999  1.0000
  C   C1944     1.0  0.34447  0.95139  0.63456  1.0000
  C   C1945     1.0  0.34249  0.95456  0.64805  1.0000
  C   C1946     1.0  0.35896  0.94883  0.62631  1.0000
  C   C1947     1.0  0.35427  0.95481  0.65307  1.0000
  C   C1948     1.0  0.37065  0.94922  0.63143  1.0000
  C   C1949     1.0  0.36835  0.95202  0.64485  1.0000
  H   H2297     1.0  0.27702  0.87899  0.61642  1.0000
  H   H2298     1.0  0.31346  0.96766  0.62254  1.0000
  H   H2299     1.0  0.31945  0.97111  0.63634  1.0000
  H   H2300     1.0  0.34260  0.93573  0.61678  1.0000
  H   H2301     1.0  0.34155  0.95403  0.60664  1.0000
  H   H2302     1.0  0.32589  0.94661  0.61229  1.0000
  H   H2303     1.0  0.31763  0.94646  0.65010  1.0000
  H   H2304     1.0  0.31277  0.94259  0.63613  1.0000
  H   H2305     1.0  0.32835  0.93141  0.64274  1.0000
  H   H2306     1.0  0.33176  0.95721  0.65471  1.0000
  H   H2307     1.0  0.36152  0.94691  0.61571  1.0000
  H   H2308     1.0  0.35244  0.95743  0.66331  1.0000
  H   H2309     1.0  0.38152  0.94783  0.62475  1.0000
  H   H2310     1.0  0.37746  0.95226  0.64878  1.0000
  S   S551      1.0  0.49787  0.91756  0.88641  1.0000
  C   C1950     1.0  0.46337  0.92615  0.57610  1.0000
  H   H2311     1.0  0.20046  0.79427  0.50077  1.0000
  C   C1951     1.0  0.15572  0.84064  0.50019  1.0000
  H   H2312     1.0  0.28242  0.83868  0.62565  1.0000
  H   H2313     1.0  0.36642  0.98191  0.67381  1.0000
  C   C1952     1.0  0.18292  0.91613  0.51634  1.0000
  H   H2314     1.0  0.25334  0.98667  0.64612  1.0000
  H   H2315     1.0  0.18129  0.92378  0.54838  1.0000
  H   H2316     1.0  0.16389  0.96740  0.52013  1.0000
  C   C1953     1.0  0.30389  0.95740  0.70831  1.0000
  C   C1954     1.0  0.14127  0.82340  0.50412  1.0000
  H   H2317     1.0  0.47860  0.79467  0.92381  1.0000
  H   H2318     1.0  0.07619  0.79412  0.57972  1.0000
  H   H2319     1.0  0.49891  0.83621  0.85000  1.0000
  C   C1955     1.0  0.27971  0.86511  0.64247  1.0000
  H   H2320     1.0  0.22557  0.99101  0.54277  1.0000
  C   C1956     1.0  0.49420  0.95650  0.90630  1.0000
  H   H2321     1.0  0.13110  0.82111  0.50419  1.0000
  H   H2322     1.0  0.46359  0.87518  0.90615  1.0000
  H   H2323     1.0  0.42311  0.92591  0.77330  1.0000
  H   H2324     1.0  0.33685  0.91793  0.53460  1.0000
  C   C1957     1.0  0.41514  0.95962  0.75328  1.0000
  C   C1958     1.0  0.26831  0.87336  0.65121  1.0000
  C   C1959     1.0  0.39158  0.85102  0.79657  1.0000
  C   C1960     1.0  0.39070  0.84908  0.78355  1.0000
  C   C1961     1.0  0.38256  0.85987  0.77479  1.0000
  H   H2325     1.0  0.38815  0.84439  0.82648  1.0000
  H   H2326     1.0  0.39820  0.84227  0.80272  1.0000
  H   H2327     1.0  0.39653  0.83920  0.78011  1.0000
  H   H2328     1.0  0.38213  0.85848  0.76456  1.0000
  H   H2329     1.0  0.11316  0.80384  0.54663  1.0000
  H   H2330     1.0  0.15097  0.80146  0.51062  1.0000
  H   H2331     1.0  0.39030  0.94222  0.48810  1.0000
  C   C1962     1.0  0.48356  0.84161  0.92723  1.0000
  C   C1963     1.0  0.32827  0.94748  0.74050  1.0000
  H   H2332     1.0  0.32515  0.96031  0.68485  1.0000
  H   H2333     1.0  0.25494  0.87045  0.63148  1.0000
  H   H2334     1.0  0.24490  0.92818  0.60342  1.0000
  H   H2335     1.0  0.25082  0.93613  0.58515  1.0000
  Fe  Fe277     1.0  0.48162  0.81133  0.95101  1.0000
  C   C1964     1.0  0.08000  0.80257  0.54361  1.0000
  S   S552      1.0  0.35606  0.97012  0.57946  1.0000
  H   H2336     1.0  0.16857  0.93757  0.51555  1.0000
  H   H2337     1.0  0.20239  0.91629  0.63157  1.0000
  H   H2338     1.0  0.49388  0.84343  0.90493  1.0000
  C   C1965     1.0  0.08310  0.83864  0.55425  1.0000
  H   H2339     1.0  0.43775  0.80192  0.82812  1.0000
  H   H2340     1.0  0.47191  0.98370  0.87985  1.0000
  H   H2341     1.0  0.28092  0.98698  0.62364  1.0000
  C   C1966     1.0  0.19480  0.80416  0.55813  1.0000
  C   C1967     1.0  0.36771  0.97976  0.73528  1.0000
  C   C1968     1.0  0.08071  0.85167  0.54448  1.0000
  H   H2342     1.0  0.29484  0.96042  0.71727  1.0000
  H   H2343     1.0  0.30781  0.94554  0.71072  1.0000
  N   N129      1.0  0.41536  0.95696  0.69240  1.0000
  C   C1969     1.0  0.40503  0.95769  0.68381  1.0000
  C   C1970     1.0  0.41020  0.96951  0.69922  1.0000
  C   C1971     1.0  0.42962  0.95829  0.68251  1.0000
  C   C1972     1.0  0.41613  0.94329  0.70327  1.0000
  C   C1973     1.0  0.42765  0.93106  0.70158  1.0000
  C   C1974     1.0  0.40450  0.94147  0.71535  1.0000
  C   C1975     1.0  0.42743  0.91793  0.71143  1.0000
  C   C1976     1.0  0.40451  0.92837  0.72524  1.0000
  C   C1977     1.0  0.41592  0.91659  0.72327  1.0000
  C   C1978     1.0  0.48599  0.92419  0.58196  1.0000
  H   H2344     1.0  0.45130  0.92995  0.57860  1.0000
  H   H2345     1.0  0.46388  0.79331  0.83829  1.0000
  H   H2346     1.0  0.41676  0.96856  0.70700  1.0000
  C   C1979     1.0  0.20302  0.95418  0.60729  1.0000
  C   C1980     1.0  0.20250  0.92685  0.62464  1.0000
  H   H2347     1.0  0.49115  0.92270  0.76819  1.0000
  C   C1981     1.0  0.19010  0.93786  0.62600  1.0000
  H   H2348     1.0  0.43817  0.95659  0.68846  1.0000
  H   H2349     1.0  0.43680  0.93126  0.69254  1.0000
  H   H2350     1.0  0.39503  0.94999  0.71695  1.0000
  H   H2351     1.0  0.43616  0.90866  0.70975  1.0000
  H   H2352     1.0  0.39532  0.92723  0.73418  1.0000
  H   H2353     1.0  0.41569  0.90634  0.73076  1.0000
  H   H2354     1.0  0.46985  0.82051  0.90174  1.0000
  N   N130      1.0  0.18607  0.91376  0.53057  1.0000
  C   C1982     1.0  0.46654  0.94506  0.58441  1.0000
  C   C1983     1.0  0.08433  0.86365  0.54600  1.0000
  H   H2355     1.0  0.18203  0.93599  0.53139  1.0000
  C   C1984     1.0  0.19899  0.81233  0.56505  1.0000
  H   H2356     1.0  0.35372  0.90496  0.53215  1.0000
  H   H2357     1.0  0.45565  0.92668  0.51051  1.0000
  H   H2358     1.0  0.39853  0.97099  0.70481  1.0000
  S   S553      1.0  0.43860  0.96771  0.64427  1.0000
  C   C1985     1.0  0.09416  0.80480  0.53951  1.0000
  C   C1986     1.0  0.45210  0.92578  0.50156  1.0000
  C   C1987     1.0  0.11059  0.87248  0.55701  1.0000
  S   S554      1.0  0.19938  0.82067  0.58913  1.0000
  S   S555      1.0  0.19511  0.97323  0.56328  1.0000
  H   H2359     1.0  0.32989  0.97393  0.61847  1.0000
  C   C1988     1.0  0.43444  0.88131  0.91007  1.0000
  H   H2360     1.0  0.46465  0.80955  0.84215  1.0000
  H   H2361     1.0  0.18936  0.81567  0.51860  1.0000
  C   C1989     1.0  0.49084  0.81196  0.82400  1.0000
  H   H2362     1.0  0.29934  0.95973  0.69867  1.0000
  H   H2363     1.0  0.37234  0.94632  0.75665  1.0000
  H   H2364     1.0  0.15089  0.90294  0.49028  1.0000
  H   H2365     1.0  0.42933  0.85845  0.87393  1.0000
  C   C1990     1.0  0.43174  0.82291  0.83286  1.0000
  C   C1991     1.0  0.21420  0.83408  0.52132  1.0000
  H   H2366     1.0  0.40432  0.96760  0.67517  1.0000
  H   H2367     1.0  0.44258  0.89985  0.62314  1.0000
  C   C1992     1.0  0.35346  0.94991  0.53775  1.0000
  C   C1993     1.0  0.20193  0.91166  0.52906  1.0000
  N   N131      1.0  0.22921  0.94644  0.59506  1.0000
  H   H2368     1.0  0.35179  0.97002  0.54284  1.0000
  C   C1994     1.0  0.21583  0.94320  0.60552  1.0000
  H   H2369     1.0  0.26542  0.84720  0.49366  1.0000
  C   C1995     1.0  0.21520  0.92943  0.61460  1.0000
  H   H2370     1.0  0.17717  0.83245  0.50369  1.0000
  H   H2371     1.0  0.24169  0.85273  0.48845  1.0000
  C   C1996     1.0  0.49356  0.84454  0.78069  1.0000
  C   C1997     1.0  0.15281  0.81219  0.50788  1.0000
  S   S556      1.0  0.06710  0.82598  0.49219  1.0000
  Fe  Fe278     1.0  0.49979  0.90927  0.86727  1.0000
  H   H2372     1.0  0.23711  0.95136  0.61068  1.0000
  H   H2373     1.0  0.46352  0.82202  0.81731  1.0000
  H   H2374     1.0  0.22410  0.98737  0.62846  1.0000
  H   H2375     1.0  0.30343  0.85840  0.63686  1.0000
  H   H2376     1.0  0.30523  0.98154  0.69004  1.0000
  H   H2377     1.0  0.07603  0.87895  0.57668  1.0000
  N   N132      1.0  0.15959  0.84628  0.54968  1.0000
  C   C1998     1.0  0.16518  0.83613  0.56199  1.0000
  C   C1999     1.0  0.17194  0.84649  0.53703  1.0000
  C   C2000     1.0  0.15468  0.86073  0.55294  1.0000
  C   C2001     1.0  0.14744  0.84246  0.54662  1.0000
  C   C2002     1.0  0.14136  0.83054  0.55509  1.0000
  C   C2003     1.0  0.14115  0.85093  0.53493  1.0000
  C   C2004     1.0  0.12973  0.82742  0.55198  1.0000
  C   C2005     1.0  0.12954  0.84767  0.53195  1.0000
  C   C2006     1.0  0.12387  0.83595  0.54040  1.0000
  H   H2378     1.0  0.16909  0.82505  0.56019  1.0000
  H   H2379     1.0  0.17460  0.83894  0.56378  1.0000
  H   H2380     1.0  0.15679  0.83602  0.57216  1.0000
  H   H2381     1.0  0.17567  0.83597  0.53389  1.0000
  H   H2382     1.0  0.18146  0.84890  0.53911  1.0000
  H   H2383     1.0  0.16912  0.85489  0.52762  1.0000
  H   H2384     1.0  0.14543  0.86110  0.56242  1.0000
  H   H2385     1.0  0.16357  0.86399  0.55522  1.0000
  H   H2386     1.0  0.15112  0.86919  0.54387  1.0000
  H   H2387     1.0  0.14543  0.82337  0.56414  1.0000
  H   H2388     1.0  0.14513  0.86019  0.52800  1.0000
  C   C2007     1.0  0.08970  0.88902  0.54939  1.0000
  H   H2389     1.0  0.12489  0.85424  0.52299  1.0000
  H   H2390     1.0  0.11491  0.83349  0.53793  1.0000
  C   C2008     1.0  0.49187  0.91583  0.77899  1.0000
  C   C2009     1.0  0.46992  0.92445  0.61232  1.0000
  C   C2010     1.0  0.17867  0.92587  0.53779  1.0000
  H   H2391     1.0  0.37466  0.91294  0.64801  1.0000
  C   C2011     1.0  0.49479  0.88799  0.77108  1.0000
  C   C2012     1.0  0.43439  0.80786  0.83646  1.0000
  C   C2013     1.0  0.40196  0.89359  0.63845  1.0000
  H   H2392     1.0  0.40660  0.96356  0.76219  1.0000
  C   C2014     1.0  0.12201  0.99077  0.53127  1.0000
  C   C2015     1.0  0.47520  0.86404  0.86308  1.0000
  C   C2016     1.0  0.21349  0.83797  0.50688  1.0000
  H   H2393     1.0  0.21889  0.96451  0.58048  1.0000
  H   H2394     1.0  0.39646  0.89680  0.64878  1.0000
  H   H2395     1.0  0.48693  0.94033  0.90146  1.0000
  C   C2017     1.0  0.49106  0.82620  0.81597  1.0000
  H   H2396     1.0  0.33200  0.98118  0.73688  1.0000
  C   C2018     1.0  0.49692  0.82527  0.76906  1.0000
  N   N133      1.0  0.39680  0.90424  0.62618  1.0000
  H   H2397     1.0  0.24505  0.95873  0.59247  1.0000
  C   C2019     1.0  0.38102  0.90550  0.62807  1.0000
  H   H2398     1.0  0.40485  0.88876  0.61284  1.0000
  C   C2020     1.0  0.17670  0.87227  0.49584  1.0000
  H   H2399     1.0  0.33042  0.93685  0.74729  1.0000
  C   C2021     1.0  0.37167  0.98013  0.60779  1.0000
  N   N134      1.0  0.31565  0.96512  0.70565  1.0000
  C   C2022     1.0  0.33428  0.93742  0.55129  1.0000
  H   H2400     1.0  0.45384  0.97158  0.84277  1.0000
  C   C2023     1.0  0.44883  0.98271  0.84317  1.0000
  C   C2024     1.0  0.32053  0.96325  0.71891  1.0000
  C   C2025     1.0  0.32313  0.94954  0.72823  1.0000
  H   H2401     1.0  0.09249  0.86871  0.58237  1.0000
  H   H2402     1.0  0.45513  0.97378  0.70423  1.0000
  C   C2026     1.0  0.09305  0.84935  0.56713  1.0000
  C   C2027     1.0  0.15939  0.89377  0.48799  1.0000
  H   H2403     1.0  0.33555  0.95724  0.75303  1.0000
  H   H2404     1.0  0.08235  0.87330  0.53786  1.0000
  H   H2405     1.0  0.42431  0.83494  0.88814  1.0000
  C   C2028     1.0  0.29412  0.86377  0.64367  1.0000
  H   H2406     1.0  0.33234  0.94755  0.69915  1.0000
  C   C2029     1.0  0.03795  0.80131  0.49327  1.0000
  H   H2407     1.0  0.24612  0.82028  0.49557  1.0000
  C   C2030     1.0  0.17375  0.92885  0.51022  1.0000
  Fe  Fe279     1.0  0.17100  0.97907  0.56499  1.0000
  H   H2408     1.0  0.32170  0.94017  0.72585  1.0000
  C   C2031     1.0  0.47144  0.79987  0.83814  1.0000
  H   H2409     1.0  0.45153  0.97983  0.86451  1.0000
  C   C2032     1.0  0.43121  0.85454  0.88468  1.0000
  H   H2410     1.0  0.46725  0.93174  0.56487  1.0000
  N   N135      1.0  0.18833  0.92057  0.58578  1.0000
  C   C2033     1.0  0.19173  0.90687  0.59630  1.0000
  C   C2034     1.0  0.18403  0.93236  0.59346  1.0000
  C   C2035     1.0  0.17571  0.92031  0.58060  1.0000
  C   C2036     1.0  0.20067  0.92305  0.57350  1.0000
  C   C2037     1.0  0.19909  0.93564  0.56247  1.0000
  C   C2038     1.0  0.21447  0.91330  0.57211  1.0000
  C   C2039     1.0  0.21060  0.93834  0.55082  1.0000
  C   C2040     1.0  0.22586  0.91603  0.56035  1.0000
  C   C2041     1.0  0.22395  0.92853  0.54975  1.0000
  H   H2411     1.0  0.20063  0.90659  0.60126  1.0000
  H   H2412     1.0  0.18210  0.90506  0.60516  1.0000
  H   H2413     1.0  0.19487  0.89747  0.59129  1.0000
  H   H2414     1.0  0.19338  0.93327  0.59703  1.0000
  H   H2415     1.0  0.17501  0.93065  0.60301  1.0000
  H   H2416     1.0  0.18003  0.94294  0.58671  1.0000
  H   H2417     1.0  0.17864  0.91195  0.57428  1.0000
  H   H2418     1.0  0.16640  0.91781  0.58960  1.0000
  H   H2419     1.0  0.17137  0.93075  0.57386  1.0000
  H   H2420     1.0  0.18892  0.94356  0.56281  1.0000
  H   H2421     1.0  0.21678  0.90336  0.57984  1.0000
  H   H2422     1.0  0.20915  0.94813  0.54260  1.0000
  H   H2423     1.0  0.23621  0.90828  0.55948  1.0000
  H   H2424     1.0  0.23283  0.93061  0.54068  1.0000
  H   H2425     1.0  0.49186  0.92751  0.58806  1.0000
  C   C2042     1.0  0.43083  0.83618  0.90642  1.0000
  H   H2426     1.0  0.48645  0.85273  0.78618  1.0000
  H   H2427     1.0  0.16663  0.92774  0.53975  1.0000
  S   S557      1.0  0.47985  0.82495  0.92920  1.0000
  C   C2043     1.0  0.45894  0.86870  0.90188  1.0000
  H   H2428     1.0  0.22685  0.96668  0.60036  1.0000
  H   H2429     1.0  0.15690  0.85168  0.49698  1.0000
  H   H2430     1.0  0.28774  0.88287  0.66892  1.0000
  H   H2431     1.0  0.13360  0.98766  0.52582  1.0000
  H   H2432     1.0  0.39368  0.88034  0.82177  1.0000
  H   H2433     1.0  0.11504  0.86252  0.56431  1.0000
  C   C2044     1.0  0.44389  0.79694  0.93865  1.0000
  S   S558      1.0  0.49913  0.81039  0.96166  1.0000
  H   H2434     1.0  0.27993  0.86385  0.60881  1.0000
  H   H2435     1.0  0.16955  0.90161  0.54107  1.0000
  C   C2045     1.0  0.44573  0.86069  0.92560  1.0000
  C   C2046     1.0  0.16725  0.82953  0.50411  1.0000
  C   C2047     1.0  0.18908  0.90546  0.50815  1.0000
  H   H2436     1.0  0.46900  0.92015  0.63492  1.0000
  H   H2437     1.0  0.38137  0.97659  0.61204  1.0000
  H   H2438     1.0  0.43326  0.95057  0.67541  1.0000
  C   C2048     1.0  0.47043  0.81205  0.81396  1.0000
  H   H2439     1.0  0.48194  0.91136  0.78328  1.0000
  H   H2440     1.0  0.37349  0.99109  0.69064  1.0000
  N   N136      1.0  0.47937  0.85122  0.85685  1.0000
  H   H2441     1.0  0.23854  0.98052  0.63745  1.0000
  H   H2442     1.0  0.39985  0.88292  0.63942  1.0000
  H   H2443     1.0  0.47928  0.87331  0.85536  1.0000
  C   C2049     1.0  0.47249  0.83965  0.86693  1.0000
  C   C2050     1.0  0.46402  0.83260  0.86295  1.0000
  C   C2051     1.0  0.47452  0.83485  0.88116  1.0000
  C   C2052     1.0  0.45806  0.82143  0.87268  1.0000
  C   C2053     1.0  0.46832  0.82384  0.89085  1.0000
  C   C2054     1.0  0.46021  0.81706  0.88658  1.0000
  H   H2444     1.0  0.39387  0.92229  0.63546  1.0000
  C   C2055     1.0  0.37104  0.91006  0.64015  1.0000
  H   H2445     1.0  0.46317  0.86754  0.86625  1.0000
  H   H2446     1.0  0.34568  0.90878  0.54936  1.0000
  S   S559      1.0  0.39405  0.91134  0.49253  1.0000
  C   C2056     1.0  0.21373  0.84451  0.52848  1.0000
  H   H2447     1.0  0.40591  0.92785  0.75904  1.0000
  C   C2057     1.0  0.42507  0.82324  0.85799  1.0000
  H   H2448     1.0  0.35600  0.89975  0.61350  1.0000
  H   H2449     1.0  0.22057  0.94715  0.57728  1.0000
  H   H2450     1.0  0.34880  0.93582  0.51430  1.0000
  H   H2451     1.0  0.33929  0.90718  0.63507  1.0000
  H   H2452     1.0  0.33737  0.96453  0.69283  1.0000
  C   C2058     1.0  0.38425  0.86400  0.80117  1.0000
  H   H2453     1.0  0.09502  0.88864  0.53804  1.0000
  C   C2059     1.0  0.48672  0.95162  0.89924  1.0000
  C   C2060     1.0  0.35079  0.90692  0.63304  1.0000
  C   C2061     1.0  0.44672  0.98193  0.69974  1.0000
  C   C2062     1.0  0.31002  0.98039  0.69922  1.0000
  C   C2063     1.0  0.39952  0.91829  0.62562  1.0000
  N   N137      1.0  0.41830  0.94374  0.75568  1.0000
  H   H2454     1.0  0.48353  0.83203  0.80919  1.0000
  C   C2064     1.0  0.36023  0.90266  0.62094  1.0000
  N   N138      1.0  0.38489  0.86652  0.81485  1.0000
  C   C2065     1.0  0.36994  0.87028  0.82355  1.0000
  C   C2066     1.0  0.37537  0.87273  0.77893  1.0000
  S   S560      1.0  0.46789  0.96362  0.65589  1.0000
  C   C2067     1.0  0.42692  0.83063  0.84364  1.0000
  C   C2068     1.0  0.37628  0.87486  0.79183  1.0000
  H   H2455     1.0  0.36347  0.88053  0.81839  1.0000
  C   C2069     1.0  0.48765  0.83593  0.77602  1.0000
  C   C2070     1.0  0.18128  0.90074  0.54009  1.0000
  H   H2456     1.0  0.46659  0.85811  0.90167  1.0000
  H   H2457     1.0  0.38176  0.89854  0.60882  1.0000
  C   C2071     1.0  0.36521  0.97657  0.72357  1.0000
  C   C2072     1.0  0.22599  0.95358  0.58075  1.0000
  C   C2073     1.0  0.18423  0.79603  0.56548  1.0000
  H   H2458     1.0  0.49028  0.92862  0.57045  1.0000
  H   H2459     1.0  0.45477  0.97747  0.67872  1.0000
  C   C2074     1.0  0.37513  0.90196  0.61841  1.0000
  C   C2075     1.0  0.39208  0.87860  0.81186  1.0000
  C   C2076     1.0  0.49006  0.84875  0.91377  1.0000
  H   H2460     1.0  0.40294  0.87655  0.80457  1.0000
  H   H2461     1.0  0.36942  0.88124  0.77184  1.0000
  H   H2462     1.0  0.43415  0.88753  0.89896  1.0000
  H   H2463     1.0  0.45155  0.90455  0.64174  1.0000
  C   C2077     1.0  0.45537  0.90925  0.63055  1.0000
  H   H2464     1.0  0.00997  0.84940  0.49066  1.0000
  C   C2078     1.0  0.35618  0.91078  0.64253  1.0000
  H   H2465     1.0  0.40263  0.90730  0.60321  1.0000
  H   H2466     1.0  0.37089  0.88521  0.79429  1.0000
  C   C2079     1.0  0.26152  0.85931  0.63344  1.0000
  C   C2080     1.0  0.37040  0.95477  0.74740  1.0000
  Fe  Fe280     1.0  0.20549  0.84235  0.57985  1.0000
  S   S561      1.0  0.22578  0.84875  0.56487  1.0000
  H   H2467     1.0  0.43308  0.82854  0.82176  1.0000
  H   H2468     1.0  0.41752  0.89913  0.61165  1.0000
  H   H2469     1.0  0.34888  0.91418  0.65193  1.0000
  C   C2081     1.0  0.46481  0.92229  0.60134  1.0000
  C   C2082     1.0  0.23477  0.95623  0.59984  1.0000
  H   H2470     1.0  0.12185  0.87465  0.50454  1.0000
  H   H2471     1.0  0.23604  0.95517  0.57243  1.0000
  Fe  Fe281     1.0  0.08532  0.85001  0.50268  1.0000
  H   H2472     1.0  0.43835  0.87303  0.88398  1.0000
  H   H2473     1.0  0.08022  0.82943  0.55296  1.0000
  C   C2083     1.0  0.10208  0.80252  0.54988  1.0000
  S   S562      1.0  0.10155  0.85759  0.50885  1.0000
  S   S563      1.0  0.09582  0.82735  0.50119  1.0000
  H   H2474     1.0  0.47975  0.86223  0.87256  1.0000
  H   H2475     1.0  0.09920  0.80787  0.52836  1.0000
  C   C2084     1.0  0.40578  0.89960  0.61291  1.0000
  H   H2476     1.0  0.11583  0.87130  0.54586  1.0000
  H   H2477     1.0  0.46092  0.92168  0.71489  1.0000
  H   H2478     1.0  0.45027  0.91082  0.59815  1.0000
  H   H2479     1.0  0.18712  0.80055  0.48996  1.0000
  H   H2480     1.0  0.46320  0.85982  0.84405  1.0000
  H   H2481     1.0  0.47801  0.79333  0.84607  1.0000
  H   H2482     1.0  0.42607  0.98059  0.58307  1.0000
  H   H2483     1.0  0.09149  0.82715  0.57292  1.0000
  H   H2484     1.0  0.21530  0.82295  0.52695  1.0000
  C   C2085     1.0  0.50139  0.83327  0.81622  1.0000
  C   C2086     1.0  0.34754  0.91380  0.53772  1.0000
  H   H2485     1.0  0.19283  0.79714  0.52648  1.0000
  C   C2087     1.0  0.47518  0.85585  0.84280  1.0000
  C   C2088     1.0  0.49540  0.84613  0.85420  1.0000
  Fe  Fe282     1.0  0.19536  0.98984  0.54285  1.0000
  H   H2486     1.0  0.21100  0.87383  0.50105  1.0000
  N   N139      1.0  0.44435  0.86692  0.91055  1.0000
  H   H2487     1.0  0.38585  0.88891  0.80650  1.0000
  C   C2089     1.0  0.08936  0.83743  0.56551  1.0000
  H   H2488     1.0  0.18309  0.89877  0.55102  1.0000
  H   H2489     1.0  0.25683  0.85354  0.64433  1.0000
  H   H2490     1.0  0.29710  0.84261  0.62963  1.0000
  C   C2090     1.0  0.24104  0.93348  0.59335  1.0000
  H   H2491     1.0  0.12510  0.98123  0.55862  1.0000
  C   C2091     1.0  0.43637  0.86279  0.89055  1.0000
  C   C2092     1.0  0.28234  0.86742  0.61732  1.0000
  C   C2093     1.0  0.45495  0.91301  0.60564  1.0000
  C   C2094     1.0  0.49396  0.97113  0.90356  1.0000
  S   S564      1.0  0.37563  0.97285  0.76089  1.0000
  S   S565      1.0  0.07055  0.80396  0.53071  1.0000
  C   C2095     1.0  0.44751  0.94100  0.72124  1.0000
  C   C2096     1.0  0.19070  0.80275  0.49856  1.0000
  C   C2097     1.0  0.40466  0.93967  0.75656  1.0000
  C   C2098     1.0  0.32817  0.95917  0.69510  1.0000
  C   C2099     1.0  0.37071  0.96887  0.74707  1.0000
  H   H2492     1.0  0.37583  0.90954  0.53426  1.0000
  H   H2493     1.0  0.43329  0.95845  0.72961  1.0000
  H   H2494     1.0  0.36373  0.95069  0.53024  1.0000
  C   C2100     1.0  0.43956  0.93506  0.49781  1.0000
  S   S566      1.0  0.21528  0.82457  0.49784  1.0000
  H   H2495     1.0  0.36748  0.91538  0.55074  1.0000
  C   C2101     1.0  0.36945  0.91897  0.53887  1.0000
  H   H2496     1.0  0.37658  0.92674  0.53567  1.0000
  H   H2497     1.0  0.32905  0.96879  0.56121  1.0000
  C   C2102     1.0  0.14276  0.83757  0.50016  1.0000
  H   H2498     1.0  0.37007  0.87163  0.83418  1.0000
  C   C2103     1.0  0.37071  0.97414  0.59708  1.0000
  S   S567      1.0  0.44114  0.98115  0.60371  1.0000
  C   C2104     1.0  0.35891  0.93032  0.51829  1.0000
  H   H2499     1.0  0.36458  0.92125  0.51286  1.0000
  C   C2105     1.0  0.16622  0.81493  0.50797  1.0000
  S   S568      1.0  0.03580  0.85777  0.49051  1.0000
  C   C2106     1.0  0.42813  0.80816  0.86158  1.0000
  H   H2500     1.0  0.18176  0.86488  0.50419  1.0000
  H   H2501     1.0  0.21148  0.85549  0.48860  1.0000
  C   C2107     1.0  0.34757  0.93761  0.54088  1.0000
  N   N140      1.0  0.35560  0.92537  0.53409  1.0000
  C   C2108     1.0  0.43644  0.94688  0.73167  1.0000
  C   C2109     1.0  0.48576  0.98092  0.89413  1.0000
  H   H2502     1.0  0.42497  0.96354  0.75240  1.0000
  C   C2110     1.0  0.28929  0.98171  0.64265  1.0000
  C   C2111     1.0  0.49151  0.86282  0.91170  1.0000
  H   H2503     1.0  0.09249  0.89828  0.55137  1.0000
  C   C2112     1.0  0.19299  0.81211  0.57955  1.0000
  C   C2113     1.0  0.42989  0.93796  0.74429  1.0000
  Fe  Fe283     1.0  0.48309  0.80489  0.98221  1.0000
  H   H2504     1.0  0.07272  0.90669  0.50808  1.0000
  C   C2114     1.0  0.44604  0.91715  0.73516  1.0000
  H   H2505     1.0  0.20276  0.96501  0.60109  1.0000
  C   C2115     1.0  0.43609  0.84428  0.91236  1.0000
  C   C2116     1.0  0.25515  0.82491  0.49558  1.0000
  H   H2506     1.0  0.09813  0.84780  0.57588  1.0000
  C   C2117     1.0  0.32763  0.94865  0.55838  1.0000
  H   H2507     1.0  0.18077  0.96015  0.61847  1.0000
  H   H2508     1.0  0.13383  0.84620  0.49710  1.0000
  C   C2118     1.0  0.43488  0.92290  0.74559  1.0000
  S   S569      1.0  0.30079  0.97393  0.66668  1.0000
  H   H2509     1.0  0.12525  0.81828  0.55856  1.0000
  H   H2510     1.0  0.17774  0.80373  0.59811  1.0000
  H   H2511     1.0  0.44495  0.98797  0.82237  1.0000
  C   C2119     1.0  0.45236  0.92618  0.72302  1.0000
  Fe  Fe284     1.0  0.47918  0.96921  0.63287  1.0000
  H   H2512     1.0  0.25120  0.82993  0.50501  1.0000
  C   C2120     1.0  0.27122  0.87955  0.66071  1.0000
  C   C2121     1.0  0.09044  0.86291  0.55753  1.0000
  H   H2513     1.0  0.45239  0.94799  0.71173  1.0000
  C   C2122     1.0  0.28546  0.87778  0.66179  1.0000
  H   H2514     1.0  0.43325  0.93959  0.76919  1.0000
  C   C2123     1.0  0.22955  0.99004  0.63541  1.0000
  H   H2515     1.0  0.43014  0.91543  0.75468  1.0000
  H   H2516     1.0  0.30147  0.98580  0.70716  1.0000
  H   H2517     1.0  0.30797  0.86906  0.65382  1.0000
  C   C2124     1.0  0.32399  0.97462  0.72236  1.0000
  C   C2125     1.0  0.35805  0.97847  0.59178  1.0000
  C   C2126     1.0  0.18424  0.80627  0.52260  1.0000
  H   H2518     1.0  0.40102  0.94420  0.74632  1.0000
  H   H2519     1.0  0.29426  0.86669  0.61482  1.0000
  H   H2520     1.0  0.19995  0.80397  0.54707  1.0000
  H   H2521     1.0  0.26456  0.81583  0.49749  1.0000
  C   C2127     1.0  0.28276  0.97895  0.63320  1.0000
  H   H2522     1.0  0.42672  0.80252  0.87268  1.0000
  H   H2523     1.0  0.31775  0.94800  0.56661  1.0000
  C   C2128     1.0  0.34673  0.96106  0.54493  1.0000
  H   H2524     1.0  0.43506  0.85931  0.93285  1.0000
  H   H2525     1.0  0.25706  0.87555  0.65066  1.0000
  Fe  Fe285     1.0  0.45208  0.97325  0.62223  1.0000
  H   H2526     1.0  0.40838  0.94830  0.67872  1.0000
  H   H2527     1.0  0.49078  0.85022  0.96370  1.0000
  H   H2528     1.0  0.42312  0.88044  0.91577  1.0000
  H   H2529     1.0  0.47646  0.81497  0.80268  1.0000
  C   C2129     1.0  0.19036  0.95150  0.61732  1.0000
  H   H2530     1.0  0.43795  0.88807  0.91506  1.0000
  H   H2531     1.0  0.11833  0.98054  0.53650  1.0000
  H   H2532     1.0  0.23747  0.92549  0.59004  1.0000
  H   H2533     1.0  0.41081  0.96497  0.74347  1.0000
  H   H2534     1.0  0.18708  0.89090  0.53605  1.0000
  C   C2130     1.0  0.42836  0.84131  0.89265  1.0000
  H   H2535     1.0  0.49679  0.86818  0.90138  1.0000
  H   H2536     1.0  0.45359  0.85011  0.92667  1.0000
  H   H2537     1.0  0.11414  0.88136  0.55882  1.0000
  H   H2538     1.0  0.39565  0.94378  0.76507  1.0000
  S   S570      1.0  0.13379  0.92583  0.50472  1.0000
  C   C2131     1.0  0.33117  0.95893  0.74375  1.0000
  H   H2539     1.0  0.40892  0.97784  0.63476  1.0000
  N   N141      1.0  0.17884  0.80335  0.51151  1.0000
  H   H2540     1.0  0.42871  0.82578  0.91251  1.0000
  H   H2541     1.0  0.20600  0.92109  0.52169  1.0000
  H   H2542     1.0  0.26242  0.88604  0.66706  1.0000
  C   C2132     1.0  0.46517  0.91810  0.62668  1.0000
  H   H2543     1.0  0.46279  0.80570  0.81387  1.0000
  C   C2133     1.0  0.08122  0.79708  0.56852  1.0000
  H   H2544     1.0  0.19438  0.81293  0.49424  1.0000
  S   S571      1.0  0.21198  0.98667  0.52281  1.0000
  H   H2545     1.0  0.17525  0.80816  0.53202  1.0000
  C   C2134     1.0  0.49507  0.87955  0.76195  1.0000
  Fe  Fe286     1.0  0.44967  0.98159  0.64959  1.0000
  H   H2546     1.0  0.03117  0.82025  0.50195  1.0000
  C   C2135     1.0  0.04395  0.80282  0.51453  1.0000
  H   H2547     1.0  0.49725  0.89726  0.84785  1.0000
  C   C2136     1.0  0.18233  0.80409  0.58686  1.0000
  H   H2548     1.0  0.49655  0.88051  0.83408  1.0000
  H   H2549     1.0  0.36297  0.98511  0.71451  1.0000
  C   C2137     1.0  0.37525  0.98753  0.67000  1.0000
  H   H2550     1.0  0.19599  0.89541  0.51216  1.0000
  C   C2138     1.0  0.07353  0.79872  0.55811  1.0000
  C   C2139     1.0  0.17779  0.79627  0.57982  1.0000
  C   C2140     1.0  0.49916  0.84911  0.96967  1.0000
  H   H2551     1.0  0.48390  0.98485  0.85409  1.0000
  H   H2552     1.0  0.14038  0.98804  0.54764  1.0000
  H   H2553     1.0  0.31884  0.98639  0.69480  1.0000
  H   H2554     1.0  0.49818  0.80291  0.90993  1.0000
  C   C2141     1.0  0.43623  0.99068  0.70822  1.0000
  H   H2555     1.0  0.49731  0.87357  0.94982  1.0000
  H   H2556     1.0  0.37835  0.98615  0.64858  1.0000
  C   C2142     1.0  0.09127  0.79383  0.49396  1.0000
  H   H2557     1.0  0.26272  0.98037  0.50308  1.0000
  C   C2143     1.0  0.45996  0.91531  0.49386  1.0000
  C   C2144     1.0  0.17066  0.93054  0.49696  1.0000
  H   H2558     1.0  0.46970  0.90808  0.49683  1.0000
  H   H2559     1.0  0.06253  0.79709  0.56129  1.0000
  H   H2560     1.0  0.39276  0.98597  0.62767  1.0000
  C   C2145     1.0  0.38231  0.98989  0.65556  1.0000
  H   H2561     1.0  0.49598  0.79325  0.80781  1.0000
  S   S572      1.0  0.43402  0.79400  0.91706  1.0000
  H   H2562     1.0  0.16324  0.94017  0.49276  1.0000
  C   C2146     1.0  0.09562  0.79864  0.56437  1.0000
  H   H2563     1.0  0.49958  0.84374  0.86404  1.0000
  S   S573      1.0  0.43614  0.98827  0.72626  1.0000
  C   C2147     1.0  0.26731  0.98740  0.49342  1.0000
  C   C2148     1.0  0.18607  0.90733  0.49483  1.0000
  S   S574      1.0  0.46176  0.98854  0.62719  1.0000
  C   C2149     1.0  0.34661  0.98914  0.59679  1.0000
  S   S575      1.0  0.33380  0.98946  0.66349  1.0000
  C   C2150     1.0  0.40309  0.98782  0.62849  1.0000
  H   H2564     1.0  0.36731  0.99072  0.73519  1.0000
  C   C2151     1.0  0.17674  0.91977  0.48931  1.0000
  H   H2565     1.0  0.09399  0.80455  0.48972  1.0000
  C   C2152     1.0  0.49945  0.80047  0.89972  1.0000
  H   H2566     1.0  0.50104  0.85428  0.84621  1.0000
  H   H2567     1.0  0.40965  0.98937  0.61730  1.0000
  S   S576      1.0  0.10595  0.79445  0.57719  1.0000
  H   H2568     1.0  0.19053  0.89881  0.48901  1.0000
  H   H2569     1.0  0.50029  0.94890  0.91380  1.0000
  C   C2153     1.0  0.35988  0.99021  0.61339  1.0000
  H   H2570     1.0  0.50197  0.79460  0.83872  1.0000
  C   C2154     1.0  0.50141  0.80544  0.83242  1.0000
  H   H2571     1.0  0.50154  0.84407  0.80982  1.0000
  H   H2572     1.0  0.22164  0.99093  0.64575  1.0000
  C   C2155     1.0  0.44934  0.79181  0.95109  1.0000
  C   C2156     1.0  0.43474  0.93391  0.48640  1.0000
  Fe  Fe287     1.0  0.81238  0.05776  0.45769  1.0000
  S   S577      1.0  0.78848  0.05961  0.46681  1.0000
  S   S578      1.0  0.82695  0.03577  0.46050  1.0000
  Fe  Fe288     1.0  0.80936  0.08993  0.44657  1.0000
  S   S579      1.0  0.78507  0.09439  0.45465  1.0000
  S   S580      1.0  0.82286  0.10650  0.43427  1.0000
  Fe  Fe289     1.0  0.78999  0.07814  0.47441  1.0000
  C   C2157     1.0  0.69409  0.99583  0.38302  1.0000
  Fe  Fe290     1.0  0.78571  0.07536  0.44617  1.0000
  S   S581      1.0  0.76818  0.07678  0.43454  1.0000
  S   S582      1.0  0.81417  0.07503  0.46693  1.0000
  S   S583      1.0  0.80972  0.07218  0.43650  1.0000
  H   H2573     1.0  0.70218  0.07327  0.32401  1.0000
  S   S584      1.0  0.90406  0.12607  0.46157  1.0000
  C   C2158     1.0  0.53531  0.08707  0.19398  1.0000
  C   C2159     1.0  0.94810  0.15970  0.43119  1.0000
  H   H2574     1.0  0.51539  0.08280  0.11251  1.0000
  C   C2160     1.0  0.94045  0.11210  0.47716  1.0000
  H   H2575     1.0  0.56567  0.05062  0.17103  1.0000
  H   H2576     1.0  0.52514  0.13716  0.13481  1.0000
  H   H2577     1.0  0.52929  0.01978  0.18355  1.0000
  S   S585      1.0  0.54917  0.01960  0.15369  1.0000
  H   H2578     1.0  0.94964  0.01001  0.47859  1.0000
  Fe  Fe291     1.0  0.53669  0.00588  0.15003  1.0000
  C   C2161     1.0  0.68679  0.03738  0.29512  1.0000
  Fe  Fe292     1.0  0.56752  0.00988  0.13780  1.0000
  S   S586      1.0  0.58123  0.02400  0.12141  1.0000
  H   H2579     1.0  0.59285  0.04505  0.28634  1.0000
  C   C2162     1.0  0.53416  0.16639  0.11935  1.0000
  Fe  Fe293     1.0  0.55032  0.12387  0.07008  1.0000
  S   S587      1.0  0.57160  0.12266  0.05403  1.0000
  Fe  Fe294     1.0  0.55145  0.09244  0.07592  1.0000
  S   S588      1.0  0.57269  0.08824  0.06030  1.0000
  S   S589      1.0  0.53952  0.07536  0.08913  1.0000
  Fe  Fe295     1.0  0.57906  0.10275  0.06982  1.0000
  S   S590      1.0  0.60082  0.09580  0.07556  1.0000
  Fe  Fe296     1.0  0.56320  0.10840  0.04592  1.0000
  S   S591      1.0  0.56678  0.10908  0.02244  1.0000
  S   S592      1.0  0.55854  0.10528  0.08664  1.0000
  S   S593      1.0  0.54126  0.11129  0.06081  1.0000
  C   C2163     1.0  0.51097  0.02552  0.21633  1.0000
  Fe  Fe297     1.0  0.61596  0.04910  0.22019  1.0000
  S   S594      1.0  0.62616  0.05346  0.19669  1.0000
  S   S595      1.0  0.62663  0.03121  0.23626  1.0000
  Fe  Fe298     1.0  0.58697  0.06873  0.21555  1.0000
  S   S596      1.0  0.59479  0.07478  0.19183  1.0000
  S   S597      1.0  0.56358  0.07525  0.22661  1.0000
  Fe  Fe299     1.0  0.60518  0.05155  0.19357  1.0000
  S   S598      1.0  0.60459  0.04171  0.17621  1.0000
  Fe  Fe300     1.0  0.61488  0.07643  0.19690  1.0000
  S   S599      1.0  0.62637  0.09369  0.18273  1.0000
  S   S600      1.0  0.59585  0.04520  0.21695  1.0000
  S   S601      1.0  0.60629  0.07233  0.22077  1.0000
  Fe  Fe301     1.0  0.58782  0.15960  0.13977  1.0000
  S   S602      1.0  0.58634  0.15439  0.16335  1.0000
  Fe  Fe302     1.0  0.60321  0.15117  0.11182  1.0000
  S   S603      1.0  0.62139  0.13603  0.10084  1.0000
  S   S604      1.0  0.60688  0.16603  0.12293  1.0000
  S   S605      1.0  0.58587  0.14310  0.12969  1.0000
  C   C2164     1.0  0.53063  0.07939  0.20785  1.0000
  H   H2580     1.0  0.56314  0.06248  0.26634  1.0000
  H   H2581     1.0  0.50885  0.14358  0.11806  1.0000
  S   S606      1.0  0.70883  0.01793  0.39824  1.0000
  C   C2165     1.0  0.85613  0.99640  0.44448  1.0000
  Fe  Fe303     1.0  0.74419  0.02867  0.39701  1.0000
  S   S607      1.0  0.72363  0.04499  0.39366  1.0000
  S   S608      1.0  0.76457  0.03333  0.39990  1.0000
  Fe  Fe304     1.0  0.71276  0.02987  0.41197  1.0000
  S   S609      1.0  0.69631  0.03790  0.43024  1.0000
  Fe  Fe305     1.0  0.72144  0.03146  0.37995  1.0000
  S   S610      1.0  0.71006  0.04051  0.36137  1.0000
  S   S611      1.0  0.73322  0.01423  0.41610  1.0000
  S   S612      1.0  0.74321  0.01633  0.38143  1.0000
  H   H2582     1.0  0.64409  0.00321  0.23060  1.0000
  H   H2583     1.0  0.54254  0.08078  0.05951  1.0000
  H   H2584     1.0  0.73788  0.02362  0.44973  1.0000
  Fe  Fe306     1.0  0.67604  0.00548  0.32029  1.0000
  S   S613      1.0  0.67524  0.00619  0.29786  1.0000
  C   C2166     1.0  0.86258  0.02283  0.47718  1.0000
  Fe  Fe307     1.0  0.65354  0.02129  0.30236  1.0000
  S   S614      1.0  0.64770  0.04167  0.28608  1.0000
  H   H2585     1.0  0.72858  0.02376  0.47627  1.0000
  S   S615      1.0  0.65535  0.02200  0.32411  1.0000
  C   C2167     1.0  0.70734  0.03994  0.30895  1.0000
  S   S616      1.0  0.63227  0.03558  0.43275  1.0000
  H   H2586     1.0  0.86414  0.05786  0.46370  1.0000
  C   C2168     1.0  0.56328  0.01050  0.09497  1.0000
  C   C2169     1.0  0.56722  0.06126  0.16413  1.0000
  H   H2587     1.0  0.82169  0.04770  0.48610  1.0000
  H   H2588     1.0  0.74193  0.03892  0.46268  1.0000
  C   C2170     1.0  0.63074  0.02766  0.47024  1.0000
  H   H2589     1.0  0.60507  0.01947  0.47947  1.0000
  H   H2590     1.0  0.82136  0.09668  0.39121  1.0000
  C   C2171     1.0  0.67860  0.03754  0.43026  1.0000
  C   C2172     1.0  0.66690  0.04810  0.43515  1.0000
  C   C2173     1.0  0.65267  0.04780  0.43537  1.0000
  C   C2174     1.0  0.65011  0.03658  0.43133  1.0000
  C   C2175     1.0  0.66178  0.02587  0.42668  1.0000
  C   C2176     1.0  0.67605  0.02656  0.42583  1.0000
  H   H2591     1.0  0.66886  0.05663  0.43854  1.0000
  H   H2592     1.0  0.64365  0.05608  0.43898  1.0000
  H   H2593     1.0  0.65982  0.01716  0.42358  1.0000
  H   H2594     1.0  0.68504  0.01837  0.42216  1.0000
  C   C2177     1.0  0.70538  0.02882  0.35382  1.0000
  C   C2178     1.0  0.69242  0.03313  0.34889  1.0000
  C   C2179     1.0  0.68934  0.02491  0.34118  1.0000
  C   C2180     1.0  0.69945  0.01257  0.33795  1.0000
  C   C2181     1.0  0.71221  0.00807  0.34320  1.0000
  C   C2182     1.0  0.71509  0.01604  0.35125  1.0000
  H   H2595     1.0  0.68493  0.04307  0.35071  1.0000
  H   H2596     1.0  0.67949  0.02849  0.33720  1.0000
  H   H2597     1.0  0.56067  0.02212  0.09288  1.0000
  H   H2598     1.0  0.72515  0.01266  0.35489  1.0000
  S   S617      1.0  0.51407  0.01317  0.14629  1.0000
  C   C2183     1.0  0.55596  0.05486  0.00806  1.0000
  C   C2184     1.0  0.54638  0.06525  0.15418  1.0000
  C   C2185     1.0  0.67214  0.99284  0.40077  1.0000
  Fe  Fe308     1.0  0.85420  0.15616  0.46327  1.0000
  H   H2599     1.0  0.80975  0.12224  0.38497  1.0000
  H   H2600     1.0  0.51559  0.10274  0.15253  1.0000
  C   C2186     1.0  0.63274  0.03454  0.24970  1.0000
  C   C2187     1.0  0.63772  0.02285  0.26014  1.0000
  C   C2188     1.0  0.64239  0.02499  0.27124  1.0000
  C   C2189     1.0  0.64215  0.03885  0.27198  1.0000
  C   C2190     1.0  0.63730  0.05057  0.26145  1.0000
  C   C2191     1.0  0.63251  0.04844  0.25037  1.0000
  H   H2601     1.0  0.63799  0.01207  0.25968  1.0000
  H   H2602     1.0  0.64629  0.01586  0.27916  1.0000
  H   H2603     1.0  0.63722  0.06130  0.26188  1.0000
  H   H2604     1.0  0.62874  0.05752  0.24231  1.0000
  C   C2192     1.0  0.61504  0.11049  0.17758  1.0000
  C   C2193     1.0  0.60068  0.11409  0.18517  1.0000
  C   C2194     1.0  0.59190  0.12766  0.18087  1.0000
  C   C2195     1.0  0.59728  0.13741  0.16868  1.0000
  C   C2196     1.0  0.61149  0.13364  0.16087  1.0000
  C   C2197     1.0  0.62045  0.12035  0.16550  1.0000
  H   H2605     1.0  0.59644  0.10655  0.19451  1.0000
  H   H2606     1.0  0.58089  0.13054  0.18693  1.0000
  H   H2607     1.0  0.61573  0.14113  0.15148  1.0000
  H   H2608     1.0  0.63159  0.11766  0.15968  1.0000
  C   C2198     1.0  0.55245  0.08025  0.21421  1.0000
  C   C2199     1.0  0.55691  0.08821  0.20043  1.0000
  C   C2200     1.0  0.53917  0.07604  0.21798  1.0000
  H   H2609     1.0  0.56677  0.09208  0.19766  1.0000
  H   H2610     1.0  0.53563  0.06994  0.22865  1.0000
  C   C2201     1.0  0.60605  0.10778  0.08198  1.0000
  C   C2202     1.0  0.59582  0.11865  0.08806  1.0000
  C   C2203     1.0  0.60043  0.12744  0.09391  1.0000
  C   C2204     1.0  0.61526  0.12555  0.09333  1.0000
  C   C2205     1.0  0.62540  0.11483  0.08709  1.0000
  C   C2206     1.0  0.62080  0.10588  0.08157  1.0000
  H   H2611     1.0  0.58440  0.12007  0.08850  1.0000
  H   H2612     1.0  0.59254  0.13558  0.09893  1.0000
  H   H2613     1.0  0.63685  0.11329  0.08668  1.0000
  H   H2614     1.0  0.62871  0.09746  0.07692  1.0000
  C   C2207     1.0  0.55224  0.10613  0.01747  1.0000
  C   C2208     1.0  0.55493  0.09991  0.00578  1.0000
  C   C2209     1.0  0.52209  0.00329  0.20906  1.0000
  C   C2210     1.0  0.81420  0.09635  0.40209  1.0000
  C   C2211     1.0  0.52683  0.10519  0.02269  1.0000
  C   C2212     1.0  0.53807  0.10919  0.02559  1.0000
  H   H2615     1.0  0.52084  0.02473  0.22012  1.0000
  Fe  Fe309     1.0  0.51875  0.08834  0.98717  1.0000
  H   H2616     1.0  0.53575  0.11452  0.03422  1.0000
  H   H2617     1.0  0.55745  0.05334  0.99739  1.0000
  H   H2618     1.0  0.61089  0.06532  0.47633  1.0000
  C   C2213     1.0  0.59016  0.02571  0.16971  1.0000
  C   C2214     1.0  0.59153  0.03142  0.18038  1.0000
  C   C2215     1.0  0.58245  0.02893  0.19400  1.0000
  C   C2216     1.0  0.57234  0.02035  0.19704  1.0000
  H   H2619     1.0  0.61592  0.05279  0.45865  1.0000
  H   H2620     1.0  0.56685  0.04483  0.27708  1.0000
  H   H2621     1.0  0.58327  0.03345  0.20224  1.0000
  H   H2622     1.0  0.62055  0.18183  0.15688  1.0000
  C   C2217     1.0  0.56967  0.03833  0.11250  1.0000
  C   C2218     1.0  0.55497  0.03824  0.11482  1.0000
  C   C2219     1.0  0.54570  0.04970  0.10770  1.0000
  C   C2220     1.0  0.55107  0.06137  0.09840  1.0000
  C   C2221     1.0  0.56569  0.06164  0.09631  1.0000
  C   C2222     1.0  0.57502  0.05006  0.10328  1.0000
  H   H2623     1.0  0.55072  0.02927  0.12197  1.0000
  H   H2624     1.0  0.53438  0.04949  0.10940  1.0000
  H   H2625     1.0  0.56987  0.07071  0.08930  1.0000
  H   H2626     1.0  0.58635  0.05023  0.10155  1.0000
  C   C2223     1.0  0.57031  0.05524  0.27353  1.0000
  C   C2224     1.0  0.91930  0.12574  0.46755  1.0000
  H   H2627     1.0  0.93598  0.17968  0.40850  1.0000
  H   H2628     1.0  0.62460  0.99887  0.38299  1.0000
  H   H2629     1.0  0.78929  0.09484  0.42186  1.0000
  C   C2225     1.0  0.55308  0.00329  0.09490  1.0000
  C   C2226     1.0  0.92860  0.11259  0.47174  1.0000
  H   H2630     1.0  0.91539  0.14861  0.46471  1.0000
  H   H2631     1.0  0.57581  0.05218  0.03157  1.0000
  C   C2227     1.0  0.55700  0.17112  0.05940  1.0000
  C   C2228     1.0  0.76732  0.06432  0.42527  1.0000
  C   C2229     1.0  0.77851  0.05227  0.42324  1.0000
  C   C2230     1.0  0.77747  0.04289  0.41551  1.0000
  C   C2231     1.0  0.76513  0.04524  0.40996  1.0000
  C   C2232     1.0  0.75391  0.05726  0.41205  1.0000
  C   C2233     1.0  0.75508  0.06680  0.41954  1.0000
  H   H2632     1.0  0.78805  0.05024  0.42749  1.0000
  H   H2633     1.0  0.78628  0.03371  0.41384  1.0000
  H   H2634     1.0  0.74449  0.05939  0.40760  1.0000
  H   H2635     1.0  0.74649  0.07623  0.42081  1.0000
  C   C2234     1.0  0.82608  0.11798  0.44319  1.0000
  C   C2235     1.0  0.83821  0.12428  0.43738  1.0000
  C   C2236     1.0  0.84084  0.13369  0.44411  1.0000
  C   C2237     1.0  0.83107  0.13721  0.45648  1.0000
  C   C2238     1.0  0.81892  0.13096  0.46222  1.0000
  C   C2239     1.0  0.81653  0.12124  0.45575  1.0000
  H   H2636     1.0  0.84563  0.12188  0.42763  1.0000
  H   H2637     1.0  0.85018  0.13850  0.43951  1.0000
  H   H2638     1.0  0.80706  0.11663  0.46023  1.0000
  H   H2639     1.0  0.58122  0.09333  0.10703  1.0000
  H   H2640     1.0  0.56553  0.01822  0.20765  1.0000
  C   C2240     1.0  0.84288  0.03562  0.46513  1.0000
  C   C2241     1.0  0.84795  0.04820  0.46179  1.0000
  C   C2242     1.0  0.86025  0.04812  0.46630  1.0000
  C   C2243     1.0  0.86738  0.03550  0.47428  1.0000
  C   C2244     1.0  0.57641  0.18943  0.07008  1.0000
  H   H2641     1.0  0.67030  0.02938  0.37981  1.0000
  H   H2642     1.0  0.84250  0.05796  0.45560  1.0000
  N   N142      1.0  0.72412  0.04439  0.45187  1.0000
  C   C2245     1.0  0.71767  0.05751  0.44217  1.0000
  C   C2246     1.0  0.73464  0.04837  0.45738  1.0000
  H   H2643     1.0  0.52733  0.05969  0.05789  1.0000
  C   C2247     1.0  0.71308  0.03822  0.46376  1.0000
  H   H2644     1.0  0.71121  0.05513  0.43598  1.0000
  H   H2645     1.0  0.71063  0.06574  0.44820  1.0000
  H   H2646     1.0  0.72616  0.06251  0.43393  1.0000
  H   H2647     1.0  0.74217  0.05426  0.44864  1.0000
  C   C2248     1.0  0.62236  0.00344  0.21801  1.0000
  H   H2648     1.0  0.53430  0.08245  0.04526  1.0000
  C   C2249     1.0  0.59436  0.04207  0.27603  1.0000
  N   N143      1.0  0.58594  0.05345  0.26634  1.0000
  H   H2649     1.0  0.67658  0.03819  0.47415  1.0000
  Fe  Fe310     1.0  0.63138  0.01241  0.43922  1.0000
  Fe  Fe311     1.0  0.50305  0.08573  0.19028  1.0000
  H   H2650     1.0  0.52055  0.07586  0.21076  1.0000
  S   S618      1.0  0.87462  0.15701  0.44612  1.0000
  H   H2651     1.0  0.77290  0.08971  0.37085  1.0000
  H   H2652     1.0  0.56110  0.06912  0.17087  1.0000
  C   C2250     1.0  0.51238  0.13630  0.08150  1.0000
  H   H2653     1.0  0.55192  0.09781  0.17975  1.0000
  H   H2654     1.0  0.66137  0.05311  0.30287  1.0000
  H   H2655     1.0  0.56525  0.05253  0.13449  1.0000
  H   H2656     1.0  0.60526  0.00038  0.19421  1.0000
  C   C2251     1.0  0.93718  0.15424  0.42903  1.0000
  C   C2252     1.0  0.54840  0.09158  0.19033  1.0000
  H   H2657     1.0  0.53156  0.00272  0.21340  1.0000
  H   H2658     1.0  0.51597  0.10725  0.02929  1.0000
  C   C2253     1.0  0.57552  0.09258  0.11816  1.0000
  H   H2659     1.0  0.57367  0.11481  0.11733  1.0000
  C   C2254     1.0  0.63505  0.02853  0.39657  1.0000
  Fe  Fe312     1.0  0.88631  0.14572  0.46383  1.0000
  H   H2660     1.0  0.66460  0.01753  0.36414  1.0000
  H   H2661     1.0  0.87059  0.10673  0.46555  1.0000
  H   H2662     1.0  0.58108  0.05539  0.24598  1.0000
  H   H2663     1.0  0.55455  0.09066  0.15750  1.0000
  H   H2664     1.0  0.56034  0.11331  0.14253  1.0000
  C   C2255     1.0  0.54460  0.07799  0.04904  1.0000
  C   C2256     1.0  0.84586  0.09689  0.47253  1.0000
  C   C2257     1.0  0.86944  0.09747  0.47487  1.0000
  C   C2258     1.0  0.80252  0.12110  0.39584  1.0000
  H   H2665     1.0  0.90923  0.15249  0.43895  1.0000
  Fe  Fe313     1.0  0.64437  0.00343  0.33184  1.0000
  H   H2666     1.0  0.60198  0.10428  0.25025  1.0000
  C   C2259     1.0  0.68796  0.03538  0.47463  1.0000
  C   C2260     1.0  0.53354  0.12365  0.11395  1.0000
  H   H2667     1.0  0.53223  0.12866  0.99150  1.0000
  H   H2668     1.0  0.84610  0.10595  0.46301  1.0000
  S   S619      1.0  0.55855  0.00374  0.19008  1.0000
  S   S620      1.0  0.63529  0.99789  0.42458  1.0000
  H   H2669     1.0  0.68744  0.00338  0.40251  1.0000
  C   C2261     1.0  0.64853  0.18475  0.06143  1.0000
  C   C2262     1.0  0.51782  0.10118  0.11817  1.0000
  H   H2670     1.0  0.79913  0.09898  0.48220  1.0000
  C   C2263     1.0  0.52271  0.12627  0.13799  1.0000
  H   H2671     1.0  0.90151  0.17016  0.43010  1.0000
  H   H2672     1.0  0.85042  0.08696  0.46833  1.0000
  N   N144      1.0  0.79986  0.10636  0.40153  1.0000
  H   H2673     1.0  0.57901  0.06119  0.16193  1.0000
  C   C2264     1.0  0.56623  0.18053  0.07395  1.0000
  H   H2674     1.0  0.83423  0.09701  0.47785  1.0000
  H   H2675     1.0  0.51943  0.10694  0.10711  1.0000
  H   H2676     1.0  0.57621  0.07053  0.12140  1.0000
  C   C2265     1.0  0.57262  0.07943  0.12662  1.0000
  H   H2677     1.0  0.69663  0.06066  0.27837  1.0000
  H   H2678     1.0  0.51462  0.99716  0.21751  1.0000
  C   C2266     1.0  0.54361  0.09610  0.00271  1.0000
  H   H2679     1.0  0.87452  0.08764  0.47056  1.0000
  H   H2680     1.0  0.60619  0.03981  0.27098  1.0000
  H   H2681     1.0  0.96741  0.15493  0.43944  1.0000
  C   C2267     1.0  0.60919  0.04529  0.46620  1.0000
  C   C2268     1.0  0.51536  0.08739  0.12115  1.0000
  H   H2682     1.0  0.50621  0.03718  0.21318  1.0000
  H   H2683     1.0  0.89251  0.00014  0.44941  1.0000
  H   H2684     1.0  0.54225  0.06757  0.14430  1.0000
  H   H2685     1.0  0.50470  0.05448  0.16740  1.0000
  H   H2686     1.0  0.55648  0.15550  0.08588  1.0000
  C   C2269     1.0  0.70744  0.99380  0.43912  1.0000
  C   C2270     1.0  0.64701  0.99131  0.23236  1.0000
  C   C2271     1.0  0.96011  0.13586  0.44194  1.0000
  H   H2687     1.0  0.79137  0.08092  0.40696  1.0000
  S   S621      1.0  0.51551  0.09256  0.00887  1.0000
  Fe  Fe314     1.0  0.58993  0.18239  0.11234  1.0000
  H   H2688     1.0  0.81999  0.09897  0.40880  1.0000
  H   H2689     1.0  0.92002  0.14770  0.41498  1.0000
  H   H2690     1.0  0.86333  0.06917  0.48297  1.0000
  C   C2272     1.0  0.57128  0.10469  0.12393  1.0000
  C   C2273     1.0  0.52308  0.16542  0.11370  1.0000
  H   H2691     1.0  0.54591  0.17238  0.06646  1.0000
  C   C2274     1.0  0.69399  0.06381  0.31182  1.0000
  H   H2692     1.0  0.54103  0.04347  0.06080  1.0000
  H   H2693     1.0  0.70925  0.03009  0.30553  1.0000
  H   H2694     1.0  0.66889  0.04708  0.31853  1.0000
  H   H2695     1.0  0.84655  0.01309  0.47507  1.0000
  C   C2275     1.0  0.50417  0.02969  0.15038  1.0000
  H   H2696     1.0  0.68296  0.07346  0.28724  1.0000
  C   C2276     1.0  0.66965  0.05444  0.30778  1.0000
  H   H2697     1.0  0.65145  0.03652  0.40046  1.0000
  H   H2698     1.0  0.58725  0.18482  0.14671  1.0000
  H   H2699     1.0  0.77928  0.07355  0.39303  1.0000
  H   H2700     1.0  0.53394  0.02674  0.19578  1.0000
  C   C2277     1.0  0.91125  0.16347  0.43425  1.0000
  H   H2701     1.0  0.68531  0.07316  0.31021  1.0000
  H   H2702     1.0  0.94748  0.10187  0.48058  1.0000
  C   C2278     1.0  0.58827  0.04830  0.25318  1.0000
  C   C2279     1.0  0.85031  0.02290  0.47267  1.0000
  H   H2703     1.0  0.55823  0.16211  0.05432  1.0000
  H   H2704     1.0  0.77883  0.11367  0.36253  1.0000
  H   H2705     1.0  0.85052  0.01955  0.43991  1.0000
  H   H2706     1.0  0.93631  0.14781  0.47411  1.0000
  Fe  Fe315     1.0  0.55715  0.00005  0.16949  1.0000
  C   C2280     1.0  0.70367  0.06407  0.31959  1.0000
  H   H2707     1.0  0.56969  0.14538  0.07424  1.0000
  H   H2708     1.0  0.58405  0.17452  0.04806  1.0000
  H   H2709     1.0  0.53969  0.17686  0.13252  1.0000
  S   S622      1.0  0.64565  0.99671  0.45301  1.0000
  C   C2281     1.0  0.88242  0.99908  0.44786  1.0000
  H   H2710     1.0  0.60758  0.17295  0.15602  1.0000
  H   H2711     1.0  0.81323  0.08505  0.40670  1.0000
  H   H2712     1.0  0.51623  0.16799  0.08472  1.0000
  H   H2713     1.0  0.87608  0.09776  0.48209  1.0000
  H   H2714     1.0  0.61228  0.01866  0.20156  1.0000
  H   H2715     1.0  0.54580  0.09093  0.99395  1.0000
  H   H2716     1.0  0.95002  0.11878  0.44370  1.0000
  C   C2282     1.0  0.56946  0.05176  0.14396  1.0000
  H   H2717     1.0  0.54026  0.07385  0.16005  1.0000
  H   H2718     1.0  0.56746  0.04149  0.15142  1.0000
  H   H2719     1.0  0.52552  0.15839  0.10649  1.0000
  H   H2720     1.0  0.70404  0.99975  0.37939  1.0000
  C   C2283     1.0  0.56282  0.05737  0.05609  1.0000
  H   H2721     1.0  0.61647  0.02249  0.36817  1.0000
  S   S623      1.0  0.88173  0.03591  0.48116  1.0000
  C   C2284     1.0  0.51297  0.07944  0.13514  1.0000
  C   C2285     1.0  0.64242  0.01792  0.37596  1.0000
  S   S624      1.0  0.53822  0.14452  0.07638  1.0000
  S   S625      1.0  0.88801  0.16558  0.46899  1.0000
  H   H2722     1.0  0.67831  0.03740  0.28970  1.0000
  C   C2286     1.0  0.51927  0.14695  0.08113  1.0000
  C   C2287     1.0  0.52963  0.09843  0.01142  1.0000
  H   H2723     1.0  0.69744  0.03470  0.28764  1.0000
  C   C2288     1.0  0.56539  0.07804  0.14129  1.0000
  H   H2724     1.0  0.54515  0.17781  0.08787  1.0000
  N   N145      1.0  0.51448  0.01836  0.20424  1.0000
  H   H2725     1.0  0.68622  0.02855  0.30488  1.0000
  H   H2726     1.0  0.92608  0.18393  0.42556  1.0000
  C   C2289     1.0  0.78864  0.11111  0.38010  1.0000
  H   H2727     1.0  0.60650  0.99580  0.09331  1.0000
  H   H2728     1.0  0.66517  0.99434  0.41098  1.0000
  H   H2729     1.0  0.84564  0.99621  0.44324  1.0000
  C   C2290     1.0  0.78194  0.08405  0.38939  1.0000
  H   H2730     1.0  0.71005  0.99564  0.26483  1.0000
  S   S626      1.0  0.62962  0.99939  0.35358  1.0000
  H   H2731     1.0  0.58420  0.15583  0.05301  1.0000
  C   C2291     1.0  0.64308  0.17266  0.06949  1.0000
  H   H2732     1.0  0.69383  0.04937  0.45477  1.0000
  N   N146      1.0  0.61680  0.01864  0.39050  1.0000
  C   C2292     1.0  0.60652  0.02321  0.40333  1.0000
  C   C2293     1.0  0.61014  0.02625  0.37806  1.0000
  S   S627      1.0  0.86601  0.14330  0.48053  1.0000
  C   C2294     1.0  0.63138  0.02169  0.38780  1.0000
  H   H2733     1.0  0.93001  0.13430  0.43311  1.0000
  H   H2734     1.0  0.62434  0.16475  0.08281  1.0000
  C   C2295     1.0  0.50590  0.18315  0.12605  1.0000
  C   C2296     1.0  0.73215  0.03352  0.44331  1.0000
  H   H2735     1.0  0.72891  0.05541  0.46507  1.0000
  H   H2736     1.0  0.60440  0.03499  0.40227  1.0000
  H   H2737     1.0  0.59580  0.02044  0.40526  1.0000
  H   H2738     1.0  0.61063  0.01762  0.41321  1.0000
  C   C2297     1.0  0.51708  0.18443  0.13143  1.0000
  H   H2739     1.0  0.60934  0.03800  0.37580  1.0000
  H   H2740     1.0  0.59902  0.02445  0.37987  1.0000
  H   H2741     1.0  0.52915  0.06695  0.03434  1.0000
  H   H2742     1.0  0.56586  0.09762  0.99936  1.0000
  C   C2298     1.0  0.57983  0.01749  0.17264  1.0000
  C   C2299     1.0  0.53822  0.05517  0.06047  1.0000
  H   H2743     1.0  0.55291  0.08375  0.04145  1.0000
  H   H2744     1.0  0.63673  0.01949  0.47788  1.0000
  H   H2745     1.0  0.58391  0.00892  0.09878  1.0000
  C   C2300     1.0  0.68550  0.06248  0.28532  1.0000
  C   C2301     1.0  0.78890  0.08840  0.39730  1.0000
  C   C2302     1.0  0.56379  0.10380  0.13813  1.0000
  H   H2746     1.0  0.80805  0.12385  0.40271  1.0000
  H   H2747     1.0  0.74049  0.03762  0.43407  1.0000
  C   C2303     1.0  0.93828  0.13920  0.43368  1.0000
  C   C2304     1.0  0.79245  0.10208  0.39293  1.0000
  H   H2748     1.0  0.63801  0.03501  0.46364  1.0000
  H   H2749     1.0  0.79089  0.12169  0.37590  1.0000
  H   H2750     1.0  0.92651  0.10274  0.47107  1.0000
  C   C2305     1.0  0.77833  0.09315  0.37691  1.0000
  H   H2751     1.0  0.91180  0.16781  0.44312  1.0000
  S   S628      1.0  0.58787  0.16790  0.09978  1.0000
  H   H2752     1.0  0.66616  0.06559  0.30938  1.0000
  H   H2753     1.0  0.56796  0.05983  0.28308  1.0000
  H   H2754     1.0  0.53202  0.11868  0.14224  1.0000
  C   C2306     1.0  0.60557  0.08277  0.26307  1.0000
  C   C2307     1.0  0.94966  0.13018  0.43989  1.0000
  C   C2308     1.0  0.65628  0.02063  0.37316  1.0000
  H   H2755     1.0  0.58612  0.03739  0.25555  1.0000
  C   C2309     1.0  0.55350  0.18392  0.08455  1.0000
  C   C2310     1.0  0.56747  0.15498  0.07876  1.0000
  H   H2756     1.0  0.62906  0.02187  0.46308  1.0000
  C   C2311     1.0  0.87190  0.01131  0.44416  1.0000
  H   H2757     1.0  0.72459  0.03034  0.43894  1.0000
  C   C2312     1.0  0.58280  0.16536  0.05741  1.0000
  C   C2313     1.0  0.55198  0.05941  0.03581  1.0000
  H   H2758     1.0  0.65022  0.16207  0.07046  1.0000
  C   C2314     1.0  0.50552  0.12792  0.18452  1.0000
  S   S629      1.0  0.61092  0.00634  0.45306  1.0000
  N   N147      1.0  0.68458  0.05137  0.29882  1.0000
  C   C2315     1.0  0.94313  0.12478  0.47818  1.0000
  N   N148      1.0  0.92473  0.16360  0.42293  1.0000
  H   H2759     1.0  0.56725  0.04566  0.05700  1.0000
  Fe  Fe316     1.0  0.73036  0.00345  0.40054  1.0000
  N   N149      1.0  0.61371  0.09493  0.14116  1.0000
  C   C2316     1.0  0.60042  0.09888  0.15208  1.0000
  C   C2317     1.0  0.62630  0.08888  0.14811  1.0000
  C   C2318     1.0  0.61638  0.10834  0.13063  1.0000
  C   C2319     1.0  0.61184  0.08407  0.13474  1.0000
  C   C2320     1.0  0.61198  0.08653  0.12000  1.0000
  C   C2321     1.0  0.61003  0.07039  0.14332  1.0000
  C   C2322     1.0  0.61078  0.07578  0.11423  1.0000
  C   C2323     1.0  0.60887  0.05971  0.13745  1.0000
  C   C2324     1.0  0.60928  0.06238  0.12292  1.0000
  H   H2760     1.0  0.59069  0.10317  0.14732  1.0000
  H   H2761     1.0  0.59830  0.08961  0.16103  1.0000
  H   H2762     1.0  0.60133  0.10725  0.15697  1.0000
  H   H2763     1.0  0.62427  0.08017  0.15776  1.0000
  H   H2764     1.0  0.62894  0.09708  0.15192  1.0000
  H   H2765     1.0  0.63623  0.08449  0.14059  1.0000
  H   H2766     1.0  0.60708  0.11386  0.12540  1.0000
  H   H2767     1.0  0.61788  0.11625  0.13575  1.0000
  H   H2768     1.0  0.62642  0.10625  0.12219  1.0000
  H   H2769     1.0  0.61311  0.09662  0.11265  1.0000
  H   H2770     1.0  0.60978  0.06774  0.15463  1.0000
  H   H2771     1.0  0.61106  0.07788  0.10289  1.0000
  H   H2772     1.0  0.60789  0.04924  0.14423  1.0000
  H   H2773     1.0  0.60848  0.05406  0.11836  1.0000
  C   C2325     1.0  0.50894  0.17366  0.11715  1.0000
  H   H2774     1.0  0.52997  0.14443  0.15850  1.0000
  H   H2775     1.0  0.53682  0.05654  0.07150  1.0000
  H   H2776     1.0  0.62485  0.01191  0.22101  1.0000
  C   C2326     1.0  0.59021  0.06741  0.26248  1.0000
  H   H2777     1.0  0.91650  0.18549  0.41250  1.0000
  C   C2327     1.0  0.58320  0.07932  0.25322  1.0000
  H   H2778     1.0  0.84891  0.12114  0.47626  1.0000
  C   C2328     1.0  0.50708  0.15371  0.16447  1.0000
  C   C2329     1.0  0.51961  0.14284  0.16553  1.0000
  H   H2779     1.0  0.60745  0.06121  0.27450  1.0000
  H   H2780     1.0  0.59967  0.04781  0.24699  1.0000
  C   C2330     1.0  0.93418  0.13797  0.47346  1.0000
  C   C2331     1.0  0.92600  0.17878  0.41709  1.0000
  C   C2332     1.0  0.51821  0.10735  0.12919  1.0000
  H   H2781     1.0  0.59096  0.03171  0.27867  1.0000
  H   H2782     1.0  0.51359  0.00602  0.18324  1.0000
  C   C2333     1.0  0.64892  0.03128  0.39362  1.0000
  C   C2334     1.0  0.56792  0.05208  0.01405  1.0000
  C   C2335     1.0  0.61114  0.99235  0.34202  1.0000
  H   H2783     1.0  0.57461  0.07849  0.24895  1.0000
  C   C2336     1.0  0.52457  0.02572  0.19226  1.0000
  H   H2784     1.0  0.57525  0.15293  0.08564  1.0000
  Fe  Fe317     1.0  0.57050  0.16106  0.11862  1.0000
  H   H2785     1.0  0.58146  0.05056  0.14068  1.0000
  C   C2337     1.0  0.69535  0.05160  0.30650  1.0000
  H   H2786     1.0  0.57882  0.01330  0.16427  1.0000
  C   C2338     1.0  0.71702  0.04040  0.31660  1.0000
  H   H2787     1.0  0.67768  0.06244  0.27916  1.0000
  C   C2339     1.0  0.69805  0.04180  0.46354  1.0000
  C   C2340     1.0  0.51302  0.08524  0.14625  1.0000
  C   C2341     1.0  0.56071  0.09075  0.14665  1.0000
  C   C2342     1.0  0.57662  0.00280  0.09832  1.0000
  H   H2788     1.0  0.72008  0.99852  0.34078  1.0000
  Fe  Fe318     1.0  0.87499  0.17698  0.45231  1.0000
  H   H2789     1.0  0.77985  0.11283  0.41629  1.0000
  H   H2790     1.0  0.72229  0.05238  0.32851  1.0000
  H   H2791     1.0  0.86845  0.01291  0.48270  1.0000
  C   C2343     1.0  0.78168  0.10664  0.37226  1.0000
  H   H2792     1.0  0.67825  0.00106  0.44689  1.0000
  S   S630      1.0  0.55135  0.15492  0.11569  1.0000
  H   H2793     1.0  0.59190  0.16298  0.06291  1.0000
  H   H2794     1.0  0.54355  0.05505  0.16109  1.0000
  H   H2795     1.0  0.60734  0.00027  0.39508  1.0000
  H   H2796     1.0  0.62746  0.03182  0.40584  1.0000
  H   H2797     1.0  0.60795  0.18883  0.08097  1.0000
  S   S631      1.0  0.57092  0.17711  0.13017  1.0000
  N   N150      1.0  0.56846  0.16825  0.06743  1.0000
  C   C2344     1.0  0.61816  0.00301  0.39259  1.0000
  C   C2345     1.0  0.79089  0.10579  0.41628  1.0000
  N   N151      1.0  0.85400  0.09801  0.48244  1.0000
  H   H2798     1.0  0.51894  0.03666  0.18753  1.0000
  H   H2799     1.0  0.59351  0.99436  0.11831  1.0000
  C   C2346     1.0  0.59861  0.09415  0.25378  1.0000
  C   C2347     1.0  0.95935  0.15058  0.43759  1.0000
  N   N152      1.0  0.56227  0.06428  0.15064  1.0000
  N   N153      1.0  0.52051  0.12212  0.12575  1.0000
  H   H2800     1.0  0.51868  0.12639  0.07858  1.0000
  H   H2801     1.0  0.81123  0.13372  0.47168  1.0000
  H   H2802     1.0  0.79601  0.10918  0.42304  1.0000
  Fe  Fe319     1.0  0.86647  0.16434  0.48409  1.0000
  H   H2803     1.0  0.72574  0.03117  0.31886  1.0000
  S   S632      1.0  0.83334  0.14947  0.46509  1.0000
  C   C2348     1.0  0.51566  0.09896  0.14340  1.0000
  H   H2804     1.0  0.64035  0.01290  0.36872  1.0000
  C   C2349     1.0  0.54009  0.06233  0.02926  1.0000
  C   C2350     1.0  0.92220  0.13843  0.46829  1.0000
  C   C2351     1.0  0.71511  0.05236  0.32204  1.0000
  H   H2805     1.0  0.70315  0.00473  0.44138  1.0000
  C   C2352     1.0  0.60145  0.06959  0.26744  1.0000
  H   H2806     1.0  0.53665  0.13404  0.11209  1.0000
  H   H2807     1.0  0.53182  0.12348  0.10352  1.0000
  C   C2353     1.0  0.57108  0.01455  0.18636  1.0000
  H   H2808     1.0  0.94807  0.17099  0.42828  1.0000
  C   C2354     1.0  0.53120  0.17601  0.12813  1.0000
  H   H2809     1.0  0.51934  0.03165  0.16113  1.0000
  C   C2355     1.0  0.85881  0.00997  0.44245  1.0000
  H   H2810     1.0  0.96858  0.12887  0.44730  1.0000
  H   H2811     1.0  0.59841  0.05152  0.47085  1.0000
  N   N154      1.0  0.54957  0.06233  0.05011  1.0000
  H   H2812     1.0  0.54312  0.11495  0.11623  1.0000
  H   H2813     1.0  0.50819  0.16329  0.15620  1.0000
  H   H2814     1.0  0.87375  0.02186  0.44294  1.0000
  S   S633      1.0  0.52503  0.09109  0.18103  1.0000
  C   C2356     1.0  0.61291  0.18216  0.15040  1.0000
  S   S634      1.0  0.55440  0.99790  0.13251  1.0000
  C   C2357     1.0  0.62848  0.17414  0.07645  1.0000
  H   H2815     1.0  0.60721  0.03915  0.45946  1.0000
  C   C2358     1.0  0.58740  0.09244  0.24892  1.0000
  C   C2359     1.0  0.65953  0.02731  0.38198  1.0000
  H   H2816     1.0  0.57144  0.06324  0.04949  1.0000
  H   H2817     1.0  0.61436  0.08409  0.26677  1.0000
  H   H2818     1.0  0.57873  0.04840  0.00795  1.0000
  S   S635      1.0  0.69724  0.00318  0.32637  1.0000
  C   C2360     1.0  0.61499  0.00747  0.20693  1.0000
  H   H2819     1.0  0.50754  0.12467  0.00338  1.0000
  C   C2361     1.0  0.54208  0.05992  0.01568  1.0000
  S   S636      1.0  0.64060  0.00414  0.31051  1.0000
  H   H2820     1.0  0.53279  0.06246  0.01088  1.0000
  H   H2821     1.0  0.79214  0.12928  0.39550  1.0000
  H   H2822     1.0  0.56052  0.05943  0.06699  1.0000
  C   C2362     1.0  0.51099  0.15965  0.08513  1.0000
  H   H2823     1.0  0.54258  0.00927  0.09270  1.0000
  S   S637      1.0  0.85327  0.17731  0.46790  1.0000
  C   C2363     1.0  0.92320  0.15822  0.41115  1.0000
  C   C2364     1.0  0.51884  0.12999  0.17560  1.0000
  H   H2824     1.0  0.58208  0.10123  0.24155  1.0000
  H   H2825     1.0  0.61925  0.17999  0.13979  1.0000
  C   C2365     1.0  0.56605  0.05430  0.02772  1.0000
  H   H2826     1.0  0.91453  0.16563  0.40574  1.0000
  H   H2827     1.0  0.59711  0.02761  0.15915  1.0000
  H   H2828     1.0  0.70779  0.99622  0.46364  1.0000
  C   C2366     1.0  0.68482  0.99792  0.39600  1.0000
  H   H2829     1.0  0.62339  0.99679  0.40165  1.0000
  C   C2367     1.0  0.50308  0.01162  0.18824  1.0000
  H   H2830     1.0  0.51282  0.12675  0.14683  1.0000
  H   H2831     1.0  0.61532  0.99924  0.33214  1.0000
  H   H2832     1.0  0.70889  0.99532  0.42737  1.0000
  H   H2833     1.0  0.52855  0.12155  0.17648  1.0000
  H   H2834     1.0  0.51101  0.06877  0.13733  1.0000
  H   H2835     1.0  0.65995  0.18308  0.05632  1.0000
  H   H2836     1.0  0.52673  0.99753  0.20020  1.0000
  H   H2837     1.0  0.55721  0.18111  0.05089  1.0000
  H   H2838     1.0  0.93357  0.15699  0.40294  1.0000
  C   C2368     1.0  0.71732  0.02754  0.47559  1.0000
  H   H2839     1.0  0.62021  0.00230  0.24659  1.0000
  N   N155      1.0  0.61673  0.03562  0.47749  1.0000
  H   H2840     1.0  0.66059  0.99315  0.36054  1.0000
  C   C2369     1.0  0.50986  0.13005  0.99221  1.0000
  H   H2841     1.0  0.51093  0.07907  0.15717  1.0000
  H   H2842     1.0  0.50498  0.11777  0.19219  1.0000
  H   H2843     1.0  0.50554  0.13016  0.11169  1.0000
  H   H2844     1.0  0.71740  0.00057  0.28437  1.0000
  C   C2370     1.0  0.61926  0.18769  0.07535  1.0000
  C   C2371     1.0  0.50757  0.13232  0.12116  1.0000
  H   H2845     1.0  0.50319  0.02068  0.22568  1.0000
  C   C2372     1.0  0.50915  0.03645  0.15794  1.0000
  H   H2846     1.0  0.90110  0.19089  0.45344  1.0000
  C   C2373     1.0  0.61603  0.05838  0.48480  1.0000
  H   H2847     1.0  0.58635  0.18782  0.06207  1.0000
  C   C2374     1.0  0.61107  0.99718  0.20275  1.0000
  H   H2848     1.0  0.68412  0.99282  0.43163  1.0000
  H   H2849     1.0  0.58933  0.18901  0.16978  1.0000
  C   C2375     1.0  0.84791  0.11233  0.48600  1.0000
  S   S638      1.0  0.57663  0.99129  0.15384  1.0000
  S   S639      1.0  0.59908  0.99149  0.42743  1.0000
  Fe  Fe320     1.0  0.81296  0.10825  0.54181  1.0000
  S   S640      1.0  0.83507  0.10572  0.54525  1.0000
  S   S641      1.0  0.81286  0.11303  0.51852  1.0000
  Fe  Fe321     1.0  0.79962  0.10304  0.57353  1.0000
  S   S642      1.0  0.82082  0.10053  0.57950  1.0000
  S   S643      1.0  0.78024  0.09902  0.59159  1.0000
  Fe  Fe322     1.0  0.82414  0.11941  0.56124  1.0000
  S   S644      1.0  0.83557  0.13747  0.55721  1.0000
  Fe  Fe323     1.0  0.82996  0.08726  0.56302  1.0000
  S   S645      1.0  0.84755  0.06744  0.56627  1.0000
  S   S646      1.0  0.80202  0.12329  0.55661  1.0000
  S   S647      1.0  0.80871  0.08847  0.55820  1.0000
  Fe  Fe324     1.0  0.88692  0.16480  0.58358  1.0000
  S   S648      1.0  0.86612  0.15672  0.59415  1.0000
  Fe  Fe325     1.0  0.91971  0.15582  0.57547  1.0000
  S   S649      1.0  0.94042  0.13886  0.57533  1.0000
  S   S650      1.0  0.90459  0.16351  0.59464  1.0000
  S   S651      1.0  0.90217  0.15521  0.56573  1.0000
  Fe  Fe326     1.0  0.95171  0.08577  0.53146  1.0000
  S   S652      1.0  0.96856  0.09887  0.52095  1.0000
  S   S653      1.0  0.93640  0.08738  0.55269  1.0000
  H   H2850     1.0  0.52225  0.10992  0.92817  1.0000
  C   C2376     1.0  0.74512  0.99709  0.64939  1.0000
  C   C2377     1.0  0.50338  0.01005  0.84834  1.0000
  C   C2378     1.0  0.89174  0.17931  0.52426  1.0000
  H   H2851     1.0  0.99378  0.04057  0.56773  1.0000
  H   H2852     1.0  0.62903  0.03565  0.65801  1.0000
  S   S654      1.0  0.96622  0.06496  0.52704  1.0000
  S   S655      1.0  0.94244  0.09111  0.51213  1.0000
  H   H2853     1.0  0.94112  0.12541  0.52942  1.0000
  C   C2379     1.0  0.59988  0.15894  0.94734  1.0000
  H   H2854     1.0  0.97023  0.04281  0.59573  1.0000
  H   H2855     1.0  0.63320  0.04753  0.66604  1.0000
  H   H2856     1.0  0.88511  0.17919  0.49262  1.0000
  Fe  Fe327     1.0  0.86625  0.01013  0.53139  1.0000
  S   S656      1.0  0.84381  0.01555  0.54471  1.0000
  S   S657      1.0  0.87824  0.02781  0.52135  1.0000
  Fe  Fe328     1.0  0.53944  0.11230  0.81430  1.0000
  S   S658      1.0  0.53941  0.11295  0.83647  1.0000
  S   S659      1.0  0.51731  0.11746  0.80953  1.0000
  Fe  Fe329     1.0  0.57233  0.10618  0.80534  1.0000
  S   S660      1.0  0.57497  0.10654  0.82684  1.0000
  S   S661      1.0  0.59223  0.10000  0.78854  1.0000
  Fe  Fe330     1.0  0.55775  0.09371  0.83529  1.0000
  S   S662      1.0  0.55920  0.07510  0.85413  1.0000
  Fe  Fe331     1.0  0.55641  0.12583  0.82597  1.0000
  S   S663      1.0  0.55200  0.14638  0.83334  1.0000
  S   S664      1.0  0.55644  0.09191  0.81394  1.0000
  S   S665      1.0  0.55517  0.12665  0.80365  1.0000
  H   H2857     1.0  0.63956  0.11220  0.71052  1.0000
  S   S666      1.0  0.58699  0.15008  0.87619  1.0000
  C   C2380     1.0  0.95519  0.01284  0.49669  1.0000
  S   S667      1.0  0.56829  0.14456  0.94617  1.0000
  C   C2381     1.0  0.79486  0.03668  0.60789  1.0000
  S   S668      1.0  0.58738  0.16518  0.90847  1.0000
  H   H2858     1.0  0.97595  0.07027  0.55415  1.0000
  S   S669      1.0  0.52042  0.08321  0.94980  1.0000
  H   H2859     1.0  0.60366  0.17731  0.95997  1.0000
  H   H2860     1.0  0.78838  0.99530  0.59218  1.0000
  Fe  Fe332     1.0  0.53838  0.08473  0.95855  1.0000
  S   S670      1.0  0.56027  0.08527  0.94372  1.0000
  Fe  Fe333     1.0  0.51381  0.06916  0.97128  1.0000
  C   C2382     1.0  0.96453  0.17102  0.62192  1.0000
  S   S671      1.0  0.52560  0.10415  0.96714  1.0000
  C   C2383     1.0  0.52748  0.16161  0.94461  1.0000
  C   C2384     1.0  0.51344  0.03107  0.93981  1.0000
  H   H2861     1.0  0.82063  0.14783  0.53364  1.0000
  C   C2385     1.0  0.83446  0.03396  0.50735  1.0000
  C   C2386     1.0  0.78479  0.04076  0.53772  1.0000
  H   H2862     1.0  0.84432  0.17068  0.55548  1.0000
  H   H2863     1.0  0.93170  0.02981  0.54304  1.0000
  C   C2387     1.0  0.64924  0.99936  0.50982  1.0000
  H   H2864     1.0  0.53662  0.07356  0.76274  1.0000
  C   C2388     1.0  0.99970  0.08295  0.54021  1.0000
  S   S672      1.0  0.54748  0.02537  0.65718  1.0000
  S   S673      1.0  0.63678  0.01342  0.55533  1.0000
  H   H2865     1.0  0.77292  0.05024  0.61024  1.0000
  H   H2866     1.0  0.75135  0.00611  0.56021  1.0000
  S   S674      1.0  0.65509  0.02762  0.57696  1.0000
  Fe  Fe334     1.0  0.63340  0.05856  0.71192  1.0000
  S   S675      1.0  0.62450  0.04935  0.73505  1.0000
  S   S676      1.0  0.65413  0.06638  0.70460  1.0000
  Fe  Fe335     1.0  0.61050  0.05187  0.70154  1.0000
  S   S677      1.0  0.59966  0.04236  0.72371  1.0000
  S   S678      1.0  0.60267  0.05288  0.68212  1.0000
  Fe  Fe336     1.0  0.60279  0.06090  0.72989  1.0000
  S   S679      1.0  0.58276  0.07168  0.74381  1.0000
  Fe  Fe337     1.0  0.62218  0.03176  0.72665  1.0000
  S   S680      1.0  0.61184  0.07156  0.70733  1.0000
  S   S681      1.0  0.63299  0.03994  0.70396  1.0000
  Fe  Fe338     1.0  0.70888  0.02662  0.61789  1.0000
  S   S682      1.0  0.73243  0.02650  0.61436  1.0000
  S   S683      1.0  0.70241  0.00842  0.61399  1.0000
  Fe  Fe339     1.0  0.69906  0.05202  0.63175  1.0000
  S   S684      1.0  0.72181  0.05383  0.63010  1.0000
  S   S685      1.0  0.67773  0.06669  0.63887  1.0000
  Fe  Fe340     1.0  0.72619  0.05038  0.60790  1.0000
  S   S686      1.0  0.73975  0.06143  0.58771  1.0000
  Fe  Fe341     1.0  0.72629  0.02968  0.63660  1.0000
  S   S687      1.0  0.70308  0.05028  0.60901  1.0000
  S   S688      1.0  0.70310  0.02831  0.64065  1.0000
  C   C2389     1.0  0.66093  0.06638  0.68638  1.0000
  C   C2390     1.0  0.65145  0.07156  0.67706  1.0000
  C   C2391     1.0  0.65682  0.07187  0.66246  1.0000
  C   C2392     1.0  0.67158  0.06641  0.65719  1.0000
  C   C2393     1.0  0.68106  0.06088  0.66653  1.0000
  C   C2394     1.0  0.67577  0.06112  0.68110  1.0000
  H   H2867     1.0  0.63999  0.07563  0.68107  1.0000
  H   H2868     1.0  0.64947  0.07625  0.65526  1.0000
  H   H2869     1.0  0.69247  0.05662  0.66251  1.0000
  H   H2870     1.0  0.68311  0.05700  0.68832  1.0000
  C   C2395     1.0  0.95869  0.17612  0.59841  1.0000
  H   H2871     1.0  0.89060  0.05639  0.55623  1.0000
  H   H2872     1.0  0.83250  0.17072  0.49916  1.0000
  S   S689      1.0  0.55536  0.18212  0.92390  1.0000
  C   C2396     1.0  0.66834  0.02216  0.58713  1.0000
  C   C2397     1.0  0.67065  0.03206  0.59330  1.0000
  C   C2398     1.0  0.68107  0.02788  0.60162  1.0000
  C   C2399     1.0  0.68923  0.01378  0.60377  1.0000
  C   C2400     1.0  0.68678  0.00379  0.59781  1.0000
  C   C2401     1.0  0.67636  0.00799  0.58945  1.0000
  H   H2873     1.0  0.66442  0.04302  0.59153  1.0000
  H   H2874     1.0  0.68277  0.03558  0.60634  1.0000
  H   H2875     1.0  0.83485  0.02313  0.50603  1.0000
  C   C2402     1.0  0.60221  0.01178  0.58634  1.0000
  C   C2403     1.0  0.59371  0.02151  0.59486  1.0000
  H   H2876     1.0  0.60770  0.01571  0.57550  1.0000
  H   H2877     1.0  0.59272  0.03292  0.59059  1.0000
  C   C2404     1.0  0.79477  0.04573  0.52550  1.0000
  C   C2405     1.0  0.51605  0.14355  0.96276  1.0000
  C   C2406     1.0  0.57549  0.02033  0.68845  1.0000
  C   C2407     1.0  0.58241  0.01974  0.69908  1.0000
  C   C2408     1.0  0.59110  0.02944  0.69694  1.0000
  C   C2409     1.0  0.59282  0.03989  0.68428  1.0000
  C   C2410     1.0  0.58628  0.04020  0.67342  1.0000
  C   C2411     1.0  0.57767  0.03037  0.67547  1.0000
  N   N156      1.0  0.80218  0.04834  0.59884  1.0000
  H   H2878     1.0  0.59640  0.02881  0.70516  1.0000
  H   H2879     1.0  0.58760  0.04821  0.66354  1.0000
  H   H2880     1.0  0.57240  0.03083  0.66717  1.0000
  H   H2881     1.0  0.61040  0.15100  0.94774  1.0000
  H   H2882     1.0  0.83206  0.15986  0.52361  1.0000
  H   H2883     1.0  0.67405  0.99567  0.63240  1.0000
  C   C2412     1.0  0.97120  0.06118  0.56135  1.0000
  H   H2884     1.0  0.53351  0.05008  0.95464  1.0000
  H   H2885     1.0  0.52268  0.06583  0.87207  1.0000
  H   H2886     1.0  0.65603  0.02279  0.68052  1.0000
  C   C2413     1.0  0.51393  0.04289  0.95776  1.0000
  C   C2414     1.0  0.56885  0.12694  0.94584  1.0000
  C   C2415     1.0  0.56354  0.11766  0.95845  1.0000
  C   C2416     1.0  0.56166  0.10441  0.95795  1.0000
  C   C2417     1.0  0.56557  0.10021  0.94493  1.0000
  C   C2418     1.0  0.57211  0.10895  0.93255  1.0000
  C   C2419     1.0  0.57342  0.12248  0.93293  1.0000
  H   H2887     1.0  0.56023  0.12094  0.96853  1.0000
  H   H2888     1.0  0.55693  0.09754  0.96761  1.0000
  H   H2889     1.0  0.57525  0.10570  0.92250  1.0000
  H   H2890     1.0  0.57775  0.12953  0.92318  1.0000
  C   C2420     1.0  0.58942  0.09174  0.77652  1.0000
  C   C2421     1.0  0.57543  0.09319  0.77476  1.0000
  C   C2422     1.0  0.57347  0.08684  0.76479  1.0000
  C   C2423     1.0  0.58547  0.07901  0.75661  1.0000
  C   C2424     1.0  0.59941  0.07725  0.75865  1.0000
  C   C2425     1.0  0.60138  0.08366  0.76855  1.0000
  H   H2891     1.0  0.56616  0.09948  0.78082  1.0000
  H   H2892     1.0  0.56266  0.08821  0.76326  1.0000
  H   H2893     1.0  0.60865  0.07108  0.75250  1.0000
  H   H2894     1.0  0.61219  0.08245  0.76999  1.0000
  C   C2426     1.0  0.56224  0.14744  0.84479  1.0000
  C   C2427     1.0  0.55750  0.15887  0.85175  1.0000
  C   C2428     1.0  0.56477  0.15961  0.86167  1.0000
  C   C2429     1.0  0.57728  0.14924  0.86419  1.0000
  C   C2430     1.0  0.58233  0.13805  0.85686  1.0000
  C   C2431     1.0  0.57467  0.13698  0.84741  1.0000
  H   H2895     1.0  0.54811  0.16713  0.84949  1.0000
  C   C2432     1.0  0.63978  0.01887  0.61991  1.0000
  H   H2896     1.0  0.59222  0.13022  0.85848  1.0000
  H   H2897     1.0  0.57858  0.12824  0.84193  1.0000
  H   H2898     1.0  0.61823  0.02437  0.76308  1.0000
  H   H2899     1.0  0.80195  0.06305  0.57843  1.0000
  C   C2433     1.0  0.95731  0.07754  0.58434  1.0000
  H   H2900     1.0  0.81188  0.11194  0.49074  1.0000
  S   S690      1.0  0.56360  0.00896  0.69197  1.0000
  C   C2434     1.0  0.74696  0.99877  0.57017  1.0000
  C   C2435     1.0  0.63572  0.03617  0.66506  1.0000
  C   C2436     1.0  0.55365  0.06011  0.85340  1.0000
  C   C2437     1.0  0.55508  0.04782  0.86438  1.0000
  C   C2438     1.0  0.55022  0.03592  0.86435  1.0000
  C   C2439     1.0  0.54420  0.03614  0.85319  1.0000
  C   C2440     1.0  0.54287  0.04836  0.84210  1.0000
  C   C2441     1.0  0.54742  0.06041  0.84233  1.0000
  H   H2901     1.0  0.55976  0.04752  0.87305  1.0000
  H   H2902     1.0  0.55104  0.02657  0.87308  1.0000
  H   H2903     1.0  0.53780  0.04874  0.83369  1.0000
  H   H2904     1.0  0.54564  0.07005  0.83420  1.0000
  C   C2442     1.0  0.92272  0.02819  0.52642  1.0000
  C   C2443     1.0  0.51655  0.08127  0.79898  1.0000
  C   C2444     1.0  0.79074  0.14449  0.50083  1.0000
  C   C2445     1.0  0.56398  0.16760  0.96714  1.0000
  C   C2446     1.0  0.93990  0.04295  0.52273  1.0000
  C   C2447     1.0  0.93143  0.03334  0.53183  1.0000
  H   H2905     1.0  0.86623  0.08697  0.54475  1.0000
  C   C2448     1.0  0.97188  0.06955  0.58158  1.0000
  H   H2906     1.0  0.94675  0.04676  0.52689  1.0000
  C   C2449     1.0  0.89881  0.05717  0.54590  1.0000
  N   N157      1.0  0.65150  0.03082  0.65946  1.0000
  H   H2907     1.0  0.66818  0.03963  0.64265  1.0000
  C   C2450     1.0  0.52323  0.15563  0.79774  1.0000
  C   C2451     1.0  0.93930  0.12450  0.56915  1.0000
  C   C2452     1.0  0.95174  0.11704  0.56113  1.0000
  C   C2453     1.0  0.95090  0.10562  0.55605  1.0000
  C   C2454     1.0  0.93768  0.10150  0.55916  1.0000
  C   C2455     1.0  0.92533  0.10874  0.56748  1.0000
  C   C2456     1.0  0.92610  0.12034  0.57232  1.0000
  H   H2908     1.0  0.96203  0.12007  0.55885  1.0000
  H   H2909     1.0  0.96061  0.09973  0.55015  1.0000
  H   H2910     1.0  0.91513  0.10543  0.57017  1.0000
  H   H2911     1.0  0.91654  0.12582  0.57884  1.0000
  C   C2457     1.0  0.76915  0.08857  0.59023  1.0000
  C   C2458     1.0  0.76926  0.08616  0.57710  1.0000
  C   C2459     1.0  0.76024  0.07775  0.57646  1.0000
  C   C2460     1.0  0.75118  0.07161  0.58893  1.0000
  C   C2461     1.0  0.75116  0.07395  0.60205  1.0000
  C   C2462     1.0  0.76005  0.08248  0.60267  1.0000
  H   H2912     1.0  0.77610  0.09096  0.56741  1.0000
  H   H2913     1.0  0.76023  0.07609  0.56623  1.0000
  H   H2914     1.0  0.74425  0.06928  0.61173  1.0000
  H   H2915     1.0  0.76000  0.08425  0.61286  1.0000
  C   C2463     1.0  0.84534  0.13928  0.56872  1.0000
  C   C2464     1.0  0.83883  0.13984  0.58299  1.0000
  C   C2465     1.0  0.84559  0.14463  0.59091  1.0000
  C   C2466     1.0  0.85887  0.14890  0.58462  1.0000
  C   C2467     1.0  0.86559  0.14774  0.57054  1.0000
  C   C2468     1.0  0.85888  0.14293  0.56268  1.0000
  H   H2916     1.0  0.82828  0.13727  0.58772  1.0000
  H   H2917     1.0  0.84030  0.14546  0.60180  1.0000
  H   H2918     1.0  0.87571  0.15099  0.56549  1.0000
  H   H2919     1.0  0.86393  0.14260  0.55167  1.0000
  C   C2469     1.0  0.84591  0.05269  0.56114  1.0000
  C   C2470     1.0  0.83299  0.05236  0.55810  1.0000
  C   C2471     1.0  0.83202  0.04053  0.55378  1.0000
  C   C2472     1.0  0.84415  0.02922  0.55216  1.0000
  C   C2473     1.0  0.85702  0.02947  0.55532  1.0000
  C   C2474     1.0  0.85784  0.04113  0.55997  1.0000
  H   H2920     1.0  0.82377  0.06116  0.55898  1.0000
  H   H2921     1.0  0.82212  0.04041  0.55114  1.0000
  H   H2922     1.0  0.86640  0.02068  0.55413  1.0000
  H   H2923     1.0  0.86784  0.04126  0.56241  1.0000
  C   C2475     1.0  0.58646  0.01646  0.60885  1.0000
  H   H2924     1.0  0.80178  0.05635  0.61683  1.0000
  C   C2476     1.0  0.80329  0.10391  0.51302  1.0000
  C   C2477     1.0  0.79411  0.09542  0.52287  1.0000
  S   S691      1.0  0.87013  0.00280  0.51126  1.0000
  H   H2925     1.0  0.61333  0.03392  0.62863  1.0000
  H   H2926     1.0  0.79264  0.09448  0.53419  1.0000
  C   C2478     1.0  0.71020  0.09616  0.62112  1.0000
  C   C2479     1.0  0.70204  0.09055  0.63478  1.0000
  C   C2480     1.0  0.72425  0.09780  0.62056  1.0000
  C   C2481     1.0  0.70780  0.08652  0.64698  1.0000
  C   C2482     1.0  0.72987  0.09382  0.63283  1.0000
  C   C2483     1.0  0.72170  0.08810  0.64600  1.0000
  H   H2927     1.0  0.69121  0.08903  0.63638  1.0000
  H   H2928     1.0  0.73109  0.10206  0.61057  1.0000
  H   H2929     1.0  0.70144  0.08205  0.65724  1.0000
  H   H2930     1.0  0.74067  0.09510  0.63210  1.0000
  H   H2931     1.0  0.72614  0.08488  0.65547  1.0000
  C   C2484     1.0  0.51409  0.07395  0.86775  1.0000
  H   H2932     1.0  0.65731  0.09523  0.73329  1.0000
  C   C2485     1.0  0.99133  0.04997  0.57261  1.0000
  H   H2933     1.0  0.87715  0.12445  0.50861  1.0000
  H   H2934     1.0  0.53833  0.15764  0.94730  1.0000
  H   H2935     1.0  0.90226  0.08073  0.51371  1.0000
  H   H2936     1.0  0.71054  0.09394  0.58760  1.0000
  C   C2486     1.0  0.61561  0.99781  0.66009  1.0000
  Fe  Fe342     1.0  0.63448  0.99148  0.56844  1.0000
  C   C2487     1.0  0.52853  0.12827  0.89318  1.0000
  C   C2488     1.0  0.78665  0.08828  0.51801  1.0000
  H   H2937     1.0  0.62219  0.11384  0.75065  1.0000
  S   S692      1.0  0.53529  0.02901  0.91568  1.0000
  C   C2489     1.0  0.77949  0.03957  0.61286  1.0000
  H   H2938     1.0  0.72025  0.01380  0.57943  1.0000
  C   C2490     1.0  0.52139  0.09153  0.80251  1.0000
  H   H2939     1.0  0.68166  0.10356  0.61771  1.0000
  C   C2491     1.0  0.62805  0.01003  0.60737  1.0000
  C   C2492     1.0  0.52921  0.01658  0.61229  1.0000
  H   H2940     1.0  0.65761  0.04092  0.67259  1.0000
  N   N158      1.0  0.74225  0.00563  0.58256  1.0000
  H   H2941     1.0  0.71630  0.08019  0.60215  1.0000
  C   C2493     1.0  0.82244  0.16740  0.49964  1.0000
  H   H2942     1.0  0.53264  0.08966  0.80295  1.0000
  C   C2494     1.0  0.60039  0.11824  0.74899  1.0000
  H   H2943     1.0  0.78510  0.05809  0.58716  1.0000
  C   C2495     1.0  0.81412  0.04386  0.49616  1.0000
  S   S693      1.0  0.74064  0.01506  0.65101  1.0000
  H   H2944     1.0  0.99519  0.09256  0.55820  1.0000
  C   C2496     1.0  0.51416  0.03477  0.82594  1.0000
  H   H2945     1.0  0.52967  0.16710  0.93314  1.0000
  H   H2946     1.0  0.90098  0.04691  0.54249  1.0000
  C   C2497     1.0  0.52918  0.14302  0.86867  1.0000
  C   C2498     1.0  0.87076  0.16933  0.52813  1.0000
  S   S694      1.0  0.55173  0.00177  0.63843  1.0000
  H   H2947     1.0  0.81282  0.16671  0.52765  1.0000
  Fe  Fe343     1.0  0.53559  0.00925  0.65697  1.0000
  C   C2499     1.0  0.51780  0.12295  0.87682  1.0000
  H   H2948     1.0  0.92234  0.12210  0.50285  1.0000
  H   H2949     1.0  0.58242  0.99765  0.62513  1.0000
  C   C2500     1.0  0.78856  0.08944  0.50332  1.0000
  N   N159      1.0  0.81947  0.04306  0.50884  1.0000
  C   C2501     1.0  0.52685  0.13895  0.97097  1.0000
  H   H2950     1.0  0.52409  0.07149  0.79675  1.0000
  C   C2502     1.0  0.62047  0.10379  0.73441  1.0000
  S   S695      1.0  0.85986  0.16669  0.50697  1.0000
  N   N160      1.0  0.89356  0.06970  0.53501  1.0000
  H   H2951     1.0  0.99378  0.06902  0.58352  1.0000
  N   N161      1.0  0.55489  0.05287  0.72292  1.0000
  C   C2503     1.0  0.56314  0.03942  0.73061  1.0000
  C   C2504     1.0  0.55020  0.04926  0.71174  1.0000
  C   C2505     1.0  0.56480  0.06284  0.71548  1.0000
  C   C2506     1.0  0.54268  0.05941  0.73342  1.0000
  C   C2507     1.0  0.52783  0.06066  0.73366  1.0000
  C   C2508     1.0  0.54549  0.06419  0.74425  1.0000
  H   H2952     1.0  0.91554  0.02895  0.50774  1.0000
  C   C2509     1.0  0.53419  0.06996  0.75458  1.0000
  H   H2953     1.0  0.50850  0.15212  0.89120  1.0000
  H   H2954     1.0  0.55598  0.03180  0.73663  1.0000
  H   H2955     1.0  0.57219  0.03387  0.72313  1.0000
  H   H2956     1.0  0.56809  0.04139  0.73838  1.0000
  H   H2957     1.0  0.54370  0.04086  0.71634  1.0000
  H   H2958     1.0  0.55966  0.04484  0.70376  1.0000
  H   H2959     1.0  0.54380  0.05892  0.70561  1.0000
  H   H2960     1.0  0.57022  0.06492  0.72280  1.0000
  H   H2961     1.0  0.57377  0.05848  0.70705  1.0000
  H   H2962     1.0  0.55881  0.07338  0.71022  1.0000
  H   H2963     1.0  0.52457  0.05721  0.72597  1.0000
  H   H2964     1.0  0.55648  0.06340  0.74491  1.0000
  C   C2510     1.0  0.65439  0.01628  0.65679  1.0000
  C   C2511     1.0  0.62594  0.05692  0.50490  1.0000
  H   H2965     1.0  0.85376  0.11410  0.49314  1.0000
  C   C2512     1.0  0.51699  0.17387  0.81789  1.0000
  H   H2966     1.0  0.94942  0.99232  0.53014  1.0000
  H   H2967     1.0  0.95026  0.17822  0.56656  1.0000
  C   C2513     1.0  0.50686  0.03566  0.95264  1.0000
  H   H2968     1.0  0.51105  0.07538  0.76266  1.0000
  H   H2969     1.0  0.94868  0.07465  0.58179  1.0000
  H   H2970     1.0  0.63044  0.01844  0.59750  1.0000
  H   H2971     1.0  0.53237  0.14290  0.92807  1.0000
  N   N162      1.0  0.95471  0.17117  0.58770  1.0000
  H   H2972     1.0  0.51278  0.01095  0.85130  1.0000
  H   H2973     1.0  0.52258  0.02711  0.83144  1.0000
  C   C2514     1.0  0.76721  0.99963  0.58760  1.0000
  H   H2974     1.0  0.67013  0.01949  0.63614  1.0000
  H   H2975     1.0  0.95922  0.06467  0.56253  1.0000
  H   H2976     1.0  0.62956  0.02371  0.50042  1.0000
  H   H2977     1.0  0.80115  0.00055  0.62322  1.0000
  C   C2515     1.0  0.65950  0.03020  0.67020  1.0000
  H   H2978     1.0  0.51045  0.11685  0.88551  1.0000
  C   C2516     1.0  0.82138  0.15739  0.52463  1.0000
  C   C2517     1.0  0.52941  0.13868  0.93982  1.0000
  H   H2979     1.0  0.51455  0.03101  0.81636  1.0000
  H   H2980     1.0  0.90200  0.18635  0.50220  1.0000
  H   H2981     1.0  0.65273  0.05263  0.64828  1.0000
  N   N163      1.0  0.55104  0.07216  0.90284  1.0000
  C   C2518     1.0  0.54264  0.07428  0.91725  1.0000
  C   C2519     1.0  0.54051  0.07222  0.89470  1.0000
  C   C2520     1.0  0.56106  0.05782  0.90426  1.0000
  C   C2521     1.0  0.55966  0.08330  0.89599  1.0000
  C   C2522     1.0  0.56969  0.08496  0.90287  1.0000
  C   C2523     1.0  0.55880  0.09242  0.88229  1.0000
  C   C2524     1.0  0.57839  0.09498  0.89641  1.0000
  C   C2525     1.0  0.56749  0.10250  0.87598  1.0000
  C   C2526     1.0  0.57725  0.10377  0.88303  1.0000
  H   H2982     1.0  0.53609  0.08545  0.91671  1.0000
  H   H2983     1.0  0.60357  0.02550  0.62209  1.0000
  H   H2984     1.0  0.54970  0.07220  0.92489  1.0000
  H   H2985     1.0  0.53257  0.08269  0.89327  1.0000
  H   H2986     1.0  0.53418  0.06374  0.90026  1.0000
  H   H2987     1.0  0.54618  0.06980  0.88404  1.0000
  H   H2988     1.0  0.56816  0.05618  0.91175  1.0000
  H   H2989     1.0  0.55506  0.04900  0.90836  1.0000
  H   H2990     1.0  0.56825  0.05629  0.89373  1.0000
  H   H2991     1.0  0.57098  0.07840  0.91329  1.0000
  H   H2992     1.0  0.55174  0.09178  0.87610  1.0000
  H   H2993     1.0  0.58610  0.09592  0.90180  1.0000
  H   H2994     1.0  0.56681  0.10924  0.86546  1.0000
  H   H2995     1.0  0.58400  0.11156  0.87814  1.0000
  C   C2527     1.0  0.80277  0.01912  0.54338  1.0000
  C   C2528     1.0  0.78879  0.02747  0.54665  1.0000
  Fe  Fe344     1.0  0.52360  0.01774  0.87647  1.0000
  N   N164      1.0  0.59175  0.16135  0.96171  1.0000
  N   N165      1.0  0.92055  0.13621  0.52341  1.0000
  Fe  Fe345     1.0  0.96079  0.10226  0.50106  1.0000
  C   C2529     1.0  0.93275  0.12351  0.52508  1.0000
  C   C2530     1.0  0.92591  0.14762  0.51159  1.0000
  C   C2531     1.0  0.90854  0.13252  0.51997  1.0000
  C   C2532     1.0  0.91142  0.12526  0.50882  1.0000
  C   C2533     1.0  0.89372  0.13664  0.52691  1.0000
  C   C2534     1.0  0.90023  0.12226  0.50489  1.0000
  C   C2535     1.0  0.88259  0.13367  0.52283  1.0000
  C   C2536     1.0  0.88584  0.12650  0.51186  1.0000
  H   H2996     1.0  0.81417  0.01891  0.60842  1.0000
  H   H2997     1.0  0.52305  0.14551  0.82786  1.0000
  H   H2998     1.0  0.91142  0.13356  0.54602  1.0000
  H   H2999     1.0  0.92878  0.11404  0.53240  1.0000
  H   H3000     1.0  0.83905  0.03272  0.51671  1.0000
  H   H3001     1.0  0.81310  0.17664  0.50121  1.0000
  C   C2537     1.0  0.78032  0.14311  0.51359  1.0000
  H   H3002     1.0  0.91589  0.07013  0.52351  1.0000
  C   C2538     1.0  0.91613  0.14148  0.53681  1.0000
  H   H3003     1.0  0.69315  0.99289  0.59940  1.0000
  H   H3004     1.0  0.89041  0.14238  0.53536  1.0000
  C   C2539     1.0  0.53838  0.02616  0.60680  1.0000
  H   H3005     1.0  0.87132  0.13725  0.52798  1.0000
  S   S696      1.0  0.57731  0.99913  0.65483  1.0000
  C   C2540     1.0  0.77907  0.00352  0.58937  1.0000
  C   C2541     1.0  0.92230  0.03281  0.51197  1.0000
  H   H3006     1.0  0.53598  0.14756  0.77913  1.0000
  C   C2542     1.0  0.84616  0.07615  0.52096  1.0000
  C   C2543     1.0  0.78254  0.14592  0.52558  1.0000
  H   H3007     1.0  0.52704  0.18071  0.85970  1.0000
  C   C2544     1.0  0.88049  0.17309  0.53360  1.0000
  C   C2545     1.0  0.79706  0.05395  0.58531  1.0000
  N   N166      1.0  0.51977  0.14996  0.94727  1.0000
  C   C2546     1.0  0.62644  0.03526  0.49829  1.0000
  H   H3008     1.0  0.61649  0.00472  0.69367  1.0000
  C   C2547     1.0  0.61917  0.06507  0.49377  1.0000
  H   H3009     1.0  0.52302  0.14820  0.86009  1.0000
  H   H3010     1.0  0.97482  0.05223  0.55566  1.0000
  C   C2548     1.0  0.81831  0.04378  0.59507  1.0000
  C   C2549     1.0  0.98242  0.07436  0.58514  1.0000
  C   C2550     1.0  0.66662  0.99844  0.64206  1.0000
  H   H3011     1.0  0.68451  0.02036  0.49487  1.0000
  H   H3012     1.0  0.50476  0.14315  0.83263  1.0000
  H   H3013     1.0  0.79994  0.04550  0.57909  1.0000
  H   H3014     1.0  0.63499  0.03561  0.51571  1.0000
  C   C2551     1.0  0.95507  0.00776  0.51118  1.0000
  Fe  Fe346     1.0  0.50816  0.99911  0.90247  1.0000
  H   H3015     1.0  0.98702  0.09037  0.59278  1.0000
  C   C2552     1.0  0.55820  0.00714  0.59914  1.0000
  C   C2553     1.0  0.77227  0.02878  0.62134  1.0000
  H   H3016     1.0  0.61327  0.00064  0.67034  1.0000
  S   S697      1.0  0.53687  0.02178  0.85403  1.0000
  H   H3017     1.0  0.51482  0.14440  0.77261  1.0000
  N   N167      1.0  0.62606  0.01506  0.62054  1.0000
  H   H3018     1.0  0.96138  0.10408  0.59700  1.0000
  H   H3019     1.0  0.88396  0.05743  0.52695  1.0000
  H   H3020     1.0  0.73306  0.00061  0.63330  1.0000
  H   H3021     1.0  0.51059  0.11964  0.90793  1.0000
  C   C2554     1.0  0.51171  0.10429  0.80516  1.0000
  C   C2555     1.0  0.50679  0.14421  0.88628  1.0000
  H   H3022     1.0  0.82334  0.05774  0.51877  1.0000
  H   H3023     1.0  0.59435  0.17033  0.97776  1.0000
  Fe  Fe347     1.0  0.52157  0.02129  0.90615  1.0000
  S   S698      1.0  0.65920  0.00718  0.51633  1.0000
  C   C2556     1.0  0.62086  0.00630  0.71298  1.0000
  Fe  Fe348     1.0  0.65457  0.00152  0.54034  1.0000
  H   H3024     1.0  0.59486  0.04111  0.75984  1.0000
  H   H3025     1.0  0.50786  0.02577  0.93572  1.0000
  H   H3026     1.0  0.52806  0.11521  0.87344  1.0000
  C   C2557     1.0  0.54216  0.11644  0.91665  1.0000
  H   H3027     1.0  0.68691  0.99681  0.67843  1.0000
  H   H3028     1.0  0.58102  0.01179  0.70901  1.0000
  H   H3029     1.0  0.52099  0.16983  0.95084  1.0000
  C   C2558     1.0  0.94959  0.99560  0.51885  1.0000
  N   N168      1.0  0.97557  0.05687  0.57525  1.0000
  H   H3030     1.0  0.77448  0.14466  0.53554  1.0000
  S   S699      1.0  0.56444  0.18713  0.88894  1.0000
  C   C2559     1.0  0.52787  0.04482  0.95052  1.0000
  H   H3031     1.0  0.84311  0.14429  0.50761  1.0000
  H   H3032     1.0  0.94124  0.15752  0.60345  1.0000
  H   H3033     1.0  0.56961  0.00415  0.59436  1.0000
  H   H3034     1.0  0.78102  0.02357  0.55603  1.0000
  H   H3035     1.0  0.60111  0.13982  0.97210  1.0000
  H   H3036     1.0  0.93740  0.16285  0.58618  1.0000
  H   H3037     1.0  0.63905  0.02342  0.62906  1.0000
  C   C2560     1.0  0.80498  0.10522  0.49837  1.0000
  S   S700      1.0  0.50502  0.05024  0.97272  1.0000
  H   H3038     1.0  0.53944  0.13617  0.86384  1.0000
  C   C2561     1.0  0.60334  0.99703  0.59177  1.0000
  H   H3039     1.0  0.61807  0.00716  0.60702  1.0000
  H   H3040     1.0  0.51564  0.18289  0.80846  1.0000
  H   H3041     1.0  0.84254  0.09837  0.51170  1.0000
  H   H3042     1.0  0.72539  0.02330  0.58909  1.0000
  H   H3043     1.0  0.95561  0.04990  0.58653  1.0000
  H   H3044     1.0  0.53670  0.18291  0.87922  1.0000
  H   H3045     1.0  0.79638  0.15173  0.53467  1.0000
  H   H3046     1.0  0.84136  0.07788  0.53170  1.0000
  Fe  Fe349     1.0  0.88367  0.01935  0.50155  1.0000
  H   H3047     1.0  0.53793  0.13999  0.96615  1.0000
  C   C2562     1.0  0.51324  0.14874  0.78184  1.0000
  C   C2563     1.0  0.78007  0.01478  0.62506  1.0000
  C   C2564     1.0  0.52146  0.12083  0.90643  1.0000
  C   C2565     1.0  0.94074  0.16656  0.59397  1.0000
  H   H3048     1.0  0.52399  0.12968  0.94175  1.0000
  H   H3049     1.0  0.61580  0.03604  0.60981  1.0000
  H   H3050     1.0  0.56093  0.16840  0.86708  1.0000
  C   C2566     1.0  0.64795  0.00544  0.66709  1.0000
  H   H3051     1.0  0.62020  0.01798  0.64824  1.0000
  S   S701      1.0  0.51194  0.01409  0.65656  1.0000
  H   H3052     1.0  0.64308  0.09690  0.74877  1.0000
  C   C2567     1.0  0.83546  0.17827  0.56106  1.0000
  C   C2568     1.0  0.65406  0.99735  0.49583  1.0000
  C   C2569     1.0  0.85307  0.08593  0.49510  1.0000
  H   H3053     1.0  0.86188  0.16483  0.53529  1.0000
  C   C2570     1.0  0.57718  0.18571  0.95235  1.0000
  H   H3054     1.0  0.52881  0.08579  0.85202  1.0000
  C   C2571     1.0  0.55281  0.02147  0.60017  1.0000
  H   H3055     1.0  0.97692  0.16160  0.57917  1.0000
  S   S702      1.0  0.67233  0.00059  0.55077  1.0000
  H   H3056     1.0  0.78683  0.06537  0.60832  1.0000
  C   C2572     1.0  0.96426  0.09438  0.59301  1.0000
  C   C2573     1.0  0.81279  0.02397  0.53112  1.0000
  S   S703      1.0  0.51576  0.03663  0.88649  1.0000
  H   H3057     1.0  0.58465  0.14147  0.96710  1.0000
  S   S704      1.0  0.92197  0.17771  0.56257  1.0000
  H   H3058     1.0  0.71053  0.01339  0.49578  1.0000
  H   H3059     1.0  0.61922  0.01777  0.70993  1.0000
  N   N169      1.0  0.58382  0.04940  0.80615  1.0000
  C   C2574     1.0  0.56933  0.05771  0.80350  1.0000
  C   C2575     1.0  0.58129  0.03806  0.81935  1.0000
  C   C2576     1.0  0.59107  0.05927  0.80879  1.0000
  C   C2577     1.0  0.59320  0.04288  0.79411  1.0000
  C   C2578     1.0  0.60696  0.03365  0.79537  1.0000
  C   C2579     1.0  0.58916  0.04553  0.78086  1.0000
  C   C2580     1.0  0.61583  0.02705  0.78431  1.0000
  C   C2581     1.0  0.59814  0.03891  0.76986  1.0000
  C   C2582     1.0  0.61137  0.02958  0.77162  1.0000
  H   H3060     1.0  0.56337  0.05096  0.80121  1.0000
  H   H3061     1.0  0.56231  0.06190  0.81294  1.0000
  H   H3062     1.0  0.57026  0.06724  0.79450  1.0000
  H   H3063     1.0  0.57630  0.03010  0.81770  1.0000
  H   H3064     1.0  0.57389  0.04262  0.82849  1.0000
  H   H3065     1.0  0.59144  0.03213  0.82305  1.0000
  H   H3066     1.0  0.59352  0.06775  0.79905  1.0000
  H   H3067     1.0  0.58415  0.06479  0.81748  1.0000
  H   H3068     1.0  0.60153  0.05362  0.81201  1.0000
  H   H3069     1.0  0.61099  0.03148  0.80493  1.0000
  H   H3070     1.0  0.57919  0.05278  0.77860  1.0000
  H   H3071     1.0  0.62623  0.01991  0.78555  1.0000
  H   H3072     1.0  0.99535  0.04602  0.58268  1.0000
  H   H3073     1.0  0.87606  0.07633  0.52393  1.0000
  H   H3074     1.0  0.63587  0.09616  0.70881  1.0000
  C   C2583     1.0  0.80353  0.14845  0.50008  1.0000
  H   H3075     1.0  0.52870  0.16841  0.81662  1.0000
  C   C2584     1.0  0.97864  0.08669  0.59061  1.0000
  H   H3076     1.0  0.63132  0.07702  0.72957  1.0000
  H   H3077     1.0  0.51746  0.04527  0.82213  1.0000
  H   H3078     1.0  0.65310  0.09558  0.71127  1.0000
  H   H3079     1.0  0.78913  0.14207  0.49157  1.0000
  S   S705      1.0  0.53102  0.00261  0.89557  1.0000
  Fe  Fe350     1.0  0.57581  0.16375  0.89251  1.0000
  C   C2585     1.0  0.58780  0.00168  0.61432  1.0000
  C   C2586     1.0  0.64129  0.10038  0.71460  1.0000
  C   C2587     1.0  0.96095  0.16658  0.61155  1.0000
  Fe  Fe351     1.0  0.65424  0.01039  0.56699  1.0000
  H   H3080     1.0  0.68614  0.10047  0.60009  1.0000
  H   H3081     1.0  0.54065  0.17410  0.97040  1.0000
  C   C2588     1.0  0.68999  0.09740  0.61021  1.0000
  H   H3082     1.0  0.71458  0.11849  0.59831  1.0000
  C   C2589     1.0  0.85746  0.05998  0.50508  1.0000
  C   C2590     1.0  0.65613  0.04157  0.64638  1.0000
  Fe  Fe352     1.0  0.54655  0.17948  0.90668  1.0000
  N   N170      1.0  0.82032  0.15453  0.51122  1.0000
  C   C2591     1.0  0.70374  0.11572  0.60157  1.0000
  Fe  Fe353     1.0  0.56772  0.15943  0.92465  1.0000
  H   H3083     1.0  0.95887  0.01356  0.51656  1.0000
  H   H3084     1.0  0.62841  0.06211  0.51181  1.0000
  Fe  Fe354     1.0  0.90589  0.18568  0.58117  1.0000
  Fe  Fe355     1.0  0.55897  0.00709  0.67197  1.0000
  C   C2592     1.0  0.89008  0.08283  0.54059  1.0000
  C   C2593     1.0  0.87556  0.09034  0.54520  1.0000
  C   C2594     1.0  0.90137  0.08801  0.54236  1.0000
  C   C2595     1.0  0.87265  0.10236  0.55099  1.0000
  C   C2596     1.0  0.89832  0.10006  0.54810  1.0000
  C   C2597     1.0  0.88400  0.10718  0.55247  1.0000
  H   H3085     1.0  0.64269  0.02705  0.61000  1.0000
  C   C2598     1.0  0.57760  0.17148  0.96056  1.0000
  C   C2599     1.0  0.76699  0.02846  0.58409  1.0000
  S   S706      1.0  0.88675  0.18777  0.57174  1.0000
  H   H3086     1.0  0.65129  0.04177  0.63752  1.0000
  Fe  Fe356     1.0  0.90297  0.17784  0.55443  1.0000
  H   H3087     1.0  0.64900  0.00932  0.61982  1.0000
  H   H3088     1.0  0.54718  0.11199  0.92571  1.0000
  H   H3089     1.0  0.85093  0.05315  0.52788  1.0000
  C   C2600     1.0  0.62960  0.04203  0.50713  1.0000
  H   H3090     1.0  0.91266  0.08260  0.53966  1.0000
  H   H3091     1.0  0.86150  0.10788  0.55459  1.0000
  H   H3092     1.0  0.90713  0.10373  0.54940  1.0000
  H   H3093     1.0  0.88167  0.11638  0.55715  1.0000
  H   H3094     1.0  0.72720  0.99219  0.59516  1.0000
  C   C2601     1.0  0.54290  0.12949  0.89213  1.0000
  C   C2602     1.0  0.75509  0.02470  0.58222  1.0000
  H   H3095     1.0  0.72560  0.09455  0.59372  1.0000
  H   H3096     1.0  0.73443  0.99955  0.60535  1.0000
  C   C2603     1.0  0.96609  0.15878  0.58345  1.0000
  N   N171      1.0  0.70464  0.10021  0.60789  1.0000
  H   H3097     1.0  0.63727  0.00059  0.60650  1.0000
  H   H3098     1.0  0.73225  0.02558  0.56995  1.0000
  C   C2604     1.0  0.80916  0.03757  0.52191  1.0000
  C   C2605     1.0  0.95359  0.08969  0.59006  1.0000
  H   H3099     1.0  0.69923  0.11925  0.59179  1.0000
  C   C2606     1.0  0.93098  0.04219  0.50282  1.0000
  C   C2607     1.0  0.71469  0.09192  0.59741  1.0000
  H   H3100     1.0  0.77952  0.08175  0.52563  1.0000
  H   H3101     1.0  0.50762  0.03360  0.85412  1.0000
  H   H3102     1.0  0.59345  0.15484  0.94246  1.0000
  H   H3103     1.0  0.64103  0.00737  0.67719  1.0000
  H   H3104     1.0  0.69008  0.08578  0.61450  1.0000
  S   S707      1.0  0.57583  0.02858  0.61951  1.0000
  H   H3105     1.0  0.69665  0.12228  0.60934  1.0000
  H   H3106     1.0  0.60245  0.16892  0.93983  1.0000
  Fe  Fe357     1.0  0.56468  0.01608  0.64001  1.0000
  H   H3107     1.0  0.67144  0.02651  0.66639  1.0000
  C   C2608     1.0  0.77894  0.01790  0.58767  1.0000
  C   C2609     1.0  0.87245  0.17136  0.51336  1.0000
  C   C2610     1.0  0.93986  0.04718  0.50817  1.0000
  C   C2611     1.0  0.61959  0.00762  0.64738  1.0000
  H   H3108     1.0  0.64896  0.07495  0.73230  1.0000
  C   C2612     1.0  0.79774  0.09791  0.49353  1.0000
  H   H3109     1.0  0.93185  0.17555  0.59721  1.0000
  C   C2613     1.0  0.85147  0.06223  0.51885  1.0000
  H   H3110     1.0  0.87230  0.06470  0.54148  1.0000
  C   C2614     1.0  0.60050  0.16747  0.96739  1.0000
  C   C2615     1.0  0.63742  0.08087  0.73497  1.0000
  C   C2616     1.0  0.90512  0.07062  0.52166  1.0000
  C   C2617     1.0  0.96609  0.18502  0.61949  1.0000
  H   H3111     1.0  0.93026  0.14405  0.50132  1.0000
  C   C2618     1.0  0.61425  0.02820  0.62027  1.0000
  S   S708      1.0  0.55720  0.15617  0.90908  1.0000
  H   H3112     1.0  0.53440  0.03716  0.60798  1.0000
  H   H3113     1.0  0.76685  0.03967  0.58284  1.0000
  H   H3114     1.0  0.82344  0.05293  0.58860  1.0000
  H   H3115     1.0  0.51231  0.12733  0.86767  1.0000
  C   C2619     1.0  0.59032  0.14711  0.97125  1.0000
  N   N172      1.0  0.63597  0.09660  0.73035  1.0000
  C   C2620     1.0  0.61520  0.11214  0.74499  1.0000
  H   H3116     1.0  0.63323  0.07754  0.74670  1.0000
  H   H3117     1.0  0.74618  0.03344  0.57952  1.0000
  C   C2621     1.0  0.54954  0.12365  0.90379  1.0000
  H   H3118     1.0  0.81306  0.03316  0.49577  1.0000
  C   C2622     1.0  0.64570  0.10049  0.73691  1.0000
  H   H3119     1.0  0.93483  0.15093  0.51376  1.0000
  H   H3120     1.0  0.64497  0.11227  0.73399  1.0000
  C   C2623     1.0  0.66417  0.01223  0.64432  1.0000
  H   H3121     1.0  0.79106  0.05597  0.51876  1.0000
  C   C2624     1.0  0.60997  0.10196  0.72822  1.0000
  H   H3122     1.0  0.61304  0.09536  0.72049  1.0000
  H   H3123     1.0  0.59653  0.12409  0.75748  1.0000
  C   C2625     1.0  0.52811  0.11516  0.91801  1.0000
  C   C2626     1.0  0.62444  0.99891  0.72608  1.0000
  C   C2627     1.0  0.55087  0.17738  0.96545  1.0000
  C   C2628     1.0  0.59520  0.10812  0.73228  1.0000
  H   H3124     1.0  0.80332  0.05136  0.49593  1.0000
  Fe  Fe358     1.0  0.95854  0.07152  0.50657  1.0000
  H   H3125     1.0  0.61088  0.15980  0.96913  1.0000
  H   H3126     1.0  0.82334  0.01685  0.52913  1.0000
  H   H3127     1.0  0.53187  0.15186  0.87144  1.0000
  S   S709      1.0  0.97637  0.08304  0.49407  1.0000
  C   C2629     1.0  0.59612  0.99199  0.60576  1.0000
  H   H3128     1.0  0.80421  0.06905  0.59994  1.0000
  C   C2630     1.0  0.59041  0.11622  0.74267  1.0000
  H   H3129     1.0  0.83187  0.17221  0.57217  1.0000
  C   C2631     1.0  0.82051  0.05764  0.50880  1.0000
  H   H3130     1.0  0.78811  0.02086  0.58914  1.0000
  H   H3131     1.0  0.77062  0.13964  0.51423  1.0000
  H   H3132     1.0  0.90698  0.06150  0.51654  1.0000
  C   C2632     1.0  0.61929  0.99888  0.70377  1.0000
  C   C2633     1.0  0.62236  0.00426  0.63385  1.0000
  H   H3133     1.0  0.90816  0.15195  0.53581  1.0000
  H   H3134     1.0  0.58734  0.10613  0.72776  1.0000
  H   H3135     1.0  0.57890  0.12056  0.74617  1.0000
  H   H3136     1.0  0.96706  0.14930  0.59249  1.0000
  H   H3137     1.0  0.54925  0.13497  0.88249  1.0000
  H   H3138     1.0  0.98957  0.08870  0.53723  1.0000
  C   C2634     1.0  0.79529  0.14994  0.52493  1.0000
  C   C2635     1.0  0.84693  0.08789  0.50930  1.0000
  C   C2636     1.0  0.89337  0.18146  0.50947  1.0000
  C   C2637     1.0  0.53465  0.03975  0.93803  1.0000
  H   H3139     1.0  0.87909  0.17153  0.54500  1.0000
  S   S710      1.0  0.62664  0.00847  0.73729  1.0000
  C   C2638     1.0  0.52549  0.18219  0.88119  1.0000
  H   H3140     1.0  0.99793  0.05751  0.56500  1.0000
  C   C2639     1.0  0.79859  0.06022  0.60633  1.0000
  C   C2640     1.0  0.73713  0.99516  0.59565  1.0000
  S   S711      1.0  0.88524  0.99443  0.53892  1.0000
  H   H3141     1.0  0.63159  0.03020  0.67602  1.0000
  C   C2641     1.0  0.51754  0.08519  0.85643  1.0000
  H   H3142     1.0  0.82295  0.03949  0.60477  1.0000
  H   H3143     1.0  0.83098  0.13230  0.51618  1.0000
  H   H3144     1.0  0.90910  0.05778  0.54804  1.0000
  C   C2642     1.0  0.50931  0.00139  0.64900  1.0000
  H   H3145     1.0  0.77438  0.00648  0.63176  1.0000
  S   S712      1.0  0.95111  0.05832  0.49639  1.0000
  H   H3146     1.0  0.80595  0.00878  0.55032  1.0000
  H   H3147     1.0  0.91703  0.15733  0.50989  1.0000
  H   H3148     1.0  0.53500  0.06696  0.92224  1.0000
  H   H3149     1.0  0.77387  0.04725  0.54017  1.0000
  H   H3150     1.0  0.83610  0.11381  0.49112  1.0000
  C   C2643     1.0  0.88088  0.06703  0.53168  1.0000
  H   H3151     1.0  0.92549  0.14345  0.53959  1.0000
  H   H3152     1.0  0.82365  0.16552  0.48889  1.0000
  C   C2644     1.0  0.80631  0.15111  0.51215  1.0000
  H   H3153     1.0  0.56315  0.15694  0.97333  1.0000
  Fe  Fe359     1.0  0.89772  0.01143  0.52697  1.0000
  H   H3154     1.0  0.53291  0.15616  0.80045  1.0000
  H   H3155     1.0  0.53973  0.13406  0.94357  1.0000
  C   C2645     1.0  0.83243  0.14228  0.50793  1.0000
  H   H3156     1.0  0.56045  0.12481  0.90285  1.0000
  S   S713      1.0  0.90375  0.18471  0.53075  1.0000
  N   N173      1.0  0.52081  0.13454  0.88136  1.0000
  C   C2646     1.0  0.79514  0.01149  0.62025  1.0000
  C   C2647     1.0  0.88384  0.17736  0.50403  1.0000
  H   H3157     1.0  0.97037  0.03608  0.58076  1.0000
  C   C2648     1.0  0.80250  0.02222  0.61176  1.0000
  S   S714      1.0  0.91241  0.01601  0.53785  1.0000
  H   H3158     1.0  0.82201  0.03556  0.58847  1.0000
  H   H3159     1.0  0.82882  0.06173  0.49952  1.0000
  H   H3160     1.0  0.81021  0.06569  0.50787  1.0000
  H   H3161     1.0  0.76053  0.03126  0.62516  1.0000
  H   H3162     1.0  0.94244  0.09580  0.59178  1.0000
  C   C2649     1.0  0.51661  0.06641  0.74409  1.0000
  Fe  Fe360     1.0  0.98261  0.07843  0.51512  1.0000
  H   H3163     1.0  0.93871  0.12058  0.51475  1.0000
  H   H3164     1.0  0.52694  0.99530  0.61610  1.0000
  C   C2650     1.0  0.63608  0.99594  0.51812  1.0000
  C   C2651     1.0  0.51145  0.15105  0.83096  1.0000
  C   C2652     1.0  0.53447  0.00225  0.61125  1.0000
  H   H3165     1.0  0.59710  0.03075  0.49220  1.0000
  C   C2653     1.0  0.96760  0.04594  0.58499  1.0000
  C   C2654     1.0  0.72957  0.01767  0.58012  1.0000
  H   H3166     1.0  0.90275  0.11691  0.49616  1.0000
  S   S715      1.0  0.53309  0.06890  0.97925  1.0000
  C   C2655     1.0  0.51978  0.07102  0.75453  1.0000
  C   C2656     1.0  0.54916  0.99704  0.60463  1.0000
  H   H3167     1.0  0.54557  0.04097  0.93268  1.0000
  C   C2657     1.0  0.52514  0.15056  0.78551  1.0000
  H   H3168     1.0  0.56003  0.02888  0.59627  1.0000
  C   C2658     1.0  0.52727  0.03333  0.93238  1.0000
  H   H3169     1.0  0.51807  0.02013  0.61780  1.0000
  S   S716      1.0  0.90453  0.00448  0.50614  1.0000
  H   H3170     1.0  0.96357  0.15506  0.57508  1.0000
  H   H3171     1.0  0.84203  0.03867  0.49770  1.0000
  H   H3172     1.0  0.83317  0.14015  0.49740  1.0000
  H   H3173     1.0  0.67467  0.00032  0.58467  1.0000
  S   S717      1.0  0.78013  0.07958  0.49735  1.0000
  H   H3174     1.0  0.66423  0.99994  0.48938  1.0000
  H   H3175     1.0  0.95912  0.02250  0.49088  1.0000
  H   H3176     1.0  0.73779  0.99558  0.56831  1.0000
  C   C2659     1.0  0.95295  0.18238  0.57448  1.0000
  C   C2660     1.0  0.85837  0.07158  0.49339  1.0000
  C   C2661     1.0  0.75473  0.01009  0.58418  1.0000
  C   C2662     1.0  0.50922  0.15931  0.80654  1.0000
  H   H3177     1.0  0.86148  0.04917  0.50334  1.0000
  C   C2663     1.0  0.52003  0.18095  0.87015  1.0000
  C   C2664     1.0  0.50691  0.15621  0.94071  1.0000
  H   H3178     1.0  0.93092  0.04549  0.49156  1.0000
  H   H3179     1.0  0.91292  0.18683  0.61506  1.0000
  H   H3180     1.0  0.60634  0.18593  0.91579  1.0000
  H   H3181     1.0  0.95974  0.15565  0.61399  1.0000
  C   C2665     1.0  0.74004  0.99287  0.63978  1.0000
  C   C2666     1.0  0.69243  0.02526  0.48626  1.0000
  H   H3182     1.0  0.96590  0.16366  0.63200  1.0000
  H   H3183     1.0  0.50535  0.06723  0.74416  1.0000
  H   H3184     1.0  0.51001  0.16165  0.92926  1.0000
  H   H3185     1.0  0.61298  0.01674  0.49408  1.0000
  N   N174      1.0  0.50743  0.16393  0.81988  1.0000
  C   C2667     1.0  0.94980  0.00581  0.48981  1.0000
  H   H3186     1.0  0.82598  0.18091  0.55611  1.0000
  H   H3187     1.0  0.50996  0.15391  0.84133  1.0000
  C   C2668     1.0  0.50659  0.09556  0.85059  1.0000
  H   H3188     1.0  0.51015  0.10374  0.84157  1.0000
  H   H3189     1.0  0.51459  0.17854  0.82742  1.0000
  C   C2669     1.0  0.65045  0.99170  0.66471  1.0000
  H   H3190     1.0  0.66381  0.99758  0.69622  1.0000
  C   C2670     1.0  0.70709  0.02134  0.48674  1.0000
  C   C2671     1.0  0.94440  0.99356  0.49734  1.0000
  Fe  Fe361     1.0  0.50713  0.10134  0.96014  1.0000
  H   H3191     1.0  0.63227  0.99748  0.52895  1.0000
  H   H3192     1.0  0.61638  0.07667  0.49206  1.0000
  C   C2672     1.0  0.51628  0.18306  0.89457  1.0000
  H   H3193     1.0  0.69844  0.99596  0.65443  1.0000
  S   S718      1.0  0.52227  0.18605  0.90822  1.0000
  H   H3194     1.0  0.84490  0.18079  0.58169  1.0000
  H   H3195     1.0  0.96311  0.18629  0.56909  1.0000
  H   H3196     1.0  0.86046  0.17932  0.56720  1.0000
  H   H3197     1.0  0.62417  0.18645  0.92896  1.0000
  C   C2673     1.0  0.85005  0.18665  0.57104  1.0000
  H   H3198     1.0  0.50214  0.05165  0.84516  1.0000
  C   C2674     1.0  0.52374  0.13237  0.98549  1.0000
  H   H3199     1.0  0.92342  0.18934  0.63382  1.0000
  Fe  Fe362     1.0  0.57433  0.18792  0.90655  1.0000
  H   H3200     1.0  0.70252  0.99208  0.48952  1.0000
  C   C2675     1.0  0.64572  0.99205  0.49010  1.0000
  C   C2676     1.0  0.61958  0.04318  0.48685  1.0000
  H   H3201     1.0  0.81143  0.14897  0.49007  1.0000
  H   H3202     1.0  0.58429  0.14810  0.98229  1.0000
  C   C2677     1.0  0.50550  0.18018  0.87253  1.0000
  H   H3203     1.0  0.58705  0.18944  0.94700  1.0000
  S   S719      1.0  0.54558  0.99167  0.67329  1.0000
  H   H3204     1.0  0.96845  0.18859  0.62769  1.0000
  C   C2678     1.0  0.96032  0.19037  0.59630  1.0000
  S   S720      1.0  0.95668  0.12408  0.48665  1.0000
  N   N175      1.0  0.84052  0.19113  0.56065  1.0000
  C   C2679     1.0  0.55091  0.19123  0.95719  1.0000
  C   C2680     1.0  0.60757  0.02527  0.48618  1.0000
  S   S721      1.0  0.82122  0.38326  0.15901  1.0000
  C   C2681     1.0  0.97902  0.33210  0.32638  1.0000
  H   H3205     1.0  0.97087  0.36990  0.32123  1.0000
  C   C2682     1.0  0.78432  0.35357  0.00044  1.0000
  C   C2683     1.0  0.86323  0.37115  0.09124  1.0000
  H   H3206     1.0  0.92168  0.30593  0.38599  1.0000
  Fe  Fe363     1.0  0.81597  0.38949  0.13700  1.0000
  C   C2684     1.0  0.68220  0.38215  0.08294  1.0000
  H   H3207     1.0  0.00007  0.20847  0.40378  1.0000
  H   H3208     1.0  0.99912  0.21410  0.43839  1.0000
  H   H3209     1.0  0.83142  0.36671  0.07419  1.0000
  H   H3210     1.0  0.70954  0.25044  0.02079  1.0000
  S   S722      1.0  0.84531  0.36991  0.09365  1.0000
  H   H3211     1.0  0.97124  0.19371  0.44496  1.0000
  C   C2685     1.0  0.96464  0.30232  0.31990  1.0000
  H   H3212     1.0  0.69564  0.36027  0.00359  1.0000
  Fe  Fe364     1.0  0.74763  0.34593  0.07366  1.0000
  S   S723      1.0  0.72707  0.34174  0.08946  1.0000
  S   S724      1.0  0.76871  0.34616  0.07901  1.0000
  Fe  Fe365     1.0  0.73361  0.35169  0.04836  1.0000
  S   S725      1.0  0.71188  0.34882  0.06212  1.0000
  S   S726      1.0  0.73494  0.35822  0.02463  1.0000
  Fe  Fe366     1.0  0.71604  0.36114  0.07550  1.0000
  C   C2686     1.0  0.67636  0.37670  0.00082  1.0000
  Fe  Fe367     1.0  0.72452  0.32949  0.07481  1.0000
  S   S727      1.0  0.71382  0.31029  0.08460  1.0000
  S   S728      1.0  0.73660  0.36607  0.06050  1.0000
  S   S729      1.0  0.74638  0.33161  0.06016  1.0000
  Fe  Fe368     1.0  0.64908  0.25156  0.07283  1.0000
  S   S730      1.0  0.64851  0.27410  0.07410  1.0000
  Fe  Fe369     1.0  0.65553  0.25855  0.04061  1.0000
  S   S731      1.0  0.65543  0.28135  0.03891  1.0000
  S   S732      1.0  0.66184  0.24912  0.02126  1.0000
  Fe  Fe370     1.0  0.66837  0.27325  0.05594  1.0000
  S   S733      1.0  0.68776  0.28392  0.04884  1.0000
  Fe  Fe371     1.0  0.63587  0.28073  0.05685  1.0000
  S   S734      1.0  0.61711  0.29962  0.05439  1.0000
  S   S735      1.0  0.63478  0.25849  0.05716  1.0000
  H   H3213     1.0  0.99951  0.36291  0.38748  1.0000
  H   H3214     1.0  0.78257  0.35154  0.99105  1.0000
  C   C2687     1.0  0.63459  0.22515  0.05115  1.0000
  H   H3215     1.0  0.87931  0.32023  0.36688  1.0000
  C   C2688     1.0  0.68704  0.36465  0.99778  1.0000
  S   S736      1.0  0.67006  0.25018  0.05614  1.0000
  H   H3216     1.0  0.92854  0.37853  0.19802  1.0000
  H   H3217     1.0  0.87074  0.36988  0.12375  1.0000
  H   H3218     1.0  0.51477  0.19185  0.13827  1.0000
  H   H3219     1.0  0.98322  0.23893  0.47434  1.0000
  H   H3220     1.0  0.89442  0.30599  0.36253  1.0000
  H   H3221     1.0  0.72195  0.27123  0.00990  1.0000
  C   C2689     1.0  0.92512  0.35438  0.22977  1.0000
  Fe  Fe372     1.0  0.92857  0.37189  0.29400  1.0000
  H   H3222     1.0  0.64357  0.20879  0.03164  1.0000
  H   H3223     1.0  0.60628  0.35380  0.03057  1.0000
  Fe  Fe373     1.0  0.95387  0.34903  0.30416  1.0000
  S   S737      1.0  0.94053  0.34233  0.32605  1.0000
  S   S738      1.0  0.97771  0.33911  0.29804  1.0000
  Fe  Fe374     1.0  0.92332  0.34398  0.31483  1.0000
  S   S739      1.0  0.90976  0.32748  0.32105  1.0000
  Fe  Fe375     1.0  0.93175  0.36591  0.32459  1.0000
  H   H3224     1.0  0.61431  0.33693  0.01498  1.0000
  S   S740      1.0  0.93735  0.34878  0.29270  1.0000
  S   S741      1.0  0.94650  0.37252  0.30351  1.0000
  Fe  Fe376     1.0  0.93714  0.24397  0.41181  1.0000
  S   S742      1.0  0.91943  0.26312  0.40602  1.0000
  S   S743      1.0  0.93398  0.22378  0.42890  1.0000
  Fe  Fe377     1.0  0.96128  0.25844  0.39186  1.0000
  S   S744      1.0  0.94564  0.27845  0.38441  1.0000
  S   S745      1.0  0.98474  0.25958  0.38318  1.0000
  Fe  Fe378     1.0  0.93412  0.27610  0.40733  1.0000
  S   S746      1.0  0.92789  0.29715  0.41382  1.0000
  Fe  Fe379     1.0  0.93258  0.26393  0.38352  1.0000
  S   S747      1.0  0.92234  0.26788  0.36494  1.0000
  S   S748      1.0  0.95080  0.25707  0.41504  1.0000
  S   S749      1.0  0.94928  0.24373  0.38906  1.0000
  C   C2690     1.0  0.66521  0.38231  0.99335  1.0000
  N   N176      1.0  0.97630  0.21353  0.44459  1.0000
  S   S750      1.0  0.98043  0.31205  0.47586  1.0000
  Fe  Fe380     1.0  0.98522  0.33304  0.43638  1.0000
  S   S751      1.0  0.96336  0.33519  0.45152  1.0000
  C   C2691     1.0  0.62398  0.20744  0.13656  1.0000
  Fe  Fe381     1.0  0.97574  0.33579  0.46707  1.0000
  Fe  Fe382     1.0  0.96996  0.31129  0.45896  1.0000
  S   S752      1.0  0.95661  0.29492  0.46361  1.0000
  C   C2692     1.0  0.99850  0.37383  0.30927  1.0000
  C   C2693     1.0  0.66591  0.38393  0.06800  1.0000
  C   C2694     1.0  0.64116  0.35745  0.01752  1.0000
  H   H3225     1.0  0.89068  0.28993  0.39420  1.0000
  C   C2695     1.0  0.83715  0.36738  0.06281  1.0000
  C   C2696     1.0  0.97595  0.23727  0.46886  1.0000
  H   H3226     1.0  0.84126  0.37575  0.03414  1.0000
  C   C2697     1.0  0.90432  0.31994  0.37540  1.0000
  H   H3227     1.0  0.59859  0.24436  0.12556  1.0000
  H   H3228     1.0  0.70649  0.38660  0.02067  1.0000
  H   H3229     1.0  0.58534  0.20802  0.16296  1.0000
  C   C2698     1.0  0.97395  0.22046  0.42996  1.0000
  H   H3230     1.0  0.69124  0.34899  0.09345  1.0000
  H   H3231     1.0  0.96108  0.37651  0.46071  1.0000
  N   N177      1.0  0.98834  0.26924  0.42749  1.0000
  S   S753      1.0  0.59068  0.20569  0.10217  1.0000
  N   N178      1.0  0.70052  0.27087  0.00850  1.0000
  S   S754      1.0  0.99125  0.34238  0.41293  1.0000
  N   N179      1.0  0.87823  0.38016  0.13584  1.0000
  H   H3232     1.0  0.96610  0.27080  0.42711  1.0000
  H   H3233     1.0  0.81447  0.36085  0.03090  1.0000
  H   H3234     1.0  0.90771  0.36766  0.12533  1.0000
  S   S755      1.0  0.88103  0.19596  0.43479  1.0000
  H   H3235     1.0  0.61125  0.25418  0.01901  1.0000
  C   C2699     1.0  0.94045  0.37243  0.22091  1.0000
  S   S756      1.0  0.64637  0.23150  0.09024  1.0000
  H   H3236     1.0  0.96859  0.33937  0.32825  1.0000
  H   H3237     1.0  0.98348  0.22974  0.39242  1.0000
  H   H3238     1.0  0.93991  0.30971  0.29951  1.0000
  C   C2700     1.0  0.87463  0.35972  0.08777  1.0000
  H   H3239     1.0  0.87232  0.35028  0.08638  1.0000
  H   H3240     1.0  0.89779  0.35119  0.08444  1.0000
  C   C2701     1.0  0.98549  0.32433  0.33792  1.0000
  N   N180      1.0  0.60210  0.19607  0.14879  1.0000
  C   C2702     1.0  0.97231  0.36783  0.41667  1.0000
  C   C2703     1.0  0.98420  0.36078  0.40777  1.0000
  C   C2704     1.0  0.99545  0.34301  0.35945  1.0000
  C   C2705     1.0  0.62694  0.35941  0.02560  1.0000
  H   H3241     1.0  0.88854  0.37307  0.11627  1.0000
  H   H3242     1.0  0.96737  0.36191  0.42689  1.0000
  C   C2706     1.0  0.65194  0.24513  0.00013  1.0000
  H   H3243     1.0  0.92182  0.20176  0.45070  1.0000
  C   C2707     1.0  0.93609  0.29647  0.42751  1.0000
  C   C2708     1.0  0.93670  0.28459  0.43899  1.0000
  C   C2709     1.0  0.94275  0.28438  0.45017  1.0000
  C   C2710     1.0  0.94865  0.29579  0.44967  1.0000
  C   C2711     1.0  0.94845  0.30749  0.43797  1.0000
  C   C2712     1.0  0.94193  0.30794  0.42701  1.0000
  H   H3244     1.0  0.93207  0.27578  0.43948  1.0000
  H   H3245     1.0  0.94280  0.27542  0.45928  1.0000
  H   H3246     1.0  0.95302  0.31631  0.43753  1.0000
  H   H3247     1.0  0.94144  0.31714  0.41814  1.0000
  Fe  Fe383     1.0  0.00071  0.31188  0.45856  1.0000
  C   C2713     1.0  0.77512  0.34997  0.01370  1.0000
  C   C2714     1.0  0.88612  0.30995  0.37152  1.0000
  C   C2715     1.0  0.88901  0.36023  0.08667  1.0000
  H   H3248     1.0  0.98972  0.38903  0.37976  1.0000
  N   N181      1.0  0.64554  0.21137  0.05160  1.0000
  H   H3249     1.0  0.80739  0.36689  0.00973  1.0000
  H   H3250     1.0  0.63838  0.31856  0.08355  1.0000
  H   H3251     1.0  0.80301  0.36241  0.98896  1.0000
  H   H3252     1.0  0.95154  0.38037  0.19897  1.0000
  H   H3253     1.0  0.65708  0.34706  0.00234  1.0000
  C   C2716     1.0  0.90297  0.38934  0.15349  1.0000
  C   C2717     1.0  0.61747  0.35186  0.02463  1.0000
  C   C2718     1.0  0.68393  0.34420  0.09037  1.0000
  C   C2719     1.0  0.62260  0.25163  0.01373  1.0000
  H   H3254     1.0  0.58340  0.26371  0.00652  1.0000
  N   N182      1.0  0.57732  0.27927  0.98798  1.0000
  S   S757      1.0  0.89168  0.39054  0.19392  1.0000
  C   C2720     1.0  0.91386  0.31119  0.33344  1.0000
  C   C2721     1.0  0.90770  0.29999  0.33390  1.0000
  C   C2722     1.0  0.91055  0.28680  0.34351  1.0000
  C   C2723     1.0  0.91927  0.28474  0.35309  1.0000
  C   C2724     1.0  0.92527  0.29600  0.35291  1.0000
  C   C2725     1.0  0.92272  0.30918  0.34295  1.0000
  H   H3255     1.0  0.90080  0.30147  0.32663  1.0000
  H   H3256     1.0  0.90585  0.27818  0.34359  1.0000
  H   H3257     1.0  0.93184  0.29456  0.36039  1.0000
  H   H3258     1.0  0.92742  0.31780  0.34276  1.0000
  S   S758      1.0  0.63947  0.38446  0.03916  1.0000
  C   C2726     1.0  0.98560  0.27804  0.33451  1.0000
  H   H3259     1.0  0.90972  0.36722  0.27693  1.0000
  C   C2727     1.0  0.83687  0.38811  0.17546  1.0000
  H   H3260     1.0  0.64372  0.31128  0.01535  1.0000
  C   C2728     1.0  0.91833  0.31576  0.37859  1.0000
  H   H3261     1.0  0.74808  0.36977  0.09110  1.0000
  H   H3262     1.0  0.66650  0.20314  0.05736  1.0000
  C   C2729     1.0  0.90737  0.37584  0.26792  1.0000
  H   H3263     1.0  0.57436  0.30157  0.98717  1.0000
  C   C2730     1.0  0.68624  0.28117  0.00903  1.0000
  C   C2731     1.0  0.81989  0.38882  0.05408  1.0000
  H   H3264     1.0  0.66384  0.32339  0.99885  1.0000
  S   S759      1.0  0.77572  0.38977  0.11180  1.0000
  H   H3265     1.0  0.67739  0.27609  0.00940  1.0000
  C   C2732     1.0  0.99185  0.36809  0.35865  1.0000
  H   H3266     1.0  0.90808  0.29074  0.38253  1.0000
  C   C2733     1.0  0.88091  0.37002  0.12653  1.0000
  C   C2734     1.0  0.61166  0.30091  0.03872  1.0000
  C   C2735     1.0  0.60120  0.31275  0.03378  1.0000
  C   C2736     1.0  0.59734  0.31400  0.02092  1.0000
  C   C2737     1.0  0.60381  0.30331  0.01309  1.0000
  C   C2738     1.0  0.61404  0.29139  0.01817  1.0000
  C   C2739     1.0  0.61807  0.29027  0.03085  1.0000
  H   H3267     1.0  0.59619  0.32101  0.03983  1.0000
  H   H3268     1.0  0.58929  0.32316  0.01715  1.0000
  H   H3269     1.0  0.61915  0.28317  0.01209  1.0000
  H   H3270     1.0  0.62623  0.28119  0.03443  1.0000
  C   C2740     1.0  0.64802  0.24937  0.01314  1.0000
  C   C2741     1.0  0.69922  0.25875  0.02112  1.0000
  C   C2742     1.0  0.94453  0.35305  0.20900  1.0000
  H   H3271     1.0  0.99503  0.26023  0.47331  1.0000
  H   H3272     1.0  0.93219  0.34739  0.23715  1.0000
  C   C2743     1.0  0.90574  0.37372  0.13335  1.0000
  C   C2744     1.0  0.77049  0.35842  0.08809  1.0000
  C   C2745     1.0  0.75868  0.36897  0.09283  1.0000
  H   H3273     1.0  0.77512  0.37980  0.03860  1.0000
  H   H3274     1.0  0.99598  0.37778  0.35508  1.0000
  C   C2746     1.0  0.78599  0.36704  0.09773  1.0000
  C   C2747     1.0  0.78417  0.35760  0.09049  1.0000
  C   C2748     1.0  0.77847  0.36925  0.04576  1.0000
  C   C2749     1.0  0.92513  0.33725  0.36263  1.0000
  H   H3275     1.0  0.79653  0.36613  0.09967  1.0000
  H   H3276     1.0  0.79339  0.34946  0.08696  1.0000
  H   H3277     1.0  0.90304  0.29652  0.39923  1.0000
  N   N183      1.0  0.89312  0.31131  0.38229  1.0000
  H   H3278     1.0  0.80207  0.37820  0.02858  1.0000
  H   H3279     1.0  0.99183  0.22059  0.46062  1.0000
  S   S760      1.0  0.90979  0.37227  0.08880  1.0000
  C   C2750     1.0  0.86621  0.38332  0.09305  1.0000
  S   S761      1.0  0.92973  0.37431  0.34381  1.0000
  C   C2751     1.0  0.96661  0.38253  0.41216  1.0000
  H   H3280     1.0  0.97358  0.27134  0.44776  1.0000
  C   C2752     1.0  0.98076  0.22667  0.46089  1.0000
  C   C2753     1.0  0.70756  0.30209  0.07459  1.0000
  C   C2754     1.0  0.71217  0.30424  0.05973  1.0000
  C   C2755     1.0  0.70648  0.29802  0.05210  1.0000
  C   C2756     1.0  0.69570  0.29009  0.05916  1.0000
  C   C2757     1.0  0.69134  0.28766  0.07404  1.0000
  C   C2758     1.0  0.69748  0.29338  0.08172  1.0000
  H   H3281     1.0  0.72019  0.31061  0.05411  1.0000
  H   H3282     1.0  0.71029  0.29959  0.04062  1.0000
  H   H3283     1.0  0.68331  0.28129  0.07964  1.0000
  H   H3284     1.0  0.69418  0.29125  0.09326  1.0000
  C   C2759     1.0  0.72659  0.32424  0.00722  1.0000
  C   C2760     1.0  0.73102  0.32041  0.02018  1.0000
  C   C2761     1.0  0.73319  0.33087  0.02578  1.0000
  C   C2762     1.0  0.73116  0.34519  0.01832  1.0000
  C   C2763     1.0  0.72642  0.34908  0.00552  1.0000
  C   C2764     1.0  0.72402  0.33865  0.00003  1.0000
  H   H3285     1.0  0.73298  0.30929  0.02583  1.0000
  H   H3286     1.0  0.73681  0.32774  0.03567  1.0000
  H   H3287     1.0  0.72445  0.36019  0.99992  1.0000
  H   H3288     1.0  0.66114  0.20047  0.03574  1.0000
  H   H3289     1.0  0.58758  0.37436  0.99632  1.0000
  C   C2765     1.0  0.60643  0.21248  0.09874  1.0000
  C   C2766     1.0  0.63104  0.22426  0.09297  1.0000
  C   C2767     1.0  0.61808  0.23292  0.08942  1.0000
  C   C2768     1.0  0.60585  0.22705  0.09229  1.0000
  H   H3290     1.0  0.61735  0.24424  0.08477  1.0000
  H   H3291     1.0  0.59583  0.23389  0.08962  1.0000
  C   C2769     1.0  0.66451  0.35285  0.10869  1.0000
  C   C2770     1.0  0.62978  0.21938  0.12875  1.0000
  C   C2771     1.0  0.56149  0.27986  0.99211  1.0000
  H   H3292     1.0  0.84877  0.36231  0.06310  1.0000
  C   C2772     1.0  0.94516  0.38277  0.23828  1.0000
  H   H3293     1.0  0.98108  0.24961  0.43743  1.0000
  C   C2773     1.0  0.91059  0.22116  0.42036  1.0000
  C   C2774     1.0  0.91893  0.21644  0.43071  1.0000
  C   C2775     1.0  0.91548  0.20543  0.44260  1.0000
  C   C2776     1.0  0.99036  0.36840  0.39440  1.0000
  C   C2777     1.0  0.98782  0.37968  0.45919  1.0000
  H   H3294     1.0  0.91313  0.22961  0.41114  1.0000
  C   C2778     1.0  0.88059  0.38397  0.09163  1.0000
  C   C2779     1.0  0.99821  0.37589  0.42936  1.0000
  C   C2780     1.0  0.89904  0.29653  0.38986  1.0000
  H   H3295     1.0  0.96230  0.22508  0.42978  1.0000
  H   H3296     1.0  0.99877  0.24895  0.43931  1.0000
  S   S762      1.0  0.58156  0.34704  0.99392  1.0000
  N   N184      1.0  0.67742  0.33712  0.04153  1.0000
  C   C2781     1.0  0.68763  0.32963  0.03042  1.0000
  C   C2782     1.0  0.67738  0.35263  0.03612  1.0000
  C   C2783     1.0  0.68310  0.33193  0.05470  1.0000
  C   C2784     1.0  0.66252  0.33465  0.04497  1.0000
  C   C2785     1.0  0.65055  0.34371  0.05229  1.0000
  C   C2786     1.0  0.65958  0.32270  0.04208  1.0000
  C   C2787     1.0  0.63645  0.34143  0.05572  1.0000
  C   C2788     1.0  0.64544  0.32051  0.04561  1.0000
  C   C2789     1.0  0.63389  0.32988  0.05232  1.0000
  H   H3297     1.0  0.68346  0.33267  0.02047  1.0000
  H   H3298     1.0  0.69854  0.33227  0.02739  1.0000
  H   H3299     1.0  0.68977  0.31779  0.03418  1.0000
  H   H3300     1.0  0.68856  0.35464  0.03162  1.0000
  H   H3301     1.0  0.67255  0.35896  0.04451  1.0000
  H   H3302     1.0  0.67122  0.35739  0.02752  1.0000
  H   H3303     1.0  0.68282  0.32044  0.05939  1.0000
  H   H3304     1.0  0.69456  0.33293  0.05258  1.0000
  H   H3305     1.0  0.67652  0.33800  0.06301  1.0000
  H   H3306     1.0  0.65195  0.35259  0.05552  1.0000
  H   H3307     1.0  0.66803  0.31476  0.03725  1.0000
  H   H3308     1.0  0.62743  0.34869  0.06101  1.0000
  H   H3309     1.0  0.64336  0.31142  0.04326  1.0000
  H   H3310     1.0  0.62295  0.32810  0.05494  1.0000
  C   C2790     1.0  0.53752  0.33328  0.98782  1.0000
  C   C2791     1.0  0.98613  0.33048  0.31250  1.0000
  H   H3311     1.0  0.80534  0.36880  0.04589  1.0000
  H   H3312     1.0  0.69095  0.33486  0.08597  1.0000
  S   S763      1.0  0.59989  0.30478  0.99664  1.0000
  S   S764      1.0  0.72443  0.31075  0.00033  1.0000
  H   H3313     1.0  0.99413  0.28505  0.39896  1.0000
  H   H3314     1.0  0.56024  0.21175  0.09306  1.0000
  C   C2792     1.0  0.65698  0.32743  0.99080  1.0000
  H   H3315     1.0  0.93680  0.38914  0.36061  1.0000
  C   C2793     1.0  0.79826  0.36214  0.01143  1.0000
  C   C2794     1.0  0.58446  0.27469  0.00030  1.0000
  C   C2795     1.0  0.89895  0.21485  0.42185  1.0000
  H   H3316     1.0  0.78017  0.37124  0.05553  1.0000
  H   H3317     1.0  0.64832  0.36374  0.01793  1.0000
  H   H3318     1.0  0.88673  0.31978  0.40117  1.0000
  H   H3319     1.0  0.96848  0.19737  0.46227  1.0000
  C   C2796     1.0  0.77412  0.37747  0.10266  1.0000
  H   H3320     1.0  0.62977  0.22737  0.06200  1.0000
  C   C2797     1.0  0.67037  0.38784  0.09289  1.0000
  C   C2798     1.0  0.56173  0.20330  0.08759  1.0000
  N   N185      1.0  0.98548  0.38441  0.31450  1.0000
  H   H3321     1.0  0.58014  0.28236  0.00751  1.0000
  H   H3322     1.0  0.97296  0.28694  0.35942  1.0000
  H   H3323     1.0  0.65621  0.21943  0.02986  1.0000
  C   C2799     1.0  0.91144  0.34180  0.35943  1.0000
  H   H3324     1.0  0.91582  0.36127  0.23580  1.0000
  H   H3325     1.0  0.66421  0.38249  0.05833  1.0000
  C   C2800     1.0  0.53855  0.27893  0.01003  1.0000
  C   C2801     1.0  0.63848  0.31537  0.00603  1.0000
  H   H3326     1.0  0.96543  0.38420  0.33040  1.0000
  H   H3327     1.0  0.62802  0.39099  0.00246  1.0000
  C   C2802     1.0  0.96761  0.20239  0.45100  1.0000
  H   H3328     1.0  0.79709  0.34697  0.05815  1.0000
  H   H3329     1.0  0.95605  0.29647  0.35422  1.0000
  C   C2803     1.0  0.00003  0.32154  0.31014  1.0000
  C   C2804     1.0  0.95653  0.38939  0.21336  1.0000
  C   C2805     1.0  0.59646  0.37782  0.99773  1.0000
  C   C2806     1.0  0.98479  0.38314  0.38999  1.0000
  H   H3330     1.0  0.62576  0.22542  0.04610  1.0000
  N   N186      1.0  0.79170  0.36032  0.03836  1.0000
  C   C2807     1.0  0.97153  0.22434  0.45348  1.0000
  C   C2808     1.0  0.70481  0.26548  0.99521  1.0000
  H   H3331     1.0  0.66153  0.22221  0.05203  1.0000
  H   H3332     1.0  0.65547  0.35046  0.11799  1.0000
  C   C2809     1.0  0.96183  0.28927  0.32930  1.0000
  H   H3333     1.0  0.68536  0.33333  0.11835  1.0000
  C   C2810     1.0  0.92857  0.32427  0.37221  1.0000
  H   H3334     1.0  0.92879  0.36930  0.13206  1.0000
  H   H3335     1.0  0.58182  0.20373  0.14151  1.0000
  C   C2811     1.0  0.64123  0.24420  0.99388  1.0000
  H   H3336     1.0  0.99620  0.24845  0.42241  1.0000
  H   H3337     1.0  0.94993  0.35866  0.19837  1.0000
  C   C2812     1.0  0.95715  0.23292  0.45498  1.0000
  C   C2813     1.0  0.89660  0.38537  0.24699  1.0000
  H   H3338     1.0  0.98035  0.28701  0.43781  1.0000
  C   C2814     1.0  0.61943  0.20376  0.10219  1.0000
  C   C2815     1.0  0.89200  0.37233  0.08865  1.0000
  H   H3339     1.0  0.51909  0.28439  0.00196  1.0000
  H   H3340     1.0  0.94814  0.27378  0.33356  1.0000
  C   C2816     1.0  0.94967  0.38060  0.21010  1.0000
  H   H3341     1.0  0.91736  0.36565  0.20517  1.0000
  C   C2817     1.0  0.98822  0.38807  0.43376  1.0000
  C   C2818     1.0  0.64604  0.34779  0.00852  1.0000
  C   C2819     1.0  0.92309  0.37216  0.20815  1.0000
  C   C2820     1.0  0.93481  0.39080  0.33933  1.0000
  H   H3342     1.0  0.62306  0.36714  0.03231  1.0000
  C   C2821     1.0  0.63330  0.25292  0.01978  1.0000
  C   C2822     1.0  0.98333  0.27510  0.44054  1.0000
  C   C2823     1.0  0.59969  0.22225  0.13678  1.0000
  H   H3343     1.0  0.89583  0.36454  0.26095  1.0000
  H   H3344     1.0  0.97989  0.22925  0.42490  1.0000
  C   C2824     1.0  0.77749  0.35232  0.02590  1.0000
  C   C2825     1.0  0.59431  0.19826  0.16329  1.0000
  H   H3345     1.0  0.78589  0.34050  0.05145  1.0000
  H   H3346     1.0  0.92628  0.38282  0.15018  1.0000
  H   H3347     1.0  0.67914  0.31558  0.09259  1.0000
  H   H3348     1.0  0.71203  0.28801  0.00090  1.0000
  H   H3349     1.0  0.77012  0.34918  0.03595  1.0000
  H   H3350     1.0  0.81218  0.38408  0.07734  1.0000
  C   C2826     1.0  0.95248  0.24348  0.46298  1.0000
  H   H3351     1.0  0.59638  0.27434  0.99674  1.0000
  C   C2827     1.0  0.94353  0.29085  0.31620  1.0000
  C   C2828     1.0  0.55138  0.19505  0.09134  1.0000
  H   H3352     1.0  0.95332  0.27143  0.35531  1.0000
  C   C2829     1.0  0.97505  0.37666  0.32559  1.0000
  H   H3353     1.0  0.89063  0.33749  0.36300  1.0000
  C   C2830     1.0  0.62065  0.23262  0.12481  1.0000
  H   H3354     1.0  0.96713  0.26063  0.34408  1.0000
  H   H3355     1.0  0.64250  0.30722  0.99934  1.0000
  C   C2831     1.0  0.79583  0.35967  0.99930  1.0000
  H   H3356     1.0  0.95825  0.25396  0.47599  1.0000
  C   C2832     1.0  0.99195  0.20627  0.44317  1.0000
  H   H3357     1.0  0.58798  0.22397  0.13965  1.0000
  H   H3358     1.0  0.62528  0.24167  0.11827  1.0000
  H   H3359     1.0  0.94143  0.24988  0.46395  1.0000
  H   H3360     1.0  0.85250  0.38628  0.06119  1.0000
  C   C2833     1.0  0.90374  0.19922  0.44415  1.0000
  H   H3361     1.0  0.97764  0.21264  0.42295  1.0000
  C   C2834     1.0  0.96511  0.26903  0.35016  1.0000
  H   H3362     1.0  0.87321  0.31245  0.39848  1.0000
  C   C2835     1.0  0.68001  0.38028  0.07044  1.0000
  H   H3363     1.0  0.91461  0.37984  0.21396  1.0000
  H   H3364     1.0  0.85730  0.37482  0.14625  1.0000
  H   H3365     1.0  0.99539  0.19860  0.43599  1.0000
  C   C2836     1.0  0.91218  0.38847  0.26525  1.0000
  C   C2837     1.0  0.99932  0.31531  0.33554  1.0000
  C   C2838     1.0  0.55366  0.27744  0.00658  1.0000
  C   C2839     1.0  0.97289  0.39020  0.39887  1.0000
  C   C2840     1.0  0.53085  0.28279  0.99928  1.0000
  H   H3366     1.0  0.97981  0.32539  0.34865  1.0000
  H   H3367     1.0  0.76910  0.36398  0.04961  1.0000
  C   C2841     1.0  0.89952  0.37434  0.25885  1.0000
  H   H3368     1.0  0.62673  0.31573  0.01021  1.0000
  H   H3369     1.0  0.69040  0.25348  0.02183  1.0000
  H   H3370     1.0  0.89260  0.21854  0.41375  1.0000
  C   C2842     1.0  0.76050  0.37840  0.10007  1.0000
  C   C2843     1.0  0.93827  0.37390  0.23514  1.0000
  C   C2844     1.0  0.59153  0.19472  0.14148  1.0000
  C   C2845     1.0  0.65189  0.20988  0.03662  1.0000
  H   H3371     1.0  0.86361  0.38321  0.15595  1.0000
  H   H3372     1.0  0.97272  0.30155  0.34433  1.0000
  C   C2846     1.0  0.71100  0.27840  0.00978  1.0000
  H   H3373     1.0  0.71809  0.38108  0.04093  1.0000
  S   S765      1.0  0.91312  0.36715  0.31525  1.0000
  H   H3374     1.0  0.93507  0.28661  0.31494  1.0000
  C   C2847     1.0  0.91668  0.38224  0.14726  1.0000
  C   C2848     1.0  0.65711  0.21246  0.05781  1.0000
  H   H3375     1.0  0.88553  0.35885  0.13175  1.0000
  H   H3376     1.0  0.54764  0.32916  0.99129  1.0000
  H   H3377     1.0  0.85642  0.37662  0.04028  1.0000
  C   C2849     1.0  0.99302  0.23101  0.39487  1.0000
  H   H3378     1.0  0.97364  0.38665  0.29841  1.0000
  N   N187      1.0  0.93340  0.36311  0.21715  1.0000
  H   H3379     1.0  0.97104  0.26411  0.35897  1.0000
  N   N188      1.0  0.96985  0.28217  0.34084  1.0000
  H   H3380     1.0  0.53273  0.27735  0.02112  1.0000
  H   H3381     1.0  0.65285  0.21317  0.06922  1.0000
  H   H3382     1.0  0.98761  0.27095  0.32701  1.0000
  C   C2850     1.0  0.89058  0.38871  0.14968  1.0000
  S   S766      1.0  0.61311  0.24515  0.99353  1.0000
  C   C2851     1.0  0.79505  0.34607  0.04806  1.0000
  H   H3383     1.0  0.67199  0.35689  0.11237  1.0000
  C   C2852     1.0  0.78916  0.35843  0.02517  1.0000
  H   H3384     1.0  0.83294  0.36063  0.05851  1.0000
  H   H3385     1.0  0.70746  0.28239  0.01985  1.0000
  N   N189      1.0  0.95816  0.35488  0.38272  1.0000
  C   C2853     1.0  0.94847  0.35270  0.37495  1.0000
  C   C2854     1.0  0.95945  0.34283  0.39541  1.0000
  C   C2855     1.0  0.95108  0.36820  0.38811  1.0000
  C   C2856     1.0  0.97263  0.35534  0.37301  1.0000
  C   C2857     1.0  0.98167  0.34285  0.36842  1.0000
  C   C2858     1.0  0.97797  0.36812  0.36746  1.0000
  C   C2859     1.0  0.99620  0.24455  0.39136  1.0000
  C   C2860     1.0  0.97613  0.27411  0.42003  1.0000
  C   C2861     1.0  0.88186  0.31858  0.39289  1.0000
  H   H3386     1.0  0.95270  0.34246  0.37130  1.0000
  H   H3387     1.0  0.93733  0.35253  0.38171  1.0000
  H   H3388     1.0  0.94737  0.36149  0.36525  1.0000
  H   H3389     1.0  0.96274  0.33214  0.39273  1.0000
  H   H3390     1.0  0.94897  0.34289  0.40347  1.0000
  H   H3391     1.0  0.96763  0.34350  0.40081  1.0000
  H   H3392     1.0  0.95809  0.37058  0.39373  1.0000
  H   H3393     1.0  0.94858  0.37765  0.37938  1.0000
  H   H3394     1.0  0.61684  0.21003  0.06723  1.0000
  H   H3395     1.0  0.97822  0.33281  0.37175  1.0000
  H   H3396     1.0  0.97183  0.37822  0.37010  1.0000
  H   H3397     1.0  0.97276  0.30717  0.32080  1.0000
  C   C2862     1.0  0.60564  0.23407  0.12884  1.0000
  H   H3398     1.0  0.68665  0.29016  0.99943  1.0000
  H   H3399     1.0  0.98113  0.37924  0.47029  1.0000
  H   H3400     1.0  0.54172  0.19714  0.09968  1.0000
  C   C2863     1.0  0.95117  0.28358  0.32696  1.0000
  H   H3401     1.0  0.64165  0.20287  0.10213  1.0000
  S   S767      1.0  0.67730  0.38480  0.01376  1.0000
  H   H3402     1.0  0.76612  0.34525  0.01459  1.0000
  H   H3403     1.0  0.94934  0.23150  0.45003  1.0000
  H   H3404     1.0  0.93124  0.36839  0.24408  1.0000
  C   C2864     1.0  0.96779  0.29220  0.35010  1.0000
  H   H3405     1.0  0.63012  0.25653  0.02965  1.0000
  C   C2865     1.0  0.63668  0.33977  0.00741  1.0000
  C   C2866     1.0  0.63167  0.20964  0.09932  1.0000
  S   S768      1.0  0.96639  0.35097  0.48189  1.0000
  H   H3406     1.0  0.95909  0.31957  0.30232  1.0000
  C   C2867     1.0  0.94624  0.30387  0.30748  1.0000
  H   H3407     1.0  0.67940  0.35218  0.08155  1.0000
  H   H3408     1.0  0.97878  0.26950  0.41044  1.0000
  H   H3409     1.0  0.97424  0.36657  0.44864  1.0000
  H   H3410     1.0  0.66007  0.36196  0.10055  1.0000
  H   H3411     1.0  0.68672  0.31981  0.10953  1.0000
  H   H3412     1.0  0.87647  0.32952  0.38782  1.0000
  H   H3413     1.0  0.99310  0.38904  0.33056  1.0000
  C   C2868     1.0  0.63292  0.33515  0.98646  1.0000
  C   C2869     1.0  0.91807  0.37458  0.13712  1.0000
  C   C2870     1.0  0.80395  0.36735  0.03576  1.0000
  H   H3414     1.0  0.80477  0.33889  0.04286  1.0000
  C   C2871     1.0  0.95690  0.30949  0.30921  1.0000
  H   H3415     1.0  0.93967  0.34529  0.20680  1.0000
  H   H3416     1.0  0.93919  0.32073  0.37477  1.0000
  C   C2872     1.0  0.62220  0.34222  0.01565  1.0000
  H   H3417     1.0  0.67045  0.32456  0.12268  1.0000
  N   N190      1.0  0.83542  0.38234  0.05420  1.0000
  C   C2873     1.0  0.62656  0.24720  0.00078  1.0000
  H   H3418     1.0  0.87879  0.30229  0.37613  1.0000
  S   S769      1.0  0.81333  0.37424  0.12543  1.0000
  H   H3419     1.0  0.99776  0.34180  0.47796  1.0000
  C   C2874     1.0  0.89153  0.38064  0.13969  1.0000
  H   H3420     1.0  0.94335  0.38367  0.24924  1.0000
  H   H3421     1.0  0.99318  0.36833  0.45880  1.0000
  N   N191      1.0  0.64130  0.32962  0.99783  1.0000
  N   N192      1.0  0.67218  0.34004  0.10261  1.0000
  H   H3422     1.0  0.69659  0.26237  0.03130  1.0000
  C   C2875     1.0  0.67889  0.32895  0.11377  1.0000
  C   C2876     1.0  0.61919  0.38738  0.00116  1.0000
  C   C2877     1.0  0.66260  0.33430  0.09764  1.0000
  C   C2878     1.0  0.66803  0.32136  0.09274  1.0000
  C   C2879     1.0  0.64802  0.34155  0.09685  1.0000
  C   C2880     1.0  0.65937  0.31577  0.08776  1.0000
  C   C2881     1.0  0.63943  0.33585  0.09186  1.0000
  C   C2882     1.0  0.64506  0.32295  0.08741  1.0000
  H   H3423     1.0  0.99644  0.38551  0.45773  1.0000
  H   H3424     1.0  0.68296  0.28587  0.01861  1.0000
  C   C2883     1.0  0.90112  0.33336  0.36576  1.0000
  C   C2884     1.0  0.86734  0.37556  0.14886  1.0000
  H   H3425     1.0  0.87184  0.36491  0.15522  1.0000
  H   H3426     1.0  0.99782  0.28468  0.47093  1.0000
  H   H3427     1.0  0.99029  0.28754  0.32843  1.0000
  H   H3428     1.0  0.99445  0.19994  0.45364  1.0000
  H   H3429     1.0  0.68915  0.37613  0.06260  1.0000
  S   S770      1.0  0.69954  0.37750  0.08653  1.0000
  H   H3430     1.0  0.64298  0.35168  0.09995  1.0000
  H   H3431     1.0  0.66379  0.30582  0.08410  1.0000
  H   H3432     1.0  0.62833  0.34153  0.09139  1.0000
  H   H3433     1.0  0.68591  0.25621  0.99992  1.0000
  C   C2885     1.0  0.57413  0.20061  0.07689  1.0000
  H   H3434     1.0  0.90884  0.35193  0.35194  1.0000
  H   H3435     1.0  0.93307  0.34382  0.35760  1.0000
  C   C2886     1.0  0.89547  0.20385  0.43372  1.0000
  H   H3436     1.0  0.66329  0.24248  0.99485  1.0000
  C   C2887     1.0  0.63944  0.19875  0.06009  1.0000
  S   S771      1.0  0.99068  0.30914  0.44241  1.0000
  H   H3437     1.0  0.62101  0.33643  0.99085  1.0000
  C   C2888     1.0  0.96855  0.37763  0.44995  1.0000
  H   H3438     1.0  0.63963  0.23430  0.04471  1.0000
  C   C2889     1.0  0.60584  0.38877  0.01103  1.0000
  C   C2890     1.0  0.60868  0.20849  0.14067  1.0000
  H   H3439     1.0  0.98022  0.36942  0.33437  1.0000
  C   C2891     1.0  0.59451  0.38394  0.00933  1.0000
  H   H3440     1.0  0.95584  0.20685  0.45101  1.0000
  H   H3441     1.0  0.62008  0.19250  0.10703  1.0000
  H   H3442     1.0  0.99187  0.27227  0.34293  1.0000
  S   S772      1.0  0.92262  0.39060  0.27593  1.0000
  H   H3443     1.0  0.60183  0.19948  0.16912  1.0000
  H   H3444     1.0  0.99893  0.36540  0.43639  1.0000
  H   H3445     1.0  0.58216  0.20706  0.07413  1.0000
  C   C2892     1.0  0.00059  0.35558  0.35470  1.0000
  H   H3446     1.0  0.98704  0.36436  0.29980  1.0000
  C   C2893     1.0  0.80925  0.38880  0.06710  1.0000
  H   H3447     1.0  0.97311  0.28603  0.41676  1.0000
  H   H3448     1.0  0.63173  0.19748  0.13897  1.0000
  H   H3449     1.0  0.58419  0.38496  0.01697  1.0000
  C   C2894     1.0  0.84487  0.38181  0.03976  1.0000
  C   C2895     1.0  0.99125  0.25337  0.43184  1.0000
  H   H3450     1.0  0.64147  0.21830  0.12521  1.0000
  N   N193      1.0  0.97882  0.38665  0.44835  1.0000
  H   H3451     1.0  0.59667  0.19438  0.13011  1.0000
  H   H3452     1.0  0.95312  0.34679  0.21500  1.0000
  H   H3453     1.0  0.92018  0.34730  0.22663  1.0000
  C   C2896     1.0  0.82466  0.38955  0.98721  1.0000
  Fe  Fe384     1.0  0.82896  0.38443  0.10701  1.0000
  C   C2897     1.0  0.96189  0.24572  0.46982  1.0000
  H   H3454     1.0  0.67208  0.38941  0.10251  1.0000
  C   C2898     1.0  0.68682  0.35843  0.98699  1.0000
  S   S773      1.0  0.99708  0.33574  0.45118  1.0000
  H   H3455     1.0  0.99165  0.27190  0.44701  1.0000
  H   H3456     1.0  0.55891  0.27463  0.01542  1.0000
  H   H3457     1.0  0.53541  0.31253  0.98748  1.0000
  H   H3458     1.0  0.94052  0.36737  0.39584  1.0000
  C   C2899     1.0  0.69592  0.25801  0.99248  1.0000
  C   C2900     1.0  0.95430  0.39046  0.22743  1.0000
  H   H3459     1.0  0.83411  0.37856  0.18299  1.0000
  C   C2901     1.0  0.62458  0.19987  0.06734  1.0000
  H   H3460     1.0  0.72032  0.34176  0.99019  1.0000
  C   C2902     1.0  0.60973  0.37660  0.98776  1.0000
  H   H3461     1.0  0.96168  0.38236  0.44194  1.0000
  C   C2903     1.0  0.65403  0.38925  0.07818  1.0000
  C   C2904     1.0  0.62114  0.38124  0.98957  1.0000
  S   S774      1.0  0.88766  0.38283  0.23518  1.0000
  H   H3462     1.0  0.75123  0.38641  0.10380  1.0000
  H   H3463     1.0  0.95721  0.38800  0.41884  1.0000
  C   C2905     1.0  0.99735  0.36427  0.30171  1.0000
  C   C2906     1.0  0.70977  0.39080  0.03932  1.0000
  C   C2907     1.0  0.00184  0.27376  0.41869  1.0000
  C   C2908     1.0  0.84089  0.39093  0.06057  1.0000
  H   H3464     1.0  0.85005  0.39127  0.18791  1.0000
  C   C2909     1.0  0.65628  0.39122  0.09060  1.0000
  C   C2910     1.0  0.98596  0.29167  0.57332  1.0000
  C   C2911     1.0  0.71759  0.26764  0.98455  1.0000
  H   H3465     1.0  0.75157  0.38517  0.97388  1.0000
  C   C2912     1.0  0.97257  0.32329  0.53019  1.0000
  H   H3466     1.0  0.99624  0.37561  0.53417  1.0000
  H   H3467     1.0  0.64439  0.24086  0.98387  1.0000
  H   H3468     1.0  0.54076  0.19870  0.95569  1.0000
  Fe  Fe385     1.0  0.98388  0.32717  0.56213  1.0000
  H   H3469     1.0  0.94384  0.19167  0.57678  1.0000
  H   H3470     1.0  0.86787  0.21282  0.50702  1.0000
  C   C2913     1.0  0.99928  0.31861  0.75954  1.0000
  S   S775      1.0  0.91145  0.20438  0.58612  1.0000
  H   H3471     1.0  0.97411  0.33291  0.52153  1.0000
  H   H3472     1.0  0.99106  0.36248  0.72865  1.0000
  H   H3473     1.0  0.99898  0.32300  0.51772  1.0000
  Fe  Fe386     1.0  0.72339  0.32369  0.94744  1.0000
  S   S776      1.0  0.70011  0.32644  0.94642  1.0000
  S   S777      1.0  0.74011  0.32984  0.92747  1.0000
  Fe  Fe387     1.0  0.69521  0.33864  0.96339  1.0000
  S   S778      1.0  0.67690  0.35789  0.96438  1.0000
  Fe  Fe388     1.0  0.69985  0.30688  0.96438  1.0000
  S   S779      1.0  0.68353  0.29263  0.97127  1.0000
  S   S780      1.0  0.71834  0.33761  0.96305  1.0000
  S   S781      1.0  0.72378  0.30282  0.96404  1.0000
  Fe  Fe389     1.0  0.62099  0.24498  0.97014  1.0000
  S   S782      1.0  0.62605  0.26524  0.95496  1.0000
  C   C2914     1.0  0.91815  0.19562  0.61306  1.0000
  Fe  Fe390     1.0  0.62733  0.22879  0.94662  1.0000
  S   S783      1.0  0.63380  0.24754  0.92962  1.0000
  S   S784      1.0  0.62712  0.20808  0.94122  1.0000
  Fe  Fe391     1.0  0.64543  0.25051  0.94466  1.0000
  S   S785      1.0  0.66691  0.25758  0.93640  1.0000
  Fe  Fe392     1.0  0.61405  0.26061  0.94141  1.0000
  S   S786      1.0  0.59897  0.27679  0.92842  1.0000
  S   S787      1.0  0.64109  0.23027  0.96063  1.0000
  S   S788      1.0  0.60685  0.24185  0.95761  1.0000
  S   S789      1.0  0.57942  0.36394  0.96062  1.0000
  S   S790      1.0  0.59301  0.34024  0.93232  1.0000
  C   C2915     1.0  0.99827  0.35239  0.72697  1.0000
  H   H3474     1.0  0.92884  0.27768  0.59139  1.0000
  S   S791      1.0  0.79075  0.35057  0.93775  1.0000
  H   H3475     1.0  0.98351  0.29479  0.65025  1.0000
  H   H3476     1.0  0.94516  0.31222  0.65354  1.0000
  S   S792      1.0  0.93012  0.35838  0.79133  1.0000
  S   S793      1.0  0.99272  0.21280  0.66007  1.0000
  C   C2916     1.0  0.86208  0.20896  0.51779  1.0000
  H   H3477     1.0  0.57548  0.29777  0.97034  1.0000
  S   S794      1.0  0.96543  0.31618  0.56727  1.0000
  S   S795      1.0  0.98121  0.35083  0.55307  1.0000
  C   C2917     1.0  0.56405  0.19537  0.95062  1.0000
  Fe  Fe393     1.0  0.94098  0.33042  0.72359  1.0000
  S   S796      1.0  0.93869  0.32791  0.70261  1.0000
  S   S797      1.0  0.92128  0.34038  0.73875  1.0000
  H   H3478     1.0  0.79785  0.36228  0.90438  1.0000
  H   H3479     1.0  0.65415  0.29466  0.93212  1.0000
  H   H3480     1.0  0.82175  0.19800  0.57650  1.0000
  Fe  Fe394     1.0  0.95790  0.33814  0.69314  1.0000
  S   S798      1.0  0.96063  0.35299  0.67136  1.0000
  Fe  Fe395     1.0  0.95518  0.30716  0.70632  1.0000
  S   S799      1.0  0.95815  0.28550  0.70143  1.0000
  S   S800      1.0  0.95896  0.34227  0.71368  1.0000
  S   S801      1.0  0.95586  0.30866  0.72819  1.0000
  Fe  Fe396     1.0  0.95114  0.22551  0.63517  1.0000
  S   S802      1.0  0.94822  0.24880  0.62414  1.0000
  Fe  Fe397     1.0  0.91488  0.37482  0.80374  1.0000
  Fe  Fe398     1.0  0.97601  0.22684  0.64753  1.0000
  S   S803      1.0  0.97506  0.25007  0.63736  1.0000
  C   C2918     1.0  0.86011  0.20350  0.54334  1.0000
  Fe  Fe399     1.0  0.95090  0.25256  0.64436  1.0000
  S   S804      1.0  0.93697  0.27174  0.65336  1.0000
  Fe  Fe400     1.0  0.97255  0.24432  0.61823  1.0000
  C   C2919     1.0  0.99056  0.27722  0.57968  1.0000
  S   S805      1.0  0.95185  0.22957  0.65606  1.0000
  S   S806      1.0  0.97546  0.22075  0.62778  1.0000
  S   S807      1.0  0.93774  0.20999  0.63549  1.0000
  C   C2920     1.0  0.95213  0.28217  0.68789  1.0000
  C   C2921     1.0  0.94040  0.29143  0.68236  1.0000
  C   C2922     1.0  0.93570  0.28806  0.67189  1.0000
  C   C2923     1.0  0.94285  0.27557  0.66672  1.0000
  C   C2924     1.0  0.95465  0.26640  0.67218  1.0000
  C   C2925     1.0  0.95918  0.26964  0.68279  1.0000
  H   H3481     1.0  0.93476  0.30100  0.68637  1.0000
  H   H3482     1.0  0.92648  0.29513  0.66781  1.0000
  H   H3483     1.0  0.96019  0.25670  0.66836  1.0000
  H   H3484     1.0  0.96818  0.26235  0.68710  1.0000
  H   H3485     1.0  0.51306  0.36452  0.97992  1.0000
  H   H3486     1.0  0.75175  0.37395  0.94135  1.0000
  H   H3487     1.0  0.66530  0.30107  0.93890  1.0000
  C   C2926     1.0  0.97853  0.35215  0.49119  1.0000
  H   H3488     1.0  0.92263  0.37564  0.73549  1.0000
  C   C2927     1.0  0.64272  0.22281  0.90212  1.0000
  H   H3489     1.0  0.69520  0.34924  0.98458  1.0000
  C   C2928     1.0  0.70777  0.38935  0.97765  1.0000
  C   C2929     1.0  0.67615  0.36453  0.97897  1.0000
  C   C2930     1.0  0.97115  0.29821  0.57562  1.0000
  C   C2931     1.0  0.96094  0.29032  0.58451  1.0000
  C   C2932     1.0  0.96560  0.27596  0.59128  1.0000
  C   C2933     1.0  0.98042  0.26939  0.58877  1.0000
  C   C2934     1.0  0.79892  0.32645  0.91008  1.0000
  H   H3490     1.0  0.91440  0.36987  0.70307  1.0000
  H   H3491     1.0  0.94949  0.29537  0.58633  1.0000
  H   H3492     1.0  0.95773  0.26991  0.59822  1.0000
  H   H3493     1.0  0.99335  0.30684  0.62854  1.0000
  H   H3494     1.0  0.76677  0.37303  0.94836  1.0000
  C   C2935     1.0  0.92401  0.19714  0.62375  1.0000
  C   C2936     1.0  0.96685  0.31622  0.66273  1.0000
  C   C2937     1.0  0.97246  0.29917  0.64808  1.0000
  C   C2938     1.0  0.98263  0.35941  0.51070  1.0000
  C   C2939     1.0  0.97314  0.35866  0.50290  1.0000
  H   H3495     1.0  0.97837  0.36410  0.51997  1.0000
  H   H3496     1.0  0.96156  0.36279  0.50620  1.0000
  H   H3497     1.0  0.88233  0.24728  0.65540  1.0000
  H   H3498     1.0  0.88175  0.26369  0.64185  1.0000
  C   C2940     1.0  0.98093  0.34783  0.62521  1.0000
  H   H3499     1.0  0.96346  0.34397  0.64303  1.0000
  C   C2941     1.0  0.92729  0.35362  0.77675  1.0000
  C   C2942     1.0  0.93886  0.34479  0.76910  1.0000
  C   C2943     1.0  0.93720  0.34079  0.75735  1.0000
  C   C2944     1.0  0.92382  0.34536  0.75334  1.0000
  C   C2945     1.0  0.91222  0.35416  0.76100  1.0000
  C   C2946     1.0  0.91398  0.35840  0.77259  1.0000
  H   H3500     1.0  0.94918  0.34104  0.77227  1.0000
  H   H3501     1.0  0.94619  0.33402  0.75153  1.0000
  H   H3502     1.0  0.90182  0.35769  0.75800  1.0000
  H   H3503     1.0  0.90499  0.36515  0.77845  1.0000
  S   S808      1.0  0.60678  0.33684  0.96665  1.0000
  C   C2947     1.0  0.97252  0.36419  0.66871  1.0000
  H   H3504     1.0  0.88720  0.24664  0.63696  1.0000
  H   H3505     1.0  0.89697  0.26992  0.65454  1.0000
  H   H3506     1.0  0.91448  0.25825  0.65634  1.0000
  C   C2948     1.0  0.59785  0.29426  0.92955  1.0000
  C   C2949     1.0  0.59785  0.29712  0.94244  1.0000
  C   C2950     1.0  0.59613  0.31128  0.94344  1.0000
  C   C2951     1.0  0.59503  0.32250  0.93136  1.0000
  C   C2952     1.0  0.59536  0.31958  0.91840  1.0000
  C   C2953     1.0  0.59649  0.30550  0.91757  1.0000
  H   H3507     1.0  0.59895  0.28843  0.95167  1.0000
  H   H3508     1.0  0.59602  0.31347  0.95344  1.0000
  H   H3509     1.0  0.59454  0.32823  0.90905  1.0000
  H   H3510     1.0  0.59649  0.30331  0.90759  1.0000
  C   C2954     1.0  0.99350  0.34690  0.48693  1.0000
  C   C2955     1.0  0.86225  0.37964  0.87688  1.0000
  C   C2956     1.0  0.99570  0.38276  0.54116  1.0000
  C   C2957     1.0  0.99785  0.27055  0.68745  1.0000
  C   C2958     1.0  0.61500  0.19541  0.92766  1.0000
  H   H3511     1.0  0.65692  0.38100  0.97611  1.0000
  H   H3512     1.0  0.99930  0.34888  0.60745  1.0000
  C   C2959     1.0  0.70090  0.38711  0.96832  1.0000
  H   H3513     1.0  0.90002  0.38080  0.91706  1.0000
  H   H3514     1.0  0.59155  0.29382  0.97703  1.0000
  C   C2960     1.0  0.77615  0.34561  0.93491  1.0000
  C   C2961     1.0  0.77186  0.33319  0.94384  1.0000
  C   C2962     1.0  0.76033  0.32874  0.94200  1.0000
  C   C2963     1.0  0.75339  0.33637  0.93083  1.0000
  C   C2964     1.0  0.75769  0.34880  0.92182  1.0000
  C   C2965     1.0  0.76892  0.35356  0.92399  1.0000
  H   H3515     1.0  0.77745  0.32697  0.95228  1.0000
  H   H3516     1.0  0.75713  0.31910  0.94892  1.0000
  H   H3517     1.0  0.75237  0.35468  0.91312  1.0000
  H   H3518     1.0  0.77212  0.36316  0.91705  1.0000
  C   C2966     1.0  0.67996  0.28211  0.96165  1.0000
  C   C2967     1.0  0.66832  0.27518  0.96792  1.0000
  C   C2968     1.0  0.66431  0.26756  0.96033  1.0000
  C   C2969     1.0  0.67212  0.26650  0.94649  1.0000
  C   C2970     1.0  0.68413  0.27296  0.94041  1.0000
  C   C2971     1.0  0.68800  0.28081  0.94792  1.0000
  H   H3519     1.0  0.65975  0.33753  0.98360  1.0000
  H   H3520     1.0  0.65517  0.26248  0.96522  1.0000
  H   H3521     1.0  0.69029  0.27210  0.92974  1.0000
  H   H3522     1.0  0.69708  0.28598  0.94304  1.0000
  C   C2972     1.0  0.59328  0.20680  0.91811  1.0000
  C   C2973     1.0  0.59171  0.21871  0.92371  1.0000
  C   C2974     1.0  0.60184  0.21908  0.93105  1.0000
  C   C2975     1.0  0.61370  0.20756  0.93281  1.0000
  H   H3523     1.0  0.96121  0.30851  0.67138  1.0000
  N   N194      1.0  0.96731  0.31466  0.64831  1.0000
  H   H3524     1.0  0.58266  0.22776  0.92229  1.0000
  H   H3525     1.0  0.60056  0.22831  0.93529  1.0000
  H   H3526     1.0  0.89416  0.38117  0.90132  1.0000
  S   S809      1.0  0.88683  0.37389  0.85631  1.0000
  C   C2976     1.0  0.55330  0.28364  0.98143  1.0000
  C   C2977     1.0  0.95231  0.31922  0.64587  1.0000
  H   H3527     1.0  0.92104  0.38905  0.86865  1.0000
  H   H3528     1.0  0.76521  0.36899  0.97333  1.0000
  S   S810      1.0  0.81990  0.37262  0.91702  1.0000
  H   H3529     1.0  0.95229  0.31876  0.63488  1.0000
  C   C2978     1.0  0.99868  0.27864  0.67345  1.0000
  C   C2979     1.0  0.98711  0.38092  0.65286  1.0000
  H   H3530     1.0  0.82767  0.32964  0.90425  1.0000
  C   C2980     1.0  0.84729  0.38468  0.88191  1.0000
  C   C2981     1.0  0.60489  0.19506  0.92026  1.0000
  H   H3531     1.0  0.98014  0.32140  0.53725  1.0000
  H   H3532     1.0  0.92609  0.28797  0.61200  1.0000
  C   C2982     1.0  0.93060  0.20864  0.62155  1.0000
  C   C2983     1.0  0.93122  0.21868  0.60850  1.0000
  C   C2984     1.0  0.92531  0.21719  0.59782  1.0000
  S   S811      1.0  0.92050  0.37454  0.82417  1.0000
  H   H3533     1.0  0.56676  0.29145  0.93701  1.0000
  H   H3534     1.0  0.93627  0.22757  0.60663  1.0000
  H   H3535     1.0  0.92581  0.22503  0.58779  1.0000
  C   C2985     1.0  0.97227  0.29834  0.53666  1.0000
  C   C2986     1.0  0.91010  0.25939  0.62982  1.0000
  H   H3536     1.0  0.96491  0.20562  0.60506  1.0000
  C   C2987     1.0  0.95734  0.37615  0.73350  1.0000
  S   S812      1.0  0.57446  0.33096  0.97271  1.0000
  H   H3537     1.0  0.74729  0.35131  0.95801  1.0000
  S   S813      1.0  0.79532  0.38528  0.94294  1.0000
  C   C2988     1.0  0.85889  0.38583  0.85267  1.0000
  C   C2989     1.0  0.51052  0.34360  0.98022  1.0000
  C   C2990     1.0  0.55678  0.29948  0.93906  1.0000
  H   H3538     1.0  0.54295  0.28451  0.94471  1.0000
  Fe  Fe401     1.0  0.58915  0.34265  0.95479  1.0000
  C   C2991     1.0  0.92344  0.27276  0.60196  1.0000
  N   N195      1.0  0.64272  0.31224  0.94254  1.0000
  C   C2992     1.0  0.65589  0.30460  0.93379  1.0000
  C   C2993     1.0  0.63912  0.30268  0.95680  1.0000
  C   C2994     1.0  0.63055  0.31497  0.93544  1.0000
  C   C2995     1.0  0.64542  0.32547  0.94429  1.0000
  C   C2996     1.0  0.63645  0.33931  0.94053  1.0000
  C   C2997     1.0  0.65710  0.32466  0.95040  1.0000
  C   C2998     1.0  0.63883  0.35141  0.94318  1.0000
  C   C2999     1.0  0.65955  0.33688  0.95268  1.0000
  C   C3000     1.0  0.65037  0.35020  0.94920  1.0000
  H   H3539     1.0  0.63474  0.34591  0.98013  1.0000
  H   H3540     1.0  0.97733  0.27502  0.72030  1.0000
  H   H3541     1.0  0.65919  0.31156  0.92311  1.0000
  H   H3542     1.0  0.63739  0.29240  0.95597  1.0000
  H   H3543     1.0  0.62905  0.30787  0.96363  1.0000
  H   H3544     1.0  0.64792  0.29976  0.96270  1.0000
  H   H3545     1.0  0.63260  0.32192  0.92452  1.0000
  H   H3546     1.0  0.62875  0.30484  0.93431  1.0000
  H   H3547     1.0  0.62019  0.32025  0.94176  1.0000
  H   H3548     1.0  0.62727  0.34111  0.93583  1.0000
  H   H3549     1.0  0.66440  0.31454  0.95357  1.0000
  H   H3550     1.0  0.63155  0.36179  0.94074  1.0000
  H   H3551     1.0  0.96319  0.30438  0.51228  1.0000
  H   H3552     1.0  0.65217  0.35961  0.95127  1.0000
  C   C3001     1.0  0.99760  0.35422  0.50638  1.0000
  H   H3553     1.0  0.80564  0.32362  0.91774  1.0000
  H   H3554     1.0  0.98423  0.25750  0.73028  1.0000
  H   H3555     1.0  0.99984  0.24085  0.65454  1.0000
  C   C3002     1.0  0.89062  0.38061  0.91304  1.0000
  H   H3556     1.0  0.97527  0.37000  0.64581  1.0000
  C   C3003     1.0  0.99023  0.38331  0.66468  1.0000
  C   C3004     1.0  0.88797  0.25244  0.64463  1.0000
  C   C3005     1.0  0.97619  0.36619  0.68039  1.0000
  Fe  Fe402     1.0  0.79662  0.37206  0.92775  1.0000
  H   H3557     1.0  0.98104  0.25966  0.71297  1.0000
  H   H3558     1.0  0.91477  0.27695  0.63586  1.0000
  H   H3559     1.0  0.83110  0.21186  0.56560  1.0000
  H   H3560     1.0  0.70333  0.37709  0.95118  1.0000
  C   C3006     1.0  0.96409  0.19462  0.60668  1.0000
  H   H3561     1.0  0.64961  0.20029  0.90235  1.0000
  C   C3007     1.0  0.98940  0.31816  0.62799  1.0000
  H   H3562     1.0  0.80856  0.38842  0.96184  1.0000
  C   C3008     1.0  0.99848  0.37348  0.58582  1.0000
  H   H3563     1.0  0.86331  0.38609  0.84141  1.0000
  C   C3009     1.0  0.51784  0.35314  0.98174  1.0000
  H   H3564     1.0  0.83039  0.34746  0.90051  1.0000
  H   H3565     1.0  0.97351  0.38053  0.71422  1.0000
  C   C3010     1.0  0.93364  0.37677  0.73038  1.0000
  C   C3011     1.0  0.91836  0.26047  0.60400  1.0000
  C   C3012     1.0  0.92183  0.27857  0.61358  1.0000
  C   C3013     1.0  0.99274  0.34149  0.72544  1.0000
  H   H3566     1.0  0.63604  0.32790  0.97894  1.0000
  C   C3014     1.0  0.91173  0.25389  0.61769  1.0000
  H   H3567     1.0  0.79100  0.34907  0.87913  1.0000
  H   H3568     1.0  0.91976  0.25586  0.59497  1.0000
  H   H3569     1.0  0.56525  0.33899  0.92149  1.0000
  H   H3570     1.0  0.71432  0.25232  0.95956  1.0000
  N   N196      1.0  0.81197  0.34593  0.89371  1.0000
  H   H3571     1.0  0.89817  0.25275  0.66657  1.0000
  S   S814      1.0  0.58128  0.20759  0.90748  1.0000
  H   H3572     1.0  0.82605  0.33353  0.87862  1.0000
  H   H3573     1.0  0.90699  0.23114  0.65855  1.0000
  H   H3574     1.0  0.77173  0.33589  0.88556  1.0000
  H   H3575     1.0  0.87151  0.37928  0.93743  1.0000
  S   S815      1.0  0.61204  0.37009  0.97255  1.0000
  H   H3576     1.0  0.92790  0.38361  0.68404  1.0000
  N   N197      1.0  0.97469  0.31055  0.52435  1.0000
  H   H3577     1.0  0.83341  0.19379  0.53494  1.0000
  S   S816      1.0  0.50923  0.31713  0.97793  1.0000
  H   H3578     1.0  0.78647  0.31086  0.92328  1.0000
  C   C3015     1.0  0.84989  0.20347  0.52002  1.0000
  C   C3016     1.0  0.98507  0.26455  0.71938  1.0000
  H   H3579     1.0  0.91041  0.23053  0.64031  1.0000
  H   H3580     1.0  0.81307  0.36787  0.89106  1.0000
  H   H3581     1.0  0.99634  0.37585  0.55197  1.0000
  H   H3582     1.0  0.66220  0.27587  0.97866  1.0000
  C   C3017     1.0  0.86808  0.38026  0.86226  1.0000
  H   H3583     1.0  0.52021  0.30281  0.94969  1.0000
  H   H3584     1.0  0.97864  0.33372  0.75955  1.0000
  S   S817      1.0  0.99550  0.31406  0.72252  1.0000
  C   C3018     1.0  0.77953  0.33313  0.89223  1.0000
  C   C3019     1.0  0.86707  0.20913  0.52943  1.0000
  H   H3585     1.0  0.55412  0.35635  0.92187  1.0000
  C   C3020     1.0  0.58474  0.26910  0.97846  1.0000
  C   C3021     1.0  0.82108  0.34492  0.87924  1.0000
  N   N198      1.0  0.90326  0.25204  0.64423  1.0000
  H   H3586     1.0  0.95231  0.31734  0.52235  1.0000
  H   H3587     1.0  0.98126  0.34319  0.72609  1.0000
  H   H3588     1.0  0.97764  0.35937  0.62399  1.0000
  C   C3022     1.0  0.53112  0.32017  0.94429  1.0000
  N   N199      1.0  0.60872  0.24890  0.89187  1.0000
  C   C3023     1.0  0.61535  0.25954  0.88000  1.0000
  C   C3024     1.0  0.59600  0.24692  0.88801  1.0000
  C   C3025     1.0  0.60315  0.25496  0.90485  1.0000
  C   C3026     1.0  0.61989  0.23547  0.89447  1.0000
  C   C3027     1.0  0.61918  0.22234  0.89201  1.0000
  C   C3028     1.0  0.63219  0.23538  0.89927  1.0000
  C   C3029     1.0  0.62997  0.20990  0.89458  1.0000
  C   C3030     1.0  0.84798  0.19727  0.54599  1.0000
  H   H3589     1.0  0.86338  0.38024  0.91554  1.0000
  H   H3590     1.0  0.62011  0.25523  0.87015  1.0000
  H   H3591     1.0  0.60722  0.26969  0.87741  1.0000
  H   H3592     1.0  0.62422  0.26247  0.88265  1.0000
  H   H3593     1.0  0.59917  0.24338  0.87775  1.0000
  H   H3594     1.0  0.58753  0.25704  0.88667  1.0000
  H   H3595     1.0  0.59065  0.23883  0.89647  1.0000
  H   H3596     1.0  0.61167  0.25809  0.90784  1.0000
  H   H3597     1.0  0.59440  0.26484  0.90345  1.0000
  H   H3598     1.0  0.59862  0.24712  0.91422  1.0000
  H   H3599     1.0  0.61024  0.22121  0.88847  1.0000
  H   H3600     1.0  0.63370  0.24500  0.90103  1.0000
  H   H3601     1.0  0.94700  0.33033  0.64721  1.0000
  H   H3602     1.0  0.76931  0.31685  0.90755  1.0000
  H   H3603     1.0  0.93905  0.37254  0.75082  1.0000
  Fe  Fe403     1.0  0.59599  0.35725  0.97409  1.0000
  H   H3604     1.0  0.94448  0.37340  0.68903  1.0000
  C   C3031     1.0  0.99749  0.32715  0.61734  1.0000
  H   H3605     1.0  0.52004  0.21507  0.86686  1.0000
  C   C3032     1.0  0.75475  0.37682  0.94992  1.0000
  Fe  Fe404     1.0  0.99335  0.35025  0.56923  1.0000
  S   S818      1.0  0.69349  0.31956  0.98131  1.0000
  C   C3033     1.0  0.50834  0.21633  0.86911  1.0000
  C   C3034     1.0  0.77819  0.32232  0.90457  1.0000
  C   C3035     1.0  0.66520  0.37631  0.98230  1.0000
  C   C3036     1.0  0.96234  0.37949  0.71872  1.0000
  H   H3606     1.0  0.96165  0.30102  0.54422  1.0000
  H   H3607     1.0  0.84774  0.38675  0.98448  1.0000
  C   C3037     1.0  0.82775  0.20212  0.56550  1.0000
  H   H3608     1.0  0.74477  0.34933  0.97681  1.0000
  H   H3609     1.0  0.85257  0.19589  0.57324  1.0000
  H   H3610     1.0  0.58294  0.25812  0.98385  1.0000
  H   H3611     1.0  0.98423  0.38176  0.60382  1.0000
  C   C3038     1.0  0.53063  0.30588  0.94601  1.0000
  H   H3612     1.0  0.81478  0.34980  0.87076  1.0000
  H   H3613     1.0  0.81588  0.34233  0.91476  1.0000
  Fe  Fe405     1.0  0.97369  0.32042  0.71668  1.0000
  H   H3614     1.0  0.96529  0.29259  0.65638  1.0000
  C   C3039     1.0  0.80491  0.36118  0.89370  1.0000
  S   S819      1.0  0.97413  0.31737  0.69532  1.0000
  C   C3040     1.0  0.96342  0.31380  0.51597  1.0000
  H   H3615     1.0  0.85383  0.38345  0.95998  1.0000
  C   C3041     1.0  0.80064  0.33752  0.89751  1.0000
  S   S820      1.0  0.98527  0.36646  0.58307  1.0000
  H   H3616     1.0  0.97257  0.29719  0.63763  1.0000
  Fe  Fe406     1.0  0.56584  0.35177  0.97970  1.0000
  H   H3617     1.0  0.90813  0.24429  0.61871  1.0000
  C   C3042     1.0  0.97658  0.32381  0.63742  1.0000
  C   C3043     1.0  0.90320  0.25859  0.65587  1.0000
  H   H3618     1.0  0.66857  0.33600  0.95728  1.0000
  C   C3044     1.0  0.92125  0.36934  0.71043  1.0000
  Fe  Fe407     1.0  0.71705  0.31720  0.97959  1.0000
  H   H3619     1.0  0.98499  0.28889  0.50967  1.0000
  H   H3620     1.0  0.82000  0.20559  0.55830  1.0000
  C   C3045     1.0  0.99494  0.38081  0.59683  1.0000
  H   H3621     1.0  0.76238  0.34988  0.96521  1.0000
  H   H3622     1.0  0.72502  0.27324  0.98560  1.0000
  H   H3623     1.0  0.83007  0.35070  0.87631  1.0000
  C   C3046     1.0  0.79058  0.34062  0.88869  1.0000
  C   C3047     1.0  0.97281  0.33892  0.63595  1.0000
  C   C3048     1.0  0.78788  0.31896  0.91344  1.0000
  H   H3624     1.0  0.97218  0.36048  0.69101  1.0000
  C   C3049     1.0  0.64159  0.21008  0.89982  1.0000
  H   H3625     1.0  0.96536  0.32257  0.50630  1.0000
  C   C3050     1.0  0.00062  0.27559  0.69812  1.0000
  H   H3626     1.0  0.98085  0.29541  0.54291  1.0000
  C   C3051     1.0  0.57976  0.29372  0.98023  1.0000
  H   H3627     1.0  0.99390  0.29766  0.56653  1.0000
  H   H3628     1.0  0.62901  0.19992  0.89300  1.0000
  C   C3052     1.0  0.72097  0.26285  0.97189  1.0000
  C   C3053     1.0  0.81714  0.38776  0.96681  1.0000
  H   H3629     1.0  0.58114  0.27239  0.96823  1.0000
  H   H3630     1.0  0.52078  0.32748  0.94681  1.0000
  C   C3054     1.0  0.91119  0.23685  0.64748  1.0000
  C   C3055     1.0  0.98480  0.37591  0.67842  1.0000
  C   C3056     1.0  0.82189  0.34106  0.90377  1.0000
  H   H3631     1.0  0.96099  0.32708  0.66450  1.0000
  C   C3057     1.0  0.91525  0.27207  0.62733  1.0000
  C   C3058     1.0  0.97805  0.37152  0.65491  1.0000
  H   H3632     1.0  0.87678  0.21312  0.52763  1.0000
  H   H3633     1.0  0.79802  0.36607  0.88573  1.0000
  C   C3059     1.0  0.99318  0.34195  0.61587  1.0000
  S   S821      1.0  0.89071  0.37907  0.81330  1.0000
  C   C3060     1.0  0.83913  0.38698  0.97969  1.0000
  H   H3634     1.0  0.86936  0.37520  0.88432  1.0000
  H   H3635     1.0  0.92296  0.23610  0.64635  1.0000
  C   C3061     1.0  0.75051  0.35458  0.96618  1.0000
  H   H3636     1.0  0.96144  0.32600  0.53692  1.0000
  N   N200      1.0  0.54560  0.33950  0.93824  1.0000
  C   C3062     1.0  0.55354  0.33987  0.94862  1.0000
  C   C3063     1.0  0.55370  0.34492  0.92361  1.0000
  C   C3064     1.0  0.53124  0.34961  0.94073  1.0000
  C   C3065     1.0  0.54457  0.32454  0.93991  1.0000
  H   H3637     1.0  0.99512  0.26023  0.68981  1.0000
  C   C3066     1.0  0.55737  0.31371  0.93745  1.0000
  H   H3638     1.0  0.56795  0.31618  0.93435  1.0000
  H   H3639     1.0  0.56492  0.33358  0.94666  1.0000
  H   H3640     1.0  0.00186  0.24220  0.61888  1.0000
  H   H3641     1.0  0.54815  0.33533  0.95969  1.0000
  H   H3642     1.0  0.65167  0.22288  0.90642  1.0000
  C   C3067     1.0  0.98932  0.30675  0.51517  1.0000
  H   H3643     1.0  0.98738  0.37760  0.68755  1.0000
  H   H3644     1.0  0.52467  0.35002  0.93316  1.0000
  H   H3645     1.0  0.52492  0.34657  0.95185  1.0000
  H   H3646     1.0  0.53238  0.36074  0.93942  1.0000
  H   H3647     1.0  0.86472  0.20382  0.55179  1.0000
  N   N201      1.0  0.92831  0.38172  0.70604  1.0000
  H   H3648     1.0  0.92949  0.35904  0.71064  1.0000
  H   H3649     1.0  0.88800  0.36987  0.91808  1.0000
  C   C3068     1.0  0.99418  0.34245  0.76382  1.0000
  C   C3069     1.0  0.91883  0.20560  0.59997  1.0000
  S   S822      1.0  0.98653  0.25138  0.59673  1.0000
  C   C3070     1.0  0.75325  0.37342  0.97494  1.0000
  H   H3650     1.0  0.54858  0.34403  0.91539  1.0000
  H   H3651     1.0  0.84622  0.20312  0.51091  1.0000
  N   N202      1.0  0.74713  0.37038  0.96441  1.0000
  H   H3652     1.0  0.73055  0.26495  0.96375  1.0000
  Fe  Fe408     1.0  0.89645  0.38107  0.83280  1.0000
  S   S823      1.0  0.83621  0.38580  0.94078  1.0000
  C   C3071     1.0  0.00202  0.32825  0.72372  1.0000
  C   C3072     1.0  0.95303  0.38149  0.70970  1.0000
  H   H3653     1.0  0.97798  0.31439  0.66442  1.0000
  C   C3073     1.0  0.71189  0.25570  0.96952  1.0000
  C   C3074     1.0  0.72382  0.37387  0.95684  1.0000
  C   C3075     1.0  0.84278  0.19789  0.53390  1.0000
  H   H3654     1.0  0.97236  0.28861  0.53331  1.0000
  C   C3076     1.0  0.00137  0.21997  0.66875  1.0000
  H   H3655     1.0  0.84291  0.38429  0.89317  1.0000
  H   H3656     1.0  0.91392  0.36858  0.72123  1.0000
  H   H3657     1.0  0.99695  0.27432  0.66543  1.0000
  C   C3077     1.0  0.54341  0.29556  0.94334  1.0000
  H   H3658     1.0  0.55413  0.35098  0.94824  1.0000
  C   C3078     1.0  0.84260  0.38507  0.96572  1.0000
  H   H3659     1.0  0.63141  0.38026  0.98188  1.0000
  N   N203      1.0  0.00008  0.26659  0.71278  1.0000
  H   H3660     1.0  0.53208  0.28846  0.97672  1.0000
  S   S824      1.0  0.99391  0.32713  0.57961  1.0000
  H   H3661     1.0  0.66024  0.31941  0.98400  1.0000
  H   H3662     1.0  0.50582  0.21793  0.89028  1.0000
  H   H3663     1.0  0.99133  0.38662  0.64220  1.0000
  C   C3079     1.0  0.99281  0.29519  0.50827  1.0000
  C   C3080     1.0  0.98964  0.33173  0.76097  1.0000
  C   C3081     1.0  0.51706  0.32897  0.98184  1.0000
  C   C3082     1.0  0.93844  0.37981  0.71528  1.0000
  H   H3664     1.0  0.69218  0.24794  0.97785  1.0000
  C   C3083     1.0  0.83806  0.39009  0.87233  1.0000
  H   H3665     1.0  0.75219  0.38875  0.94797  1.0000
  C   C3084     1.0  0.81365  0.38955  0.98091  1.0000
  H   H3666     1.0  0.59671  0.26822  0.97554  1.0000
  H   H3667     1.0  0.99677  0.28331  0.72390  1.0000
  C   C3085     1.0  0.00046  0.31420  0.51282  1.0000
  C   C3086     1.0  0.73125  0.37609  0.96604  1.0000
  H   H3668     1.0  0.72951  0.36783  0.94868  1.0000
  H   H3669     1.0  0.50848  0.21390  0.84840  1.0000
  H   H3670     1.0  0.00202  0.27218  0.57766  1.0000
  C   C3087     1.0  0.93555  0.38296  0.69066  1.0000
  Fe  Fe409     1.0  0.81779  0.38746  0.93093  1.0000
  C   C3088     1.0  0.83160  0.38583  0.95907  1.0000
  H   H3671     1.0  0.98676  0.35270  0.76463  1.0000
  H   H3672     1.0  0.99507  0.31098  0.75700  1.0000
  C   C3089     1.0  0.94297  0.37499  0.73930  1.0000
  H   H3673     1.0  0.56413  0.20605  0.94392  1.0000
  H   H3674     1.0  0.96459  0.37450  0.74049  1.0000
  H   H3675     1.0  0.72726  0.38597  0.98427  1.0000
  C   C3090     1.0  0.70887  0.37925  0.95806  1.0000
  C   C3091     1.0  0.72272  0.38399  0.97657  1.0000
  H   H3676     1.0  0.95840  0.19855  0.58690  1.0000
  H   H3677     1.0  0.95756  0.38428  0.69839  1.0000
  H   H3678     1.0  0.55844  0.28596  0.97021  1.0000
  C   C3092     1.0  0.69944  0.25318  0.97985  1.0000
  H   H3679     1.0  0.98475  0.39006  0.54186  1.0000
  C   C3093     1.0  0.87357  0.39020  0.93227  1.0000
  Fe  Fe410     1.0  0.59119  0.32711  0.98532  1.0000
  C   C3094     1.0  0.53822  0.28503  0.98502  1.0000
  S   S825      1.0  0.54154  0.36016  0.98510  1.0000
  C   C3095     1.0  0.53156  0.34802  0.98515  1.0000
  C   C3096     1.0  0.53045  0.32382  0.98587  1.0000
  H   H3680     1.0  0.68928  0.39112  0.96932  1.0000
  S   S826      1.0  0.78733  0.39086  0.91189  1.0000
  C   C3097     1.0  0.84388  0.39057  0.85773  1.0000
  C   C3098     1.0  0.86591  0.39108  0.91111  1.0000
  H   H3681     1.0  0.74835  0.36844  0.98612  1.0000
  Fe  Fe411     1.0  0.74471  0.55066  0.08831  1.0000
  S   S827      1.0  0.72025  0.55649  0.09455  1.0000
  S   S828      1.0  0.75963  0.53171  0.09971  1.0000
  Fe  Fe412     1.0  0.72073  0.55763  0.07177  1.0000
  S   S829      1.0  0.70366  0.55111  0.06552  1.0000
  S   S830      1.0  0.74491  0.54974  0.06604  1.0000
  Fe  Fe413     1.0  0.70859  0.49266  0.03401  1.0000
  S   S831      1.0  0.69891  0.51461  0.02267  1.0000
  S   S832      1.0  0.72112  0.49062  0.05039  1.0000
  Fe  Fe414     1.0  0.69807  0.47807  0.01715  1.0000
  H   H3682     1.0  0.98409  0.40286  0.05965  1.0000
  H   H3683     1.0  0.97523  0.43744  0.03347  1.0000
  C   C3099     1.0  0.77156  0.57150  0.99273  1.0000
  Fe  Fe415     1.0  0.67964  0.50545  0.02566  1.0000
  S   S833      1.0  0.65684  0.51574  0.03524  1.0000
  H   H3684     1.0  0.56990  0.56300  0.00527  1.0000
  S   S834      1.0  0.68874  0.48392  0.03845  1.0000
  C   C3100     1.0  0.94544  0.41587  0.33206  1.0000
  S   S835      1.0  0.63903  0.41210  0.01132  1.0000
  S   S836      1.0  0.87030  0.41769  0.20791  1.0000
  S   S837      1.0  0.65423  0.41100  0.03727  1.0000
  Fe  Fe416     1.0  0.63652  0.42555  0.02673  1.0000
  S   S838      1.0  0.63526  0.44924  0.01980  1.0000
  H   H3685     1.0  0.88274  0.39309  0.09375  1.0000
  S   S839      1.0  0.61883  0.41620  0.04312  1.0000
  H   H3686     1.0  0.62074  0.54752  0.99400  1.0000
  S   S840      1.0  0.96670  0.53282  0.32455  1.0000
  C   C3101     1.0  0.98876  0.39460  0.32083  1.0000
  C   C3102     1.0  0.00085  0.45705  0.37166  1.0000
  Fe  Fe417     1.0  0.97518  0.41792  0.37070  1.0000
  S   S841      1.0  0.96338  0.43928  0.35988  1.0000
  S   S842      1.0  0.96563  0.40853  0.39352  1.0000
  Fe  Fe418     1.0  0.96779  0.42876  0.34159  1.0000
  S   S843      1.0  0.95308  0.43093  0.32717  1.0000
  C   C3103     1.0  0.99652  0.40219  0.40971  1.0000
  H   H3687     1.0  0.58808  0.57543  0.99125  1.0000
  C   C3104     1.0  0.97705  0.52819  0.16802  1.0000
  C   C3105     1.0  0.59477  0.42416  0.98969  1.0000
  H   H3688     1.0  0.00200  0.58280  0.36416  1.0000
  H   H3689     1.0  0.98177  0.58281  0.45018  1.0000
  C   C3106     1.0  0.99076  0.56679  0.46692  1.0000
  Fe  Fe419     1.0  0.82196  0.51774  0.13760  1.0000
  S   S844      1.0  0.84403  0.51938  0.13885  1.0000
  S   S845      1.0  0.80416  0.53727  0.13226  1.0000
  Fe  Fe420     1.0  0.82869  0.48524  0.14709  1.0000
  S   S846      1.0  0.85089  0.48413  0.14975  1.0000
  S   S847      1.0  0.82019  0.46508  0.15289  1.0000
  Fe  Fe421     1.0  0.84080  0.50315  0.15969  1.0000
  S   S848      1.0  0.84519  0.50162  0.18127  1.0000
  Fe  Fe422     1.0  0.85235  0.50021  0.12888  1.0000
  S   S849      1.0  0.87238  0.49598  0.11173  1.0000
  S   S850      1.0  0.81817  0.50279  0.15913  1.0000
  S   S851      1.0  0.83074  0.50018  0.12555  1.0000
  Fe  Fe423     1.0  0.81432  0.41450  0.11179  1.0000
  S   S852      1.0  0.81625  0.43767  0.10452  1.0000
  H   H3690     1.0  0.69393  0.51153  0.05296  1.0000
  Fe  Fe424     1.0  0.90832  0.40398  0.18515  1.0000
  S   S853      1.0  0.90605  0.41074  0.20529  1.0000
  H   H3691     1.0  0.53553  0.57205  0.03908  1.0000
  Fe  Fe425     1.0  0.88866  0.42904  0.19784  1.0000
  S   S854      1.0  0.88731  0.45230  0.19603  1.0000
  S   S855      1.0  0.89263  0.42333  0.17693  1.0000
  Fe  Fe426     1.0  0.92506  0.50522  0.22395  1.0000
  S   S856      1.0  0.91677  0.49774  0.24731  1.0000
  S   S857      1.0  0.94854  0.49723  0.21450  1.0000
  Fe  Fe427     1.0  0.89490  0.52073  0.21842  1.0000
  S   S858      1.0  0.88424  0.51470  0.24178  1.0000
  S   S859      1.0  0.88403  0.53188  0.19960  1.0000
  Fe  Fe428     1.0  0.90336  0.52028  0.24590  1.0000
  S   S860      1.0  0.90234  0.53071  0.26386  1.0000
  Fe  Fe429     1.0  0.89889  0.49288  0.24096  1.0000
  S   S861      1.0  0.89382  0.47081  0.24890  1.0000
  S   S862      1.0  0.91282  0.52809  0.22258  1.0000
  S   S863      1.0  0.90837  0.49873  0.21759  1.0000
  Fe  Fe430     1.0  0.97502  0.45250  0.14956  1.0000
  S   S864      1.0  0.95556  0.46840  0.14311  1.0000
  S   S865      1.0  0.97206  0.43495  0.16912  1.0000
  H   H3692     1.0  0.61555  0.45585  0.98652  1.0000
  S   S866      1.0  0.97887  0.48592  0.11874  1.0000
  H   H3693     1.0  0.58404  0.56095  0.02997  1.0000
  Fe  Fe431     1.0  0.96747  0.48500  0.14162  1.0000
  S   S867      1.0  0.95404  0.50494  0.14885  1.0000
  Fe  Fe432     1.0  0.96830  0.46804  0.12077  1.0000
  S   S868      1.0  0.95560  0.47054  0.10447  1.0000
  S   S869      1.0  0.98581  0.46913  0.15033  1.0000
  S   S870      1.0  0.98694  0.45043  0.12728  1.0000
  Fe  Fe433     1.0  0.91738  0.42077  0.06180  1.0000
  H   H3694     1.0  0.98976  0.42273  0.03829  1.0000
  S   S871      1.0  0.91957  0.42846  0.03805  1.0000
  Fe  Fe434     1.0  0.89780  0.42415  0.09075  1.0000
  S   S872      1.0  0.91123  0.40485  0.10252  1.0000
  S   S873      1.0  0.87703  0.43414  0.10394  1.0000
  Fe  Fe435     1.0  0.93004  0.41363  0.08779  1.0000
  S   S874      1.0  0.94819  0.41220  0.09788  1.0000
  N   N204      1.0  0.96974  0.42348  0.05422  1.0000
  H   H3695     1.0  0.77130  0.48197  0.09878  1.0000
  S   S875      1.0  0.91648  0.43387  0.07710  1.0000
  S   S876      1.0  0.89719  0.41319  0.07450  1.0000
  H   H3696     1.0  0.97498  0.46561  0.06211  1.0000
  C   C3107     1.0  0.90775  0.42060  0.03397  1.0000
  C   C3108     1.0  0.90501  0.40745  0.04248  1.0000
  C   C3109     1.0  0.74678  0.51559  0.00247  1.0000
  C   C3110     1.0  0.88494  0.41023  0.03164  1.0000
  C   C3111     1.0  0.88829  0.42290  0.02235  1.0000
  C   C3112     1.0  0.89971  0.42811  0.02352  1.0000
  H   H3697     1.0  0.97992  0.41107  0.42546  1.0000
  H   H3698     1.0  0.83168  0.56152  0.17280  1.0000
  H   H3699     1.0  0.83117  0.40946  0.14353  1.0000
  H   H3700     1.0  0.90176  0.43830  0.01690  1.0000
  C   C3113     1.0  0.95280  0.45437  0.10340  1.0000
  C   C3114     1.0  0.95813  0.44142  0.11223  1.0000
  C   C3115     1.0  0.95657  0.42848  0.11054  1.0000
  C   C3116     1.0  0.94953  0.42852  0.10017  1.0000
  C   C3117     1.0  0.94390  0.44153  0.09161  1.0000
  C   C3118     1.0  0.94551  0.45444  0.09324  1.0000
  H   H3701     1.0  0.96371  0.44133  0.12013  1.0000
  H   H3702     1.0  0.96096  0.41843  0.11719  1.0000
  H   H3703     1.0  0.93867  0.44169  0.08346  1.0000
  H   H3704     1.0  0.94145  0.46446  0.08635  1.0000
  C   C3119     1.0  0.95044  0.50003  0.19614  1.0000
  C   C3120     1.0  0.93921  0.50896  0.18965  1.0000
  C   C3121     1.0  0.94055  0.51078  0.17498  1.0000
  C   C3122     1.0  0.95297  0.50342  0.16690  1.0000
  C   C3123     1.0  0.96430  0.49471  0.17335  1.0000
  C   C3124     1.0  0.96309  0.49309  0.18797  1.0000
  H   H3705     1.0  0.92949  0.51454  0.19588  1.0000
  H   H3706     1.0  0.93183  0.51768  0.16997  1.0000
  H   H3707     1.0  0.97403  0.48936  0.16705  1.0000
  H   H3708     1.0  0.97179  0.48627  0.19301  1.0000
  C   C3125     1.0  0.94127  0.40828  0.16940  1.0000
  C   C3126     1.0  0.94229  0.41071  0.18212  1.0000
  C   C3127     1.0  0.95202  0.41867  0.18191  1.0000
  C   C3128     1.0  0.96030  0.42477  0.16893  1.0000
  C   C3129     1.0  0.95908  0.42267  0.15612  1.0000
  C   C3130     1.0  0.94980  0.41411  0.15639  1.0000
  H   H3709     1.0  0.96558  0.42728  0.14607  1.0000
  H   H3710     1.0  0.78673  0.39520  0.07740  1.0000
  C   C3131     1.0  0.88846  0.45690  0.21127  1.0000
  C   C3132     1.0  0.89220  0.44648  0.22317  1.0000
  C   C3133     1.0  0.89358  0.45068  0.23494  1.0000
  C   C3134     1.0  0.89111  0.46529  0.23481  1.0000
  C   C3135     1.0  0.88682  0.47557  0.22314  1.0000
  C   C3136     1.0  0.88569  0.47142  0.21134  1.0000
  H   H3711     1.0  0.89423  0.43523  0.22323  1.0000
  H   H3712     1.0  0.89678  0.44264  0.24398  1.0000
  H   H3713     1.0  0.88429  0.48678  0.22327  1.0000
  H   H3714     1.0  0.88257  0.47949  0.20227  1.0000
  C   C3137     1.0  0.80023  0.40219  0.04156  1.0000
  C   C3138     1.0  0.70328  0.39391  0.02780  1.0000
  H   H3715     1.0  0.96794  0.45249  0.04886  1.0000
  C   C3139     1.0  0.97669  0.45402  0.06534  1.0000
  H   H3716     1.0  0.93136  0.46622  0.17479  1.0000
  N   N205      1.0  0.00197  0.54666  0.48561  1.0000
  S   S877      1.0  0.83745  0.42225  0.01277  1.0000
  C   C3140     1.0  0.85679  0.50975  0.18560  1.0000
  C   C3141     1.0  0.85957  0.50510  0.19938  1.0000
  C   C3142     1.0  0.86819  0.51157  0.20361  1.0000
  C   C3143     1.0  0.87408  0.52284  0.19413  1.0000
  C   C3144     1.0  0.87135  0.52750  0.18029  1.0000
  C   C3145     1.0  0.86282  0.52093  0.17599  1.0000
  H   H3717     1.0  0.85490  0.49653  0.20694  1.0000
  H   H3718     1.0  0.86983  0.50820  0.21440  1.0000
  H   H3719     1.0  0.87578  0.53629  0.17290  1.0000
  H   H3720     1.0  0.86080  0.52464  0.16533  1.0000
  C   C3146     1.0  0.82041  0.45703  0.13920  1.0000
  C   C3147     1.0  0.82450  0.46352  0.12474  1.0000
  C   C3148     1.0  0.82360  0.45731  0.11411  1.0000
  C   C3149     1.0  0.81859  0.44459  0.11789  1.0000
  C   C3150     1.0  0.81472  0.43801  0.13232  1.0000
  C   C3151     1.0  0.81561  0.44422  0.14293  1.0000
  H   H3721     1.0  0.82825  0.47336  0.12171  1.0000
  H   H3722     1.0  0.82662  0.46247  0.10297  1.0000
  H   H3723     1.0  0.81076  0.42826  0.13536  1.0000
  H   H3724     1.0  0.81245  0.43909  0.15407  1.0000
  C   C3152     1.0  0.87338  0.47923  0.10858  1.0000
  C   C3153     1.0  0.88462  0.47357  0.09812  1.0000
  C   C3154     1.0  0.88560  0.45987  0.09620  1.0000
  C   C3155     1.0  0.87545  0.45180  0.10487  1.0000
  C   C3156     1.0  0.86405  0.45764  0.11499  1.0000
  C   C3157     1.0  0.86300  0.47130  0.11681  1.0000
  H   H3725     1.0  0.89260  0.47971  0.09160  1.0000
  H   H3726     1.0  0.89426  0.45553  0.08815  1.0000
  H   H3727     1.0  0.85611  0.45149  0.12165  1.0000
  H   H3728     1.0  0.85414  0.47554  0.12471  1.0000
  Fe  Fe436     1.0  0.87540  0.41065  0.18718  1.0000
  H   H3729     1.0  0.98539  0.45283  0.08320  1.0000
  H   H3730     1.0  0.66434  0.57179  0.05929  1.0000
  H   H3731     1.0  0.73346  0.46167  0.99692  1.0000
  C   C3158     1.0  0.88787  0.44092  0.28372  1.0000
  H   H3732     1.0  0.88090  0.44250  0.29431  1.0000
  H   H3733     1.0  0.99865  0.56677  0.30995  1.0000
  H   H3734     1.0  0.57279  0.54831  0.01984  1.0000
  C   C3159     1.0  0.84219  0.54484  0.20385  1.0000
  C   C3160     1.0  0.99427  0.54744  0.45014  1.0000
  C   C3161     1.0  0.98475  0.52973  0.32574  1.0000
  C   C3162     1.0  0.99417  0.53750  0.31524  1.0000
  C   C3163     1.0  0.91441  0.46579  0.28916  1.0000
  H   H3735     1.0  0.78238  0.49198  0.10168  1.0000
  H   H3736     1.0  0.98552  0.48798  0.32312  1.0000
  C   C3164     1.0  0.98952  0.52031  0.33764  1.0000
  C   C3165     1.0  0.84401  0.41272  0.15609  1.0000
  S   S878      1.0  0.99089  0.46500  0.34678  1.0000
  H   H3737     1.0  0.74576  0.44781  0.98848  1.0000
  H   H3738     1.0  0.98233  0.51414  0.34572  1.0000
  H   H3739     1.0  0.91445  0.47685  0.28359  1.0000
  C   C3166     1.0  0.92397  0.54633  0.25140  1.0000
  C   C3167     1.0  0.91432  0.54116  0.26385  1.0000
  H   H3740     1.0  0.71067  0.39666  0.05773  1.0000
  H   H3741     1.0  0.92420  0.54398  0.24143  1.0000
  C   C3168     1.0  0.91951  0.46016  0.30170  1.0000
  H   H3742     1.0  0.99690  0.46891  0.18981  1.0000
  C   C3169     1.0  0.64911  0.53318  0.02709  1.0000
  C   C3170     1.0  0.65546  0.54003  0.01340  1.0000
  C   C3171     1.0  0.99726  0.55212  0.47185  1.0000
  C   C3172     1.0  0.63531  0.56092  0.01469  1.0000
  C   C3173     1.0  0.62911  0.55398  0.02834  1.0000
  C   C3174     1.0  0.63595  0.54020  0.03451  1.0000
  C   C3175     1.0  0.59843  0.43352  0.01434  1.0000
  H   H3743     1.0  0.92559  0.41576  0.22389  1.0000
  H   H3744     1.0  0.61892  0.55900  0.03415  1.0000
  H   H3745     1.0  0.63092  0.53485  0.04503  1.0000
  C   C3176     1.0  0.68096  0.45618  0.01258  1.0000
  C   C3177     1.0  0.67900  0.44451  0.00876  1.0000
  H   H3746     1.0  0.72657  0.44826  0.99398  1.0000
  C   C3178     1.0  0.65280  0.45230  0.01628  1.0000
  C   C3179     1.0  0.65474  0.46435  0.01945  1.0000
  C   C3180     1.0  0.66881  0.46620  0.01776  1.0000
  C   C3181     1.0  0.98752  0.40129  0.42341  1.0000
  C   C3182     1.0  0.62363  0.51885  0.02154  1.0000
  H   H3747     1.0  0.64538  0.47197  0.02370  1.0000
  H   H3748     1.0  0.67022  0.47522  0.02078  1.0000
  S   S879      1.0  0.74702  0.57348  0.08224  1.0000
  C   C3183     1.0  0.77230  0.53400  0.10795  1.0000
  C   C3184     1.0  0.77051  0.54654  0.11253  1.0000
  C   C3185     1.0  0.78037  0.54750  0.11989  1.0000
  C   C3186     1.0  0.79204  0.53593  0.12276  1.0000
  C   C3187     1.0  0.79394  0.52356  0.11791  1.0000
  C   C3188     1.0  0.78420  0.52265  0.11046  1.0000
  H   H3749     1.0  0.76132  0.55534  0.11074  1.0000
  H   H3750     1.0  0.77880  0.55715  0.12358  1.0000
  H   H3751     1.0  0.80281  0.51457  0.12000  1.0000
  H   H3752     1.0  0.78574  0.51295  0.10692  1.0000
  C   C3189     1.0  0.71526  0.50611  0.05738  1.0000
  C   C3190     1.0  0.72478  0.51036  0.06265  1.0000
  C   C3191     1.0  0.72096  0.52389  0.06605  1.0000
  C   C3192     1.0  0.70762  0.53313  0.06421  1.0000
  C   C3193     1.0  0.69773  0.52843  0.05993  1.0000
  C   C3194     1.0  0.70155  0.51498  0.05649  1.0000
  H   H3753     1.0  0.73535  0.50347  0.06348  1.0000
  H   H3754     1.0  0.72855  0.52733  0.06961  1.0000
  H   H3755     1.0  0.68729  0.53537  0.05876  1.0000
  C   C3195     1.0  0.91205  0.43293  0.27028  1.0000
  C   C3196     1.0  0.93825  0.39532  0.34975  1.0000
  C   C3197     1.0  0.64850  0.55389  0.00716  1.0000
  H   H3756     1.0  0.88844  0.49218  0.13897  1.0000
  Fe  Fe437     1.0  0.63688  0.40021  0.05220  1.0000
  N   N206      1.0  0.98364  0.55735  0.35902  1.0000
  C   C3198     1.0  0.74227  0.54132  0.99975  1.0000
  H   H3757     1.0  0.65340  0.55917  0.99656  1.0000
  H   H3758     1.0  0.90620  0.47857  0.12399  1.0000
  C   C3199     1.0  0.60280  0.54387  0.01269  1.0000
  H   H3759     1.0  0.84518  0.39276  0.03302  1.0000
  H   H3760     1.0  0.98882  0.42652  0.09114  1.0000
  C   C3200     1.0  0.85333  0.42468  0.08870  1.0000
  C   C3201     1.0  0.93057  0.45737  0.18452  1.0000
  H   H3761     1.0  0.73866  0.50366  0.02343  1.0000
  S   S880      1.0  0.83310  0.39801  0.11914  1.0000
  H   H3762     1.0  0.88311  0.43441  0.27962  1.0000
  H   H3763     1.0  0.98036  0.53984  0.37748  1.0000
  C   C3202     1.0  0.92011  0.44988  0.15388  1.0000
  H   H3764     1.0  0.96503  0.54797  0.36922  1.0000
  Fe  Fe438     1.0  0.74564  0.57293  0.06037  1.0000
  H   H3765     1.0  0.72482  0.56846  0.00139  1.0000
  C   C3203     1.0  0.99777  0.52928  0.17569  1.0000
  C   C3204     1.0  0.84590  0.39530  0.17827  1.0000
  N   N207      1.0  0.77170  0.47928  0.12087  1.0000
  C   C3205     1.0  0.75770  0.47463  0.12643  1.0000
  C   C3206     1.0  0.77208  0.48813  0.10613  1.0000
  C   C3207     1.0  0.78354  0.46619  0.11996  1.0000
  C   C3208     1.0  0.77300  0.48786  0.13017  1.0000
  C   C3209     1.0  0.78447  0.48385  0.13753  1.0000
  C   C3210     1.0  0.76258  0.50076  0.13204  1.0000
  C   C3211     1.0  0.78550  0.49238  0.14597  1.0000
  C   C3212     1.0  0.76370  0.50919  0.14053  1.0000
  C   C3213     1.0  0.77519  0.50505  0.14742  1.0000
  H   H3766     1.0  0.74817  0.48385  0.12611  1.0000
  C   C3214     1.0  0.52936  0.58407  0.01929  1.0000
  H   H3767     1.0  0.75679  0.46845  0.13771  1.0000
  H   H3768     1.0  0.58913  0.53610  0.03332  1.0000
  C   C3215     1.0  0.97779  0.42599  0.03908  1.0000
  H   H3769     1.0  0.76300  0.49779  0.10560  1.0000
  S   S881      1.0  0.99744  0.42286  0.36297  1.0000
  C   C3216     1.0  0.66674  0.55775  0.08881  1.0000
  H   H3770     1.0  0.00150  0.48720  0.16041  1.0000
  H   H3771     1.0  0.60993  0.45650  0.00503  1.0000
  H   H3772     1.0  0.75367  0.50468  0.12661  1.0000
  C   C3217     1.0  0.79460  0.39520  0.06727  1.0000
  H   H3773     1.0  0.75589  0.51925  0.14134  1.0000
  H   H3774     1.0  0.77627  0.51182  0.15366  1.0000
  C   C3218     1.0  0.83917  0.43824  0.07116  1.0000
  H   H3775     1.0  0.96870  0.40219  0.05385  1.0000
  H   H3776     1.0  0.88164  0.42907  0.01478  1.0000
  H   H3777     1.0  0.91153  0.40129  0.05018  1.0000
  C   C3219     1.0  0.88837  0.49447  0.15949  1.0000
  C   C3220     1.0  0.59956  0.53412  0.02599  1.0000
  H   H3778     1.0  0.80065  0.45640  0.99634  1.0000
  C   C3221     1.0  0.58865  0.56623  0.01885  1.0000
  C   C3222     1.0  0.97712  0.54483  0.36709  1.0000
  H   H3779     1.0  0.92784  0.49975  0.14450  1.0000
  H   H3780     1.0  0.80030  0.53033  0.19448  1.0000
  H   H3781     1.0  0.58902  0.42840  0.01704  1.0000
  H   H3782     1.0  0.98863  0.59112  0.42305  1.0000
  H   H3783     1.0  0.92390  0.47286  0.12819  1.0000
  H   H3784     1.0  0.79436  0.46897  0.11540  1.0000
  H   H3785     1.0  0.93590  0.40611  0.19218  1.0000
  H   H3786     1.0  0.98597  0.57014  0.33742  1.0000
  S   S882      1.0  0.86968  0.42588  0.99155  1.0000
  C   C3223     1.0  0.83164  0.39305  0.16281  1.0000
  C   C3224     1.0  0.97263  0.44640  0.05790  1.0000
  C   C3225     1.0  0.98046  0.42426  0.07435  1.0000
  H   H3787     1.0  0.79287  0.47421  0.13691  1.0000
  H   H3788     1.0  0.60634  0.56983  0.99342  1.0000
  H   H3789     1.0  0.99550  0.41229  0.40186  1.0000
  H   H3790     1.0  0.86432  0.41914  0.09074  1.0000
  H   H3791     1.0  0.83923  0.44308  0.05966  1.0000
  C   C3226     1.0  0.90713  0.45823  0.15998  1.0000
  N   N208      1.0  0.90701  0.43225  0.13210  1.0000
  C   C3227     1.0  0.89292  0.42791  0.13529  1.0000
  C   C3228     1.0  0.90963  0.44084  0.11731  1.0000
  C   C3229     1.0  0.91862  0.41889  0.13309  1.0000
  C   C3230     1.0  0.90700  0.44112  0.14172  1.0000
  C   C3231     1.0  0.89408  0.45041  0.14746  1.0000
  C   C3232     1.0  0.92013  0.44163  0.14468  1.0000
  H   H3792     1.0  0.88397  0.43702  0.13224  1.0000
  H   H3793     1.0  0.89344  0.42005  0.12907  1.0000
  H   H3794     1.0  0.88955  0.42295  0.14683  1.0000
  H   H3795     1.0  0.92035  0.44381  0.11422  1.0000
  H   H3796     1.0  0.90128  0.45103  0.11618  1.0000
  H   H3797     1.0  0.90938  0.43492  0.10952  1.0000
  H   H3798     1.0  0.92969  0.42091  0.12809  1.0000
  H   H3799     1.0  0.91838  0.41317  0.14442  1.0000
  H   H3800     1.0  0.91757  0.41135  0.12730  1.0000
  H   H3801     1.0  0.88372  0.45130  0.14518  1.0000
  H   H3802     1.0  0.93057  0.43567  0.14001  1.0000
  C   C3233     1.0  0.57814  0.55330  0.00890  1.0000
  C   C3234     1.0  0.70540  0.39994  0.04884  1.0000
  S   S883      1.0  0.97768  0.40703  0.35315  1.0000
  H   H3803     1.0  0.66558  0.53457  0.00758  1.0000
  C   C3235     1.0  0.91402  0.54449  0.27670  1.0000
  H   H3804     1.0  0.94270  0.41799  0.31090  1.0000
  H   H3805     1.0  0.80120  0.52897  0.17678  1.0000
  H   H3806     1.0  0.85227  0.41077  0.07051  1.0000
  H   H3807     1.0  0.72396  0.57600  0.01576  1.0000
  H   H3808     1.0  0.99879  0.52635  0.15494  1.0000
  H   H3809     1.0  0.93410  0.41798  0.24402  1.0000
  S   S884      1.0  0.98906  0.43505  0.33137  1.0000
  H   H3810     1.0  0.68494  0.59123  0.08750  1.0000
  H   H3811     1.0  0.98661  0.49168  0.30423  1.0000
  H   H3812     1.0  0.98351  0.55631  0.38676  1.0000
  Fe  Fe439     1.0  0.91240  0.39464  0.08498  1.0000
  H   H3813     1.0  0.75100  0.50621  0.99791  1.0000
  H   H3814     1.0  0.93025  0.44969  0.15629  1.0000
  C   C3236     1.0  0.77441  0.55722  0.99189  1.0000
  N   N209      1.0  0.59183  0.55703  0.00857  1.0000
  H   H3815     1.0  0.99583  0.54000  0.44347  1.0000
  C   C3237     1.0  0.91684  0.49816  0.14815  1.0000
  C   C3238     1.0  0.86338  0.44152  0.06792  1.0000
  C   C3239     1.0  0.87520  0.44096  0.05584  1.0000
  C   C3240     1.0  0.86045  0.45316  0.07461  1.0000
  C   C3241     1.0  0.88379  0.45115  0.05113  1.0000
  C   C3242     1.0  0.86909  0.46329  0.06980  1.0000
  C   C3243     1.0  0.88082  0.46222  0.05815  1.0000
  H   H3816     1.0  0.84867  0.43280  0.09537  1.0000
  H   H3817     1.0  0.83422  0.44697  0.07709  1.0000
  H   H3818     1.0  0.87821  0.43262  0.04997  1.0000
  H   H3819     1.0  0.85156  0.45439  0.08378  1.0000
  H   H3820     1.0  0.89292  0.45034  0.04205  1.0000
  H   H3821     1.0  0.86682  0.47184  0.07535  1.0000
  H   H3822     1.0  0.88765  0.46994  0.05458  1.0000
  N   N210      1.0  0.79495  0.55655  0.06668  1.0000
  C   C3244     1.0  0.80146  0.56360  0.05197  1.0000
  C   C3245     1.0  0.78469  0.54856  0.06586  1.0000
  C   C3246     1.0  0.78632  0.56809  0.07434  1.0000
  C   C3247     1.0  0.80652  0.54647  0.07365  1.0000
  C   C3248     1.0  0.80905  0.54772  0.08651  1.0000
  C   C3249     1.0  0.81565  0.53482  0.06762  1.0000
  C   C3250     1.0  0.82009  0.53796  0.09277  1.0000
  C   C3251     1.0  0.82657  0.52506  0.07405  1.0000
  C   C3252     1.0  0.82878  0.52663  0.08661  1.0000
  H   H3823     1.0  0.80702  0.55583  0.04502  1.0000
  H   H3824     1.0  0.79301  0.57154  0.04658  1.0000
  H   H3825     1.0  0.80955  0.56940  0.05210  1.0000
  H   H3826     1.0  0.78984  0.54078  0.05887  1.0000
  H   H3827     1.0  0.96351  0.39921  0.46289  1.0000
  Fe  Fe440     1.0  0.62281  0.40131  0.02863  1.0000
  H   H3828     1.0  0.79329  0.57474  0.07517  1.0000
  H   H3829     1.0  0.98068  0.53612  0.36108  1.0000
  H   H3830     1.0  0.78043  0.56360  0.08526  1.0000
  H   H3831     1.0  0.80250  0.55597  0.09215  1.0000
  H   H3832     1.0  0.81431  0.53310  0.05793  1.0000
  H   H3833     1.0  0.82170  0.53902  0.10268  1.0000
  H   H3834     1.0  0.83332  0.51616  0.06933  1.0000
  H   H3835     1.0  0.83717  0.51899  0.09167  1.0000
  S   S885      1.0  0.86939  0.40453  0.03222  1.0000
  C   C3253     1.0  0.73476  0.45505  0.98918  1.0000
  H   H3836     1.0  0.73701  0.58468  0.03015  1.0000
  S   S886      1.0  0.93269  0.40137  0.07123  1.0000
  C   C3254     1.0  0.72965  0.56673  0.01068  1.0000
  H   H3837     1.0  0.67480  0.54771  0.09018  1.0000
  H   H3838     1.0  0.60725  0.51465  0.04062  1.0000
  C   C3255     1.0  0.99982  0.46705  0.35874  1.0000
  S   S887      1.0  0.96812  0.57231  0.31383  1.0000
  H   H3839     1.0  0.99680  0.40060  0.31309  1.0000
  S   S888      1.0  0.93985  0.56642  0.30677  1.0000
  H   H3840     1.0  0.87729  0.49309  0.16396  1.0000
  C   C3256     1.0  0.60984  0.52182  0.03031  1.0000
  H   H3841     1.0  0.93228  0.41656  0.99741  1.0000
  C   C3257     1.0  0.92953  0.43611  0.21064  1.0000
  H   H3842     1.0  0.68726  0.40861  0.01678  1.0000
  Fe  Fe441     1.0  0.96217  0.55417  0.30959  1.0000
  C   C3258     1.0  0.73418  0.55169  0.03299  1.0000
  C   C3259     1.0  0.90927  0.49599  0.13902  1.0000
  C   C3260     1.0  0.53764  0.58043  0.02966  1.0000
  C   C3261     1.0  0.89604  0.49676  0.16808  1.0000
  C   C3262     1.0  0.70245  0.56275  0.98904  1.0000
  C   C3263     1.0  0.73484  0.54025  0.01433  1.0000
  H   H3843     1.0  0.63074  0.57039  0.08918  1.0000
  H   H3844     1.0  0.98631  0.39808  0.29348  1.0000
  H   H3845     1.0  0.69161  0.53150  0.99655  1.0000
  C   C3264     1.0  0.66494  0.44244  0.01082  1.0000
  C   C3265     1.0  0.97876  0.56679  0.38111  1.0000
  Fe  Fe442     1.0  0.99635  0.46848  0.12748  1.0000
  H   H3846     1.0  0.89903  0.41287  0.28865  1.0000
  Fe  Fe443     1.0  0.65536  0.39664  0.02328  1.0000
  H   H3847     1.0  0.66780  0.55544  0.05352  1.0000
  H   H3848     1.0  0.92357  0.46678  0.30590  1.0000
  H   H3849     1.0  0.68322  0.55550  0.00212  1.0000
  C   C3266     1.0  0.69247  0.40628  0.02564  1.0000
  H   H3850     1.0  0.98912  0.57488  0.47278  1.0000
  S   S889      1.0  0.92935  0.39796  0.16981  1.0000
  C   C3267     1.0  0.84098  0.55470  0.19100  1.0000
  C   C3268     1.0  0.66072  0.58411  0.08379  1.0000
  S   S890      1.0  0.68718  0.49878  0.00467  1.0000
  H   H3851     1.0  0.59874  0.56914  0.01893  1.0000
  C   C3269     1.0  0.98070  0.56133  0.34448  1.0000
  H   H3852     1.0  0.66350  0.43317  0.00827  1.0000
  H   H3853     1.0  0.96216  0.40593  0.44472  1.0000
  Fe  Fe444     1.0  0.70747  0.50573  0.00288  1.0000
  H   H3854     1.0  0.63810  0.52601  0.00190  1.0000
  H   H3855     1.0  0.77223  0.54901  0.00149  1.0000
  H   H3856     1.0  0.80520  0.43010  0.99922  1.0000
  N   N211      1.0  0.84012  0.45316  0.19022  1.0000
  C   C3270     1.0  0.83341  0.44212  0.18888  1.0000
  C   C3271     1.0  0.83056  0.46737  0.18607  1.0000
  C   C3272     1.0  0.85439  0.45237  0.17989  1.0000
  C   C3273     1.0  0.84215  0.45139  0.20477  1.0000
  C   C3274     1.0  0.84882  0.46091  0.20758  1.0000
  C   C3275     1.0  0.83757  0.44043  0.21651  1.0000
  C   C3276     1.0  0.85105  0.45936  0.22117  1.0000
  C   C3277     1.0  0.83997  0.43893  0.23004  1.0000
  C   C3278     1.0  0.84676  0.44833  0.23234  1.0000
  H   H3857     1.0  0.82222  0.44261  0.19564  1.0000
  H   H3858     1.0  0.83243  0.44356  0.17768  1.0000
  H   H3859     1.0  0.84014  0.43112  0.19171  1.0000
  H   H3860     1.0  0.81982  0.46849  0.19373  1.0000
  H   H3861     1.0  0.82855  0.46903  0.17529  1.0000
  H   H3862     1.0  0.83537  0.47632  0.18566  1.0000
  H   H3863     1.0  0.86211  0.44213  0.18311  1.0000
  H   H3864     1.0  0.85336  0.45285  0.16894  1.0000
  H   H3865     1.0  0.85955  0.46125  0.17901  1.0000
  H   H3866     1.0  0.85260  0.46952  0.19922  1.0000
  H   H3867     1.0  0.83241  0.43269  0.21544  1.0000
  H   H3868     1.0  0.85641  0.46663  0.22294  1.0000
  H   H3869     1.0  0.83673  0.43028  0.23876  1.0000
  H   H3870     1.0  0.84880  0.44701  0.24278  1.0000
  H   H3871     1.0  0.74338  0.55147  0.99246  1.0000
  H   H3872     1.0  0.85901  0.42247  0.05431  1.0000
  C   C3279     1.0  0.69844  0.53918  0.99193  1.0000
  H   H3873     1.0  0.93314  0.39593  0.31738  1.0000
  H   H3874     1.0  0.81834  0.53824  0.15680  1.0000
  N   N212      1.0  0.96497  0.49184  0.31725  1.0000
  C   C3280     1.0  0.96638  0.47608  0.32025  1.0000
  C   C3281     1.0  0.97979  0.49443  0.31444  1.0000
  C   C3282     1.0  0.95611  0.49683  0.33034  1.0000
  C   C3283     1.0  0.95814  0.49987  0.30501  1.0000
  C   C3284     1.0  0.95699  0.51489  0.30012  1.0000
  C   C3285     1.0  0.95229  0.49321  0.29774  1.0000
  C   C3286     1.0  0.95068  0.52273  0.28856  1.0000
  C   C3287     1.0  0.94588  0.50119  0.28624  1.0000
  C   C3288     1.0  0.94514  0.51588  0.28163  1.0000
  H   H3875     1.0  0.95560  0.47320  0.32341  1.0000
  H   H3876     1.0  0.97316  0.47153  0.31092  1.0000
  H   H3877     1.0  0.97171  0.47037  0.32936  1.0000
  H   H3878     1.0  0.97963  0.50576  0.31394  1.0000
  H   H3879     1.0  0.95961  0.39731  0.22992  1.0000
  C   C3289     1.0  0.54845  0.58777  0.02799  1.0000
  H   H3880     1.0  0.94487  0.49513  0.33289  1.0000
  H   H3881     1.0  0.96102  0.49107  0.33977  1.0000
  H   H3882     1.0  0.95520  0.50844  0.32926  1.0000
  H   H3883     1.0  0.96092  0.52076  0.30524  1.0000
  H   H3884     1.0  0.95248  0.48188  0.30074  1.0000
  H   H3885     1.0  0.95000  0.53421  0.28502  1.0000
  H   H3886     1.0  0.94138  0.49599  0.28087  1.0000
  H   H3887     1.0  0.94016  0.52201  0.27274  1.0000
  N   N213      1.0  0.93567  0.46000  0.19596  1.0000
  C   C3290     1.0  0.80496  0.43715  0.98876  1.0000
  C   C3291     1.0  0.92683  0.47392  0.19910  1.0000
  C   C3292     1.0  0.95105  0.46123  0.19030  1.0000
  C   C3293     1.0  0.93456  0.44860  0.20923  1.0000
  C   C3294     1.0  0.93902  0.44964  0.22114  1.0000
  C   C3295     1.0  0.83523  0.40543  0.15319  1.0000
  C   C3296     1.0  0.93875  0.43874  0.23355  1.0000
  H   H3888     1.0  0.84618  0.41687  0.09301  1.0000
  H   H3889     1.0  0.93049  0.50960  0.12009  1.0000
  N   N214      1.0  0.85404  0.43093  0.07324  1.0000
  H   H3890     1.0  0.91530  0.47327  0.20407  1.0000
  H   H3891     1.0  0.92700  0.48269  0.18930  1.0000
  H   H3892     1.0  0.93093  0.47743  0.20652  1.0000
  H   H3893     1.0  0.95832  0.45059  0.18940  1.0000
  H   H3894     1.0  0.95271  0.46854  0.17953  1.0000
  H   H3895     1.0  0.95495  0.46551  0.19730  1.0000
  H   H3896     1.0  0.94282  0.45889  0.22090  1.0000
  C   C3297     1.0  0.94142  0.41169  0.32176  1.0000
  H   H3897     1.0  0.94225  0.43981  0.24247  1.0000
  H   H3898     1.0  0.94636  0.41117  0.35419  1.0000
  H   H3899     1.0  0.96924  0.40187  0.30591  1.0000
  C   C3298     1.0  0.83210  0.55371  0.18276  1.0000
  H   H3900     1.0  0.60794  0.42472  0.01643  1.0000
  H   H3901     1.0  0.64913  0.54748  0.09225  1.0000
  H   H3902     1.0  0.83168  0.43070  0.07515  1.0000
  C   C3299     1.0  0.89484  0.49405  0.14518  1.0000
  C   C3300     1.0  0.71205  0.55353  0.02600  1.0000
  C   C3301     1.0  0.91023  0.49862  0.16242  1.0000
  C   C3302     1.0  0.93297  0.55496  0.25178  1.0000
  S   S891      1.0  0.71902  0.48457  0.01390  1.0000
  H   H3903     1.0  0.79448  0.48918  0.15131  1.0000
  H   H3904     1.0  0.93848  0.49064  0.12452  1.0000
  H   H3905     1.0  0.97470  0.57575  0.39948  1.0000
  C   C3303     1.0  0.73393  0.52628  0.02267  1.0000
  H   H3906     1.0  0.91607  0.50071  0.16905  1.0000
  S   S892      1.0  0.60308  0.39635  0.02566  1.0000
  H   H3907     1.0  0.78374  0.45873  0.13060  1.0000
  H   H3908     1.0  0.64711  0.39546  0.09840  1.0000
  S   S893      1.0  0.72145  0.58091  0.06403  1.0000
  C   C3304     1.0  0.99877  0.54259  0.46307  1.0000
  H   H3909     1.0  0.67372  0.56834  0.02183  1.0000
  N   N215      1.0  0.60131  0.44167  0.99932  1.0000
  H   H3910     1.0  0.67882  0.56826  0.04431  1.0000
  C   C3305     1.0  0.84957  0.40760  0.16850  1.0000
  H   H3911     1.0  0.88412  0.46512  0.16146  1.0000
  Fe  Fe445     1.0  0.84612  0.43517  0.99120  1.0000
  C   C3306     1.0  0.89418  0.45861  0.15666  1.0000
  H   H3912     1.0  0.91895  0.45657  0.18810  1.0000
  Fe  Fe446     1.0  0.88816  0.39865  0.21385  1.0000
  C   C3307     1.0  0.89349  0.40242  0.04151  1.0000
  Fe  Fe447     1.0  0.98582  0.44344  0.35081  1.0000
  Fe  Fe448     1.0  0.83817  0.40599  0.00091  1.0000
  S   S894      1.0  0.94380  0.56969  0.26440  1.0000
  N   N216      1.0  0.96434  0.53521  0.20583  1.0000
  C   C3308     1.0  0.96865  0.52303  0.21749  1.0000
  C   C3309     1.0  0.96623  0.54853  0.20825  1.0000
  C   C3310     1.0  0.94856  0.53701  0.20688  1.0000
  C   C3311     1.0  0.97361  0.53245  0.19192  1.0000
  C   C3312     1.0  0.98885  0.53145  0.18889  1.0000
  C   C3313     1.0  0.96800  0.53049  0.18113  1.0000
  S   S895      1.0  0.76273  0.58028  0.04145  1.0000
  H   H3913     1.0  0.91429  0.58566  0.28085  1.0000
  H   H3914     1.0  0.79678  0.40751  0.03161  1.0000
  H   H3915     1.0  0.97995  0.52188  0.21839  1.0000
  H   H3916     1.0  0.96140  0.52425  0.22809  1.0000
  H   H3917     1.0  0.96804  0.51272  0.21568  1.0000
  H   H3918     1.0  0.96383  0.55782  0.19929  1.0000
  H   H3919     1.0  0.97742  0.54765  0.20928  1.0000
  H   H3920     1.0  0.95886  0.55126  0.21832  1.0000
  H   H3921     1.0  0.94608  0.52709  0.20609  1.0000
  H   H3922     1.0  0.94185  0.53928  0.21736  1.0000
  H   H3923     1.0  0.94456  0.54605  0.19842  1.0000
  H   H3924     1.0  0.96360  0.39544  0.20490  1.0000
  H   H3925     1.0  0.95666  0.53066  0.18251  1.0000
  C   C3314     1.0  0.98644  0.57153  0.45388  1.0000
  C   C3315     1.0  0.90916  0.45725  0.28374  1.0000
  H   H3926     1.0  0.68226  0.57001  0.08534  1.0000
  H   H3927     1.0  0.95301  0.42028  0.19181  1.0000
  H   H3928     1.0  0.72837  0.52461  0.03377  1.0000
  H   H3929     1.0  0.97885  0.40278  0.32415  1.0000
  C   C3316     1.0  0.61702  0.54056  0.00404  1.0000
  S   S896      1.0  0.86142  0.41675  0.17089  1.0000
  C   C3317     1.0  0.82455  0.53976  0.16382  1.0000
  Fe  Fe449     1.0  0.60880  0.59044  0.02195  1.0000
  Fe  Fe450     1.0  0.86102  0.41159  0.01211  1.0000
  H   H3930     1.0  0.68836  0.43678  0.00470  1.0000
  C   C3318     1.0  0.64283  0.57081  0.04780  1.0000
  S   S897      1.0  0.60707  0.58982  0.07177  1.0000
  C   C3319     1.0  0.97780  0.56920  0.36669  1.0000
  H   H3931     1.0  0.92212  0.48063  0.11016  1.0000
  H   H3932     1.0  0.58055  0.57635  0.01609  1.0000
  H   H3933     1.0  0.82058  0.52375  0.20435  1.0000
  N   N217      1.0  0.90314  0.43401  0.28478  1.0000
  C   C3320     1.0  0.93617  0.39913  0.32537  1.0000
  H   H3934     1.0  0.94012  0.55920  0.24204  1.0000
  H   H3935     1.0  0.79664  0.55443  0.16933  1.0000
  C   C3321     1.0  0.83452  0.53397  0.20852  1.0000
  C   C3322     1.0  0.95395  0.42879  0.05473  1.0000
  H   H3936     1.0  0.82943  0.54912  0.15783  1.0000
  C   C3323     1.0  0.92939  0.42523  0.22308  1.0000
  S   S898      1.0  0.99742  0.58676  0.28280  1.0000
  N   N218      1.0  0.68906  0.42255  0.05682  1.0000
  C   C3324     1.0  0.69089  0.43717  0.04875  1.0000
  C   C3325     1.0  0.67339  0.42317  0.06338  1.0000
  C   C3326     1.0  0.69690  0.41828  0.06858  1.0000
  C   C3327     1.0  0.69428  0.41262  0.04697  1.0000
  H   H3937     1.0  0.58532  0.46079  0.00352  1.0000
  C   C3328     1.0  0.68800  0.41546  0.03508  1.0000
  C   C3329     1.0  0.94370  0.40775  0.34609  1.0000
  H   H3938     1.0  0.63886  0.57375  0.05839  1.0000
  S   S899      1.0  0.63635  0.39341  0.07558  1.0000
  H   H3939     1.0  0.68800  0.44479  0.05590  1.0000
  H   H3940     1.0  0.70230  0.43703  0.04264  1.0000
  H   H3941     1.0  0.68382  0.44198  0.04091  1.0000
  H   H3942     1.0  0.66647  0.42769  0.05538  1.0000
  H   H3943     1.0  0.66916  0.42997  0.07141  1.0000
  H   H3944     1.0  0.67145  0.41227  0.06884  1.0000
  H   H3945     1.0  0.69287  0.42601  0.07571  1.0000
  H   H3946     1.0  0.69535  0.40767  0.07554  1.0000
  H   H3947     1.0  0.70876  0.41776  0.06439  1.0000
  Fe  Fe451     1.0  0.95099  0.57163  0.28350  1.0000
  H   H3948     1.0  0.67931  0.42470  0.03321  1.0000
  H   H3949     1.0  0.73251  0.54202  0.04154  1.0000
  S   S900      1.0  0.62690  0.57845  0.00709  1.0000
  H   H3950     1.0  0.91132  0.50705  0.10307  1.0000
  H   H3951     1.0  0.70969  0.54401  0.03444  1.0000
  H   H3952     1.0  0.86190  0.39481  0.12496  1.0000
  H   H3953     1.0  0.83588  0.52607  0.21833  1.0000
  H   H3954     1.0  0.52096  0.57845  0.02071  1.0000
  C   C3330     1.0  0.98823  0.56189  0.44549  1.0000
  C   C3331     1.0  0.79008  0.40181  0.05453  1.0000
  H   H3955     1.0  0.91146  0.44355  0.26265  1.0000
  H   H3956     1.0  0.92565  0.43445  0.20229  1.0000
  H   H3957     1.0  0.98504  0.56561  0.43530  1.0000
  C   C3332     1.0  0.98263  0.44684  0.07720  1.0000
  H   H3958     1.0  0.84662  0.42234  0.14854  1.0000
  H   H3959     1.0  0.91428  0.42651  0.30972  1.0000
  C   C3333     1.0  0.93268  0.55826  0.26465  1.0000
  H   H3960     1.0  0.59621  0.44039  0.02209  1.0000
  C   C3334     1.0  0.80782  0.52945  0.18395  1.0000
  H   H3961     1.0  0.90700  0.46445  0.16730  1.0000
  H   H3962     1.0  0.89650  0.41908  0.30445  1.0000
  H   H3963     1.0  0.90660  0.54056  0.28639  1.0000
  Fe  Fe452     1.0  0.97713  0.57777  0.29037  1.0000
  S   S901      1.0  0.69861  0.45757  0.01174  1.0000
  S   S902      1.0  0.79710  0.40658  0.13008  1.0000
  C   C3335     1.0  0.92323  0.55287  0.27714  1.0000
  H   H3964     1.0  0.97503  0.41982  0.03289  1.0000
  C   C3336     1.0  0.80383  0.55501  0.17589  1.0000
  H   H3965     1.0  0.60538  0.58812  0.10098  1.0000
  N   N219      1.0  0.81523  0.54165  0.17796  1.0000
  H   H3966     1.0  0.89863  0.40680  0.23571  1.0000
  H   H3967     1.0  0.87045  0.41288  0.06684  1.0000
  H   H3968     1.0  0.77870  0.40683  0.05477  1.0000
  H   H3969     1.0  0.79688  0.55706  0.18635  1.0000
  H   H3970     1.0  0.99064  0.54470  0.30598  1.0000
  N   N220      1.0  0.72788  0.55289  0.02077  1.0000
  H   H3971     1.0  0.88688  0.45162  0.27622  1.0000
  H   H3972     1.0  0.92282  0.55537  0.28711  1.0000
  H   H3973     1.0  0.80849  0.56458  0.17023  1.0000
  N   N221      1.0  0.91580  0.49572  0.12378  1.0000
  H   H3974     1.0  0.65534  0.57358  0.01953  1.0000
  C   C3337     1.0  0.93409  0.42650  0.23447  1.0000
  H   H3975     1.0  0.91234  0.40948  0.25160  1.0000
  C   C3338     1.0  0.85920  0.41879  0.06587  1.0000
  H   H3976     1.0  0.96880  0.56466  0.34487  1.0000
  H   H3977     1.0  0.89091  0.49727  0.17911  1.0000
  H   H3978     1.0  0.95101  0.44039  0.04976  1.0000
  C   C3339     1.0  0.73980  0.51417  0.01681  1.0000
  C   C3340     1.0  0.91699  0.48133  0.12147  1.0000
  H   H3979     1.0  0.93730  0.44740  0.18107  1.0000
  Fe  Fe453     1.0  0.72257  0.57940  0.08648  1.0000
  H   H3980     1.0  0.98506  0.55220  0.33901  1.0000
  H   H3981     1.0  0.84725  0.56293  0.18729  1.0000
  H   H3982     1.0  0.96611  0.40502  0.07125  1.0000
  C   C3341     1.0  0.74808  0.52911  0.99398  1.0000
  S   S903      1.0  0.59729  0.57953  0.04316  1.0000
  S   S904      1.0  0.97307  0.55829  0.28635  1.0000
  H   H3983     1.0  0.84946  0.54535  0.20999  1.0000
  C   C3342     1.0  0.90880  0.44277  0.29078  1.0000
  Fe  Fe454     1.0  0.79638  0.39221  0.11635  1.0000
  C   C3343     1.0  0.82424  0.54267  0.18712  1.0000
  H   H3984     1.0  0.70700  0.55399  0.01720  1.0000
  H   H3985     1.0  0.64328  0.55910  0.05002  1.0000
  C   C3344     1.0  0.97234  0.40771  0.06001  1.0000
  C   C3345     1.0  0.82573  0.53277  0.20031  1.0000
  C   C3346     1.0  0.66228  0.56796  0.02738  1.0000
  N   N222      1.0  0.65721  0.57428  0.04019  1.0000
  C   C3347     1.0  0.90645  0.50659  0.11465  1.0000
  Fe  Fe455     1.0  0.99874  0.41408  0.34424  1.0000
  C   C3348     1.0  0.90119  0.39807  0.24452  1.0000
  H   H3986     1.0  0.74609  0.55114  0.02955  1.0000
  H   H3987     1.0  0.57833  0.44816  0.99942  1.0000
  H   H3988     1.0  0.90468  0.51747  0.11660  1.0000
  H   H3989     1.0  0.85742  0.39210  0.09573  1.0000
  H   H3990     1.0  0.72903  0.56098  0.03818  1.0000
  C   C3349     1.0  0.87187  0.39468  0.12820  1.0000
  H   H3991     1.0  0.97719  0.40799  0.45051  1.0000
  C   C3350     1.0  0.66750  0.56714  0.04971  1.0000
  H   H3992     1.0  0.91461  0.41305  0.29418  1.0000
  C   C3351     1.0  0.67093  0.57076  0.08591  1.0000
  C   C3352     1.0  0.65675  0.58989  0.03608  1.0000
  H   H3993     1.0  0.81583  0.51898  0.18523  1.0000
  H   H3994     1.0  0.90195  0.39544  0.16127  1.0000
  S   S905      1.0  0.81209  0.40186  0.09746  1.0000
  H   H3995     1.0  0.89559  0.50424  0.11656  1.0000
  H   H3996     1.0  0.78023  0.54244  0.07662  1.0000
  H   H3997     1.0  0.67870  0.58806  0.02248  1.0000
  C   C3353     1.0  0.91407  0.43737  0.30358  1.0000
  C   C3354     1.0  0.69364  0.55281  0.99499  1.0000
  H   H3998     1.0  0.74127  0.56734  0.00672  1.0000
  H   H3999     1.0  0.83368  0.53021  0.16509  1.0000
  H   H4000     1.0  0.63174  0.50952  0.02509  1.0000
  H   H4001     1.0  0.94914  0.41215  0.14653  1.0000
  H   H4002     1.0  0.75660  0.46762  0.12006  1.0000
  C   C3355     1.0  0.60503  0.43178  0.98957  1.0000
  C   C3356     1.0  0.93055  0.49886  0.11877  1.0000
  H   H4003     1.0  0.93510  0.49875  0.10724  1.0000
  H   H4004     1.0  0.63447  0.57633  0.04132  1.0000
  H   H4005     1.0  0.70631  0.56303  0.03071  1.0000
  H   H4006     1.0  0.58437  0.42496  0.99720  1.0000
  H   H4007     1.0  0.66193  0.55640  0.03016  1.0000
  C   C3357     1.0  0.97434  0.43126  0.06219  1.0000
  S   S906      1.0  0.69740  0.57901  0.99446  1.0000
  C   C3358     1.0  0.64202  0.57048  0.08816  1.0000
  C   C3359     1.0  0.65232  0.55760  0.08992  1.0000
  H   H4008     1.0  0.92367  0.42807  0.27057  1.0000
  H   H4009     1.0  0.77530  0.55588  0.06151  1.0000
  H   H4010     1.0  0.90829  0.42612  0.26562  1.0000
  H   H4011     1.0  0.78237  0.45992  0.11289  1.0000
  H   H4012     1.0  0.76718  0.57443  0.00301  1.0000
  C   C3360     1.0  0.58805  0.45280  0.99679  1.0000
  C   C3361     1.0  0.91934  0.44600  0.30888  1.0000
  H   H4013     1.0  0.92336  0.44168  0.31864  1.0000
  C   C3362     1.0  0.90334  0.41916  0.29347  1.0000
  C   C3363     1.0  0.62719  0.52818  0.00845  1.0000
  H   H4014     1.0  0.90534  0.46214  0.27398  1.0000
  H   H4015     1.0  0.77788  0.57559  0.06867  1.0000
  H   H4016     1.0  0.94996  0.42309  0.04900  1.0000
  H   H4017     1.0  0.98179  0.41287  0.07876  1.0000
  C   C3364     1.0  0.97009  0.40060  0.45171  1.0000
  H   H4018     1.0  0.62314  0.44152  0.99994  1.0000
  C   C3365     1.0  0.64612  0.58353  0.08520  1.0000
  H   H4019     1.0  0.94768  0.42717  0.06598  1.0000
  C   C3366     1.0  0.98457  0.43200  0.08165  1.0000
  C   C3367     1.0  0.99961  0.55285  0.35756  1.0000
  C   C3368     1.0  0.90890  0.39962  0.25364  1.0000
  H   H4020     1.0  0.87974  0.39859  0.11836  1.0000
  C   C3369     1.0  0.97165  0.58346  0.36008  1.0000
  H   H4021     1.0  0.99398  0.53241  0.19670  1.0000
  H   H4022     1.0  0.84018  0.40212  0.05411  1.0000
  C   C3370     1.0  0.80233  0.45192  0.98716  1.0000
  H   H4023     1.0  0.68679  0.59115  0.06900  1.0000
  C   C3371     1.0  0.61299  0.44920  0.99752  1.0000
  H   H4024     1.0  0.99489  0.49472  0.17607  1.0000
  H   H4025     1.0  0.97044  0.58646  0.34914  1.0000
  H   H4026     1.0  0.58018  0.54572  0.00190  1.0000
  Fe  Fe456     1.0  0.94699  0.58526  0.30884  1.0000
  H   H4027     1.0  0.97251  0.52675  0.15994  1.0000
  C   C3372     1.0  0.99185  0.52782  0.16522  1.0000
  C   C3373     1.0  0.97840  0.39308  0.30255  1.0000
  H   H4028     1.0  0.65692  0.39159  0.99566  1.0000
  H   H4029     1.0  0.86864  0.40272  0.13492  1.0000
  C   C3374     1.0  0.97380  0.57787  0.38848  1.0000
  H   H4030     1.0  0.66417  0.58607  0.99462  1.0000
  H   H4031     1.0  0.99584  0.44798  0.37460  1.0000
  H   H4032     1.0  0.90885  0.41296  0.99626  1.0000
  H   H4033     1.0  0.88023  0.39469  0.15458  1.0000
  C   C3375     1.0  0.59666  0.56574  0.99408  1.0000
  C   C3376     1.0  0.91758  0.41365  0.98677  1.0000
  S   S907      1.0  0.82042  0.39478  0.00348  1.0000
  H   H4034     1.0  0.83462  0.39148  0.07161  1.0000
  C   C3377     1.0  0.93084  0.41566  0.98737  1.0000
  C   C3378     1.0  0.81494  0.39588  0.04128  1.0000
  S   S908      1.0  0.86106  0.39428  0.00185  1.0000
  H   H4035     1.0  0.82222  0.39675  0.03089  1.0000
  H   H4036     1.0  0.89106  0.39254  0.04865  1.0000
  S   S909      1.0  0.55784  0.58373  0.04168  1.0000
  H   H4037     1.0  0.80242  0.39166  0.98664  1.0000
  H   H4038     1.0  0.90912  0.39692  0.70058  1.0000
  H   H4039     1.0  0.94487  0.54848  0.71981  1.0000
  H   H4040     1.0  0.90369  0.40050  0.89861  1.0000
  H   H4041     1.0  0.73248  0.46048  0.95480  1.0000
  H   H4042     1.0  0.75686  0.52189  0.94405  1.0000
  Fe  Fe457     1.0  0.99198  0.58470  0.69766  1.0000
  C   C3379     1.0  0.86083  0.46878  0.82267  1.0000
  H   H4043     1.0  0.96462  0.42781  0.95413  1.0000
  C   C3380     1.0  0.91555  0.41255  0.97394  1.0000
  S   S910      1.0  0.96096  0.59045  0.73063  1.0000
  H   H4044     1.0  0.83594  0.42792  0.82111  1.0000
  Fe  Fe458     1.0  0.78819  0.40426  0.92618  1.0000
  S   S911      1.0  0.76916  0.42087  0.93431  1.0000
  S   S912      1.0  0.81067  0.40751  0.91516  1.0000
  Fe  Fe459     1.0  0.79943  0.51326  0.92154  1.0000
  S   S913      1.0  0.82228  0.51004  0.90805  1.0000
  S   S914      1.0  0.78961  0.52349  0.94062  1.0000
  Fe  Fe460     1.0  0.79033  0.49385  0.90883  1.0000
  S   S915      1.0  0.81206  0.48864  0.89409  1.0000
  S   S916      1.0  0.76955  0.48684  0.91258  1.0000
  Fe  Fe461     1.0  0.82128  0.48696  0.91270  1.0000
  S   S917      1.0  0.84017  0.46912  0.91783  1.0000
  Fe  Fe462     1.0  0.81173  0.51203  0.89014  1.0000
  S   S918      1.0  0.81966  0.52363  0.86756  1.0000
  S   S919      1.0  0.79960  0.48979  0.92786  1.0000
  S   S920      1.0  0.78892  0.51756  0.90315  1.0000
  N   N223      1.0  0.96715  0.53782  0.69806  1.0000
  H   H4045     1.0  0.74313  0.44562  0.96543  1.0000
  C   C3381     1.0  0.93618  0.56898  0.70836  1.0000
  H   H4046     1.0  0.87260  0.46573  0.90746  1.0000
  H   H4047     1.0  0.99832  0.40549  0.87140  1.0000
  C   C3382     1.0  0.89551  0.43957  0.94408  1.0000
  Fe  Fe463     1.0  0.89187  0.40232  0.80541  1.0000
  S   S921      1.0  0.87469  0.41873  0.79522  1.0000
  C   C3383     1.0  0.96924  0.53154  0.68560  1.0000
  Fe  Fe464     1.0  0.90728  0.51468  0.78738  1.0000
  S   S922      1.0  0.91561  0.50323  0.80729  1.0000
  S   S923      1.0  0.90980  0.53727  0.77604  1.0000
  Fe  Fe465     1.0  0.89311  0.49074  0.78899  1.0000
  S   S924      1.0  0.90031  0.47740  0.80876  1.0000
  S   S925      1.0  0.87910  0.48364  0.77937  1.0000
  Fe  Fe466     1.0  0.89370  0.49778  0.81639  1.0000
  S   S926      1.0  0.88396  0.49544  0.83998  1.0000
  Fe  Fe467     1.0  0.92142  0.48388  0.79801  1.0000
  S   S927      1.0  0.94109  0.46631  0.80049  1.0000
  S   S928      1.0  0.88465  0.51087  0.79737  1.0000
  S   S929      1.0  0.91490  0.49559  0.77730  1.0000
  H   H4048     1.0  0.78237  0.54239  0.97801  1.0000
  H   H4049     1.0  0.99232  0.45804  0.91305  1.0000
  N   N224      1.0  0.84544  0.43525  0.83401  1.0000
  C   C3384     1.0  0.99955  0.43437  0.86626  1.0000
  H   H4050     1.0  0.98461  0.54889  0.68864  1.0000
  H   H4051     1.0  0.86716  0.53737  0.80752  1.0000
  H   H4052     1.0  0.96456  0.40307  0.93354  1.0000
  H   H4053     1.0  0.99318  0.43056  0.86158  1.0000
  H   H4054     1.0  0.71384  0.57763  0.93714  1.0000
  S   S930      1.0  0.81925  0.39638  0.87829  1.0000
  H   H4055     1.0  0.96481  0.56037  0.67459  1.0000
  C   C3385     1.0  0.73315  0.45439  0.96589  1.0000
  S   S931      1.0  0.95458  0.44752  0.89662  1.0000
  H   H4056     1.0  0.99006  0.53068  0.69793  1.0000
  S   S932      1.0  0.93036  0.44133  0.88342  1.0000
  C   C3386     1.0  0.95545  0.40302  0.94320  1.0000
  Fe  Fe468     1.0  0.95214  0.44703  0.87523  1.0000
  S   S933      1.0  0.95562  0.46635  0.85785  1.0000
  H   H4057     1.0  0.98037  0.54453  0.70761  1.0000
  H   H4058     1.0  0.90777  0.42432  0.88902  1.0000
  S   S934      1.0  0.96493  0.42439  0.87561  1.0000
  H   H4059     1.0  0.74923  0.54935  0.91603  1.0000
  H   H4060     1.0  0.94006  0.39276  0.68609  1.0000
  C   C3387     1.0  0.00145  0.45404  0.87479  1.0000
  C   C3388     1.0  0.77439  0.58210  0.98037  1.0000
  C   C3389     1.0  0.80240  0.46092  0.97367  1.0000
  H   H4061     1.0  0.91383  0.44732  0.82573  1.0000
  C   C3390     1.0  0.59787  0.41499  0.98042  1.0000
  C   C3391     1.0  0.94702  0.57558  0.68329  1.0000
  C   C3392     1.0  0.87274  0.43309  0.90695  1.0000
  H   H4062     1.0  0.70928  0.46771  0.98012  1.0000
  H   H4063     1.0  0.96333  0.52989  0.72102  1.0000
  C   C3393     1.0  0.94550  0.46611  0.81631  1.0000
  C   C3394     1.0  0.94703  0.47874  0.81859  1.0000
  C   C3395     1.0  0.95024  0.47869  0.83137  1.0000
  C   C3396     1.0  0.95164  0.46607  0.84199  1.0000
  C   C3397     1.0  0.94993  0.45344  0.83980  1.0000
  C   C3398     1.0  0.94699  0.45345  0.82687  1.0000
  H   H4064     1.0  0.94602  0.48851  0.81039  1.0000
  H   H4065     1.0  0.95158  0.48844  0.83305  1.0000
  H   H4066     1.0  0.95104  0.44367  0.84799  1.0000
  H   H4067     1.0  0.94568  0.44375  0.82510  1.0000
  H   H4068     1.0  0.97093  0.51631  0.71120  1.0000
  C   C3399     1.0  0.86954  0.53849  0.84167  1.0000
  C   C3400     1.0  0.71570  0.55932  0.97944  1.0000
  H   H4069     1.0  0.73545  0.48688  0.98373  1.0000
  C   C3401     1.0  0.94571  0.55549  0.70932  1.0000
  C   C3402     1.0  0.88101  0.40690  0.91014  1.0000
  C   C3403     1.0  0.87687  0.43646  0.79051  1.0000
  C   C3404     1.0  0.88732  0.44034  0.79481  1.0000
  C   C3405     1.0  0.88808  0.45485  0.79160  1.0000
  C   C3406     1.0  0.87853  0.46539  0.78391  1.0000
  C   C3407     1.0  0.86826  0.46139  0.77953  1.0000
  C   C3408     1.0  0.86738  0.44700  0.78287  1.0000
  H   H4070     1.0  0.89470  0.43220  0.80069  1.0000
  H   H4071     1.0  0.89615  0.45784  0.79484  1.0000
  H   H4072     1.0  0.86089  0.46946  0.77355  1.0000
  H   H4073     1.0  0.85929  0.44405  0.77953  1.0000
  C   C3409     1.0  0.84052  0.46700  0.93571  1.0000
  C   C3410     1.0  0.83198  0.47743  0.94332  1.0000
  C   C3411     1.0  0.83154  0.47518  0.95791  1.0000
  C   C3412     1.0  0.83956  0.46247  0.96489  1.0000
  C   C3413     1.0  0.84871  0.45248  0.95703  1.0000
  C   C3414     1.0  0.84910  0.45465  0.94249  1.0000
  H   H4074     1.0  0.82561  0.48718  0.93805  1.0000
  H   H4075     1.0  0.82465  0.48307  0.96389  1.0000
  H   H4076     1.0  0.85550  0.44304  0.96217  1.0000
  H   H4077     1.0  0.85594  0.44665  0.93662  1.0000
  C   C3415     1.0  0.83694  0.51477  0.85946  1.0000
  C   C3416     1.0  0.84245  0.51903  0.84472  1.0000
  C   C3417     1.0  0.85672  0.51275  0.83840  1.0000
  C   C3418     1.0  0.86552  0.50236  0.84690  1.0000
  C   C3419     1.0  0.85980  0.49771  0.86150  1.0000
  C   C3420     1.0  0.84556  0.50388  0.86777  1.0000
  H   H4078     1.0  0.83578  0.52742  0.83825  1.0000
  H   H4079     1.0  0.86101  0.51628  0.82711  1.0000
  H   H4080     1.0  0.86646  0.48942  0.86804  1.0000
  H   H4081     1.0  0.84135  0.50044  0.87911  1.0000
  H   H4082     1.0  0.63234  0.41807  0.96353  1.0000
  C   C3421     1.0  0.95621  0.55160  0.69715  1.0000
  C   C3422     1.0  0.74403  0.48388  0.97491  1.0000
  H   H4083     1.0  0.90454  0.46508  0.83920  1.0000
  C   C3423     1.0  0.87490  0.44275  0.86276  1.0000
  H   H4084     1.0  0.75785  0.46026  0.95283  1.0000
  C   C3424     1.0  0.71374  0.55518  0.94497  1.0000
  Fe  Fe469     1.0  0.96566  0.42441  0.89786  1.0000
  H   H4085     1.0  0.98856  0.41121  0.57576  1.0000
  H   H4086     1.0  0.99520  0.40825  0.52255  1.0000
  C   C3425     1.0  0.88505  0.56075  0.81007  1.0000
  S   S935      1.0  0.83746  0.45870  0.98349  1.0000
  H   H4087     1.0  0.86232  0.45187  0.81306  1.0000
  H   H4088     1.0  0.89986  0.53471  0.80629  1.0000
  H   H4089     1.0  0.99286  0.56232  0.76095  1.0000
  S   S936      1.0  0.73599  0.58850  0.97495  1.0000
  C   C3426     1.0  0.76990  0.43903  0.92755  1.0000
  C   C3427     1.0  0.78310  0.44339  0.92143  1.0000
  C   C3428     1.0  0.78320  0.45810  0.91679  1.0000
  C   C3429     1.0  0.77007  0.46838  0.91802  1.0000
  C   C3430     1.0  0.75693  0.46396  0.92393  1.0000
  C   C3431     1.0  0.75686  0.44936  0.92884  1.0000
  H   H4090     1.0  0.79319  0.43547  0.92033  1.0000
  H   H4091     1.0  0.79336  0.46151  0.91204  1.0000
  H   H4092     1.0  0.74676  0.47187  0.92479  1.0000
  H   H4093     1.0  0.74664  0.44604  0.93344  1.0000
  H   H4094     1.0  0.85719  0.41379  0.83202  1.0000
  C   C3432     1.0  0.78032  0.57872  0.96673  1.0000
  C   C3433     1.0  0.94511  0.41240  0.83903  1.0000
  C   C3434     1.0  0.94047  0.41536  0.96189  1.0000
  C   C3435     1.0  0.86797  0.54826  0.82843  1.0000
  H   H4095     1.0  0.91080  0.42975  0.83221  1.0000
  H   H4096     1.0  0.91064  0.49467  0.85569  1.0000
  C   C3436     1.0  0.88854  0.48616  0.89534  1.0000
  H   H4097     1.0  0.99610  0.53230  0.50589  1.0000
  C   C3437     1.0  0.95385  0.54456  0.74716  1.0000
  C   C3438     1.0  0.95234  0.53070  0.75487  1.0000
  C   C3439     1.0  0.93888  0.52831  0.76369  1.0000
  C   C3440     1.0  0.92682  0.53980  0.76485  1.0000
  C   C3441     1.0  0.92831  0.55364  0.75704  1.0000
  C   C3442     1.0  0.94176  0.55602  0.74821  1.0000
  H   H4098     1.0  0.93787  0.51761  0.76969  1.0000
  H   H4099     1.0  0.91903  0.56257  0.75785  1.0000
  H   H4100     1.0  0.94277  0.56673  0.74226  1.0000
  C   C3443     1.0  0.99765  0.56931  0.66432  1.0000
  H   H4101     1.0  0.72242  0.56704  0.97452  1.0000
  C   C3444     1.0  0.98119  0.54053  0.69807  1.0000
  H   H4102     1.0  0.73642  0.57357  0.91874  1.0000
  N   N225      1.0  0.95217  0.41620  0.94871  1.0000
  H   H4103     1.0  0.99799  0.54568  0.74576  1.0000
  H   H4104     1.0  0.88550  0.50836  0.86257  1.0000
  H   H4105     1.0  0.70134  0.39500  0.98599  1.0000
  C   C3445     1.0  0.87277  0.54645  0.80375  1.0000
  C   C3446     1.0  0.77827  0.54078  0.93835  1.0000
  C   C3447     1.0  0.77851  0.54986  0.92483  1.0000
  C   C3448     1.0  0.76974  0.56379  0.92341  1.0000
  H   H4106     1.0  0.78567  0.54626  0.91549  1.0000
  H   H4107     1.0  0.77019  0.57090  0.91294  1.0000
  S   S937      1.0  0.94521  0.41644  0.90812  1.0000
  H   H4108     1.0  0.99125  0.57994  0.66097  1.0000
  H   H4109     1.0  0.90935  0.44067  0.86513  1.0000
  H   H4110     1.0  0.89631  0.44423  0.82678  1.0000
  Fe  Fe470     1.0  0.91929  0.39797  0.81548  1.0000
  C   C3449     1.0  0.89172  0.53511  0.81659  1.0000
  H   H4111     1.0  0.88265  0.40180  0.86527  1.0000
  C   C3450     1.0  0.85835  0.53905  0.85394  1.0000
  S   S938      1.0  0.97089  0.54713  0.73611  1.0000
  H   H4112     1.0  0.84727  0.43992  0.81110  1.0000
  C   C3451     1.0  0.90309  0.47864  0.89099  1.0000
  H   H4113     1.0  0.85734  0.48479  0.83453  1.0000
  H   H4114     1.0  0.86752  0.47427  0.81324  1.0000
  H   H4115     1.0  0.92852  0.57184  0.71786  1.0000
  H   H4116     1.0  0.99686  0.46456  0.87718  1.0000
  H   H4117     1.0  0.76872  0.53851  0.96082  1.0000
  H   H4118     1.0  0.72387  0.44890  0.97016  1.0000
  H   H4119     1.0  0.93767  0.42787  0.93459  1.0000
  H   H4120     1.0  0.88988  0.56208  0.81830  1.0000
  H   H4121     1.0  0.82436  0.43755  0.84850  1.0000
  C   C3452     1.0  0.76894  0.54555  0.95038  1.0000
  C   C3453     1.0  0.87011  0.41930  0.91276  1.0000
  H   H4122     1.0  0.90855  0.47028  0.89847  1.0000
  C   C3454     1.0  0.84537  0.54925  0.85343  1.0000
  H   H4123     1.0  0.97635  0.52055  0.68676  1.0000
  C   C3455     1.0  0.83489  0.42960  0.84686  1.0000
  H   H4124     1.0  0.71614  0.53270  0.95123  1.0000
  C   C3456     1.0  0.85508  0.47473  0.83464  1.0000
  C   C3457     1.0  0.89464  0.40918  0.90123  1.0000
  H   H4125     1.0  0.76308  0.50996  0.93187  1.0000
  H   H4126     1.0  0.61378  0.40549  0.96405  1.0000
  C   C3458     1.0  0.89042  0.50014  0.87060  1.0000
  C   C3459     1.0  0.96603  0.41768  0.95076  1.0000
  H   H4127     1.0  0.95595  0.43002  0.92770  1.0000
  H   H4128     1.0  0.74927  0.52968  0.90828  1.0000
  H   H4129     1.0  0.89773  0.53562  0.82426  1.0000
  H   H4130     1.0  0.83347  0.56710  0.84042  1.0000
  H   H4131     1.0  0.89372  0.56043  0.80006  1.0000
  C   C3460     1.0  0.72064  0.54555  0.97663  1.0000
  H   H4132     1.0  0.88811  0.52478  0.82017  1.0000
  H   H4133     1.0  0.88117  0.54469  0.79387  1.0000
  H   H4134     1.0  0.87141  0.50332  0.88683  1.0000
  H   H4135     1.0  0.85891  0.41415  0.87789  1.0000
  H   H4136     1.0  0.94418  0.43888  0.94154  1.0000
  C   C3461     1.0  0.76055  0.56865  0.93545  1.0000
  H   H4137     1.0  0.84167  0.47269  0.85585  1.0000
  N   N226      1.0  0.81238  0.43355  0.95034  1.0000
  C   C3462     1.0  0.82706  0.42394  0.94965  1.0000
  C   C3463     1.0  0.80169  0.42503  0.95173  1.0000
  C   C3464     1.0  0.81273  0.44417  0.93649  1.0000
  C   C3465     1.0  0.80845  0.44012  0.96285  1.0000
  C   C3466     1.0  0.80550  0.45519  0.96163  1.0000
  H   H4138     1.0  0.91507  0.42146  0.91819  1.0000
  C   C3467     1.0  0.98885  0.43844  0.91075  1.0000
  H   H4139     1.0  0.95865  0.53090  0.68416  1.0000
  H   H4140     1.0  0.92186  0.44378  0.84814  1.0000
  H   H4141     1.0  0.83535  0.42993  0.94886  1.0000
  H   H4142     1.0  0.82757  0.41506  0.95927  1.0000
  H   H4143     1.0  0.83050  0.41877  0.94036  1.0000
  H   H4144     1.0  0.79053  0.43192  0.95210  1.0000
  H   H4145     1.0  0.80121  0.41633  0.96152  1.0000
  H   H4146     1.0  0.80443  0.41972  0.94260  1.0000
  H   H4147     1.0  0.82102  0.45055  0.93445  1.0000
  H   H4148     1.0  0.81561  0.43891  0.92732  1.0000
  H   H4149     1.0  0.80197  0.45167  0.93613  1.0000
  H   H4150     1.0  0.80597  0.46277  0.95148  1.0000
  H   H4151     1.0  0.90220  0.40292  0.93436  1.0000
  S   S939      1.0  0.98529  0.41324  0.90719  1.0000
  S   S940      1.0  0.89577  0.40459  0.82550  1.0000
  H   H4152     1.0  0.71586  0.47977  0.98515  1.0000
  H   H4153     1.0  0.88018  0.43156  0.96255  1.0000
  H   H4154     1.0  0.72372  0.51344  0.94022  1.0000
  C   C3468     1.0  0.88627  0.43493  0.89835  1.0000
  H   H4155     1.0  0.77492  0.49441  0.95440  1.0000
  H   H4156     1.0  0.75323  0.53016  0.98275  1.0000
  H   H4157     1.0  0.59002  0.40899  0.98095  1.0000
  C   C3469     1.0  0.92782  0.39552  0.86041  1.0000
  H   H4158     1.0  0.73145  0.52581  0.91433  1.0000
  H   H4159     1.0  0.75293  0.56309  0.95828  1.0000
  H   H4160     1.0  0.87373  0.46407  0.92548  1.0000
  S   S941      1.0  0.99516  0.57461  0.71980  1.0000
  H   H4161     1.0  0.91691  0.42686  0.85531  1.0000
  C   C3470     1.0  0.88836  0.48436  0.92009  1.0000
  H   H4162     1.0  0.70394  0.55703  0.95321  1.0000
  C   C3471     1.0  0.88782  0.42927  0.95297  1.0000
  H   H4163     1.0  0.59930  0.55947  0.98574  1.0000
  H   H4164     1.0  0.85292  0.56679  0.81886  1.0000
  C   C3472     1.0  0.86547  0.49152  0.91324  1.0000
  C   C3473     1.0  0.84624  0.46787  0.84663  1.0000
  H   H4165     1.0  0.89923  0.47697  0.91966  1.0000
  C   C3474     1.0  0.61130  0.41298  0.97089  1.0000
  H   H4166     1.0  0.89005  0.49548  0.91733  1.0000
  C   C3475     1.0  0.87913  0.46739  0.91405  1.0000
  H   H4167     1.0  0.86555  0.50307  0.91120  1.0000
  N   N227      1.0  0.74183  0.52380  0.93127  1.0000
  C   C3476     1.0  0.74251  0.52272  0.91661  1.0000
  C   C3477     1.0  0.75686  0.52090  0.93324  1.0000
  C   C3478     1.0  0.73400  0.53843  0.93319  1.0000
  C   C3479     1.0  0.73931  0.55055  0.92418  1.0000
  C   C3480     1.0  0.86710  0.42020  0.87171  1.0000
  C   C3481     1.0  0.61873  0.42933  0.97984  1.0000
  C   C3482     1.0  0.96313  0.52687  0.71120  1.0000
  H   H4168     1.0  0.95191  0.41880  0.83075  1.0000
  S   S942      1.0  0.97120  0.57798  0.70136  1.0000
  H   H4169     1.0  0.74746  0.51162  0.91499  1.0000
  H   H4170     1.0  0.97459  0.41809  0.94063  1.0000
  H   H4171     1.0  0.76324  0.52843  0.92535  1.0000
  H   H4172     1.0  0.71668  0.48167  0.96654  1.0000
  C   C3483     1.0  0.93615  0.40259  0.86415  1.0000
  H   H4173     1.0  0.90124  0.41504  0.85148  1.0000
  H   H4174     1.0  0.74119  0.50144  0.93980  1.0000
  C   C3484     1.0  0.84305  0.45502  0.84667  1.0000
  C   C3485     1.0  0.76002  0.55944  0.94895  1.0000
  H   H4175     1.0  0.92178  0.40447  0.70451  1.0000
  H   H4176     1.0  0.98686  0.39741  0.56025  1.0000
  H   H4177     1.0  0.88840  0.44557  0.89396  1.0000
  N   N228      1.0  0.93617  0.43887  0.77912  1.0000
  C   C3486     1.0  0.94712  0.44791  0.77307  1.0000
  C   C3487     1.0  0.92839  0.44122  0.79355  1.0000
  C   C3488     1.0  0.94429  0.42366  0.78067  1.0000
  C   C3489     1.0  0.92540  0.44277  0.77011  1.0000
  C   C3490     1.0  0.92054  0.43231  0.76661  1.0000
  C   C3491     1.0  0.91850  0.45734  0.76560  1.0000
  C   C3492     1.0  0.90945  0.43628  0.75913  1.0000
  C   C3493     1.0  0.90764  0.46120  0.75787  1.0000
  C   C3494     1.0  0.90302  0.45069  0.75476  1.0000
  H   H4178     1.0  0.94239  0.45934  0.77347  1.0000
  H   H4179     1.0  0.95573  0.44456  0.77933  1.0000
  H   H4180     1.0  0.95244  0.44733  0.76178  1.0000
  H   H4181     1.0  0.92263  0.45260  0.79326  1.0000
  H   H4182     1.0  0.93602  0.43844  0.80080  1.0000
  H   H4183     1.0  0.92019  0.43449  0.79856  1.0000
  H   H4184     1.0  0.94983  0.42099  0.77011  1.0000
  H   H4185     1.0  0.95270  0.42120  0.78703  1.0000
  H   H4186     1.0  0.93708  0.41610  0.78674  1.0000
  H   H4187     1.0  0.92485  0.42097  0.76984  1.0000
  H   H4188     1.0  0.92094  0.46588  0.76853  1.0000
  H   H4189     1.0  0.90552  0.42810  0.75708  1.0000
  H   H4190     1.0  0.90221  0.47239  0.75495  1.0000
  H   H4191     1.0  0.89413  0.45371  0.74936  1.0000
  H   H4192     1.0  0.88628  0.46426  0.84035  1.0000
  H   H4193     1.0  0.82960  0.44672  0.82129  1.0000
  C   C3495     1.0  0.93684  0.57900  0.69540  1.0000
  C   C3496     1.0  0.92674  0.41348  0.96165  1.0000
  C   C3497     1.0  0.74431  0.47240  0.96901  1.0000
  H   H4194     1.0  0.92114  0.39193  0.84327  1.0000
  C   C3498     1.0  0.75643  0.46901  0.95779  1.0000
  C   C3499     1.0  0.71216  0.53536  0.98325  1.0000
  C   C3500     1.0  0.76724  0.47694  0.95257  1.0000
  C   C3501     1.0  0.76651  0.48827  0.95847  1.0000
  C   C3502     1.0  0.93636  0.40576  0.83532  1.0000
  C   C3503     1.0  0.85773  0.45597  0.82263  1.0000
  C   C3504     1.0  0.73202  0.56449  0.92558  1.0000
  C   C3505     1.0  0.84866  0.44872  0.83455  1.0000
  H   H4195     1.0  0.75422  0.50066  0.97412  1.0000
  C   C3506     1.0  0.75489  0.49175  0.96960  1.0000
  H   H4196     1.0  0.87205  0.45409  0.86253  1.0000
  C   C3507     1.0  0.94493  0.41092  0.85344  1.0000
  C   C3508     1.0  0.99323  0.53631  0.49524  1.0000
  H   H4197     1.0  0.80391  0.58976  0.95768  1.0000
  C   C3509     1.0  0.86437  0.43490  0.87085  1.0000
  H   H4198     1.0  0.95143  0.41633  0.85626  1.0000
  H   H4199     1.0  0.77620  0.47429  0.94381  1.0000
  H   H4200     1.0  0.98140  0.54136  0.49693  1.0000
  H   H4201     1.0  0.87652  0.57057  0.80767  1.0000
  H   H4202     1.0  0.96164  0.52177  0.75413  1.0000
  H   H4203     1.0  0.98865  0.56356  0.49631  1.0000
  C   C3510     1.0  0.89045  0.41591  0.94970  1.0000
  C   C3511     1.0  0.88043  0.41327  0.86461  1.0000
  H   H4204     1.0  0.83649  0.54919  0.86282  1.0000
  H   H4205     1.0  0.78205  0.57980  0.93822  1.0000
  C   C3512     1.0  0.71931  0.56680  0.93598  1.0000
  C   C3513     1.0  0.73490  0.51229  0.94148  1.0000
  H   H4206     1.0  0.83227  0.41982  0.84590  1.0000
  H   H4207     1.0  0.97775  0.44303  0.90982  1.0000
  C   C3514     1.0  0.90768  0.42359  0.92799  1.0000
  H   H4208     1.0  0.99497  0.52674  0.49084  1.0000
  H   H4209     1.0  0.87907  0.52997  0.84275  1.0000
  H   H4210     1.0  0.89256  0.46254  0.85622  1.0000
  S   S943      1.0  0.93523  0.40916  0.81745  1.0000
  H   H4211     1.0  0.94605  0.40182  0.93991  1.0000
  S   S944      1.0  0.71911  0.51745  0.98212  1.0000
  H   H4212     1.0  0.86731  0.42719  0.82290  1.0000
  H   H4213     1.0  0.83607  0.45032  0.85626  1.0000
  H   H4214     1.0  0.97487  0.53772  0.67545  1.0000
  H   H4215     1.0  0.73434  0.51233  0.95275  1.0000
  Fe  Fe471     1.0  0.93400  0.43963  0.90491  1.0000
  H   H4216     1.0  0.99016  0.55965  0.65177  1.0000
  N   N229      1.0  0.88044  0.48253  0.91036  1.0000
  C   C3515     1.0  0.91095  0.48174  0.87687  1.0000
  C   C3516     1.0  0.72094  0.54117  0.94369  1.0000
  H   H4217     1.0  0.86411  0.42175  0.84200  1.0000
  C   C3517     1.0  0.85908  0.42405  0.83272  1.0000
  H   H4218     1.0  0.85967  0.48836  0.92458  1.0000
  C   C3518     1.0  0.83927  0.43762  0.82137  1.0000
  H   H4219     1.0  0.85404  0.44025  0.87652  1.0000
  H   H4220     1.0  0.88983  0.45978  0.91248  1.0000
  H   H4221     1.0  0.73118  0.54269  0.96972  1.0000
  Fe  Fe472     1.0  0.97314  0.56971  0.72421  1.0000
  C   C3519     1.0  0.85480  0.55887  0.82845  1.0000
  C   C3520     1.0  0.90459  0.49242  0.86668  1.0000
  N   N230      1.0  0.87923  0.54756  0.81503  1.0000
  H   H4222     1.0  0.92208  0.47586  0.87382  1.0000
  H   H4223     1.0  0.83927  0.42638  0.85669  1.0000
  H   H4224     1.0  0.85865  0.49028  0.90667  1.0000
  H   H4225     1.0  0.85948  0.53111  0.86376  1.0000
  C   C3521     1.0  0.88241  0.49708  0.88467  1.0000
  H   H4226     1.0  0.86473  0.55632  0.80032  1.0000
  C   C3522     1.0  0.95665  0.56215  0.68412  1.0000
  H   H4227     1.0  0.86336  0.39779  0.93594  1.0000
  C   C3523     1.0  0.84365  0.55923  0.84075  1.0000
  H   H4228     1.0  0.88240  0.48204  0.93147  1.0000
  N   N231      1.0  0.90024  0.44378  0.84704  1.0000
  C   C3524     1.0  0.91261  0.43856  0.85421  1.0000
  C   C3525     1.0  0.90544  0.44115  0.83234  1.0000
  C   C3526     1.0  0.89561  0.45955  0.84569  1.0000
  C   C3527     1.0  0.88860  0.43599  0.85532  1.0000
  C   C3528     1.0  0.89103  0.42099  0.85659  1.0000
  H   H4229     1.0  0.89382  0.44968  0.94699  1.0000
  C   C3529     1.0  0.99704  0.41011  0.56621  1.0000
  C   C3530     1.0  0.91690  0.39493  0.70750  1.0000
  H   H4230     1.0  0.81010  0.41977  0.97864  1.0000
  C   C3531     1.0  0.94730  0.42877  0.93767  1.0000
  C   C3532     1.0  0.78015  0.55351  0.97867  1.0000
  S   S945      1.0  0.91632  0.44893  0.92160  1.0000
  S   S946      1.0  0.93436  0.40195  0.88221  1.0000
  H   H4231     1.0  0.78754  0.56037  0.95638  1.0000
  H   H4232     1.0  0.98350  0.45428  0.86648  1.0000
  C   C3533     1.0  0.99702  0.55786  0.65914  1.0000
  C   C3534     1.0  0.99390  0.44816  0.86888  1.0000
  Fe  Fe473     1.0  0.81067  0.39247  0.90219  1.0000
  C   C3535     1.0  0.90570  0.43659  0.93178  1.0000
  C   C3536     1.0  0.99708  0.44692  0.91267  1.0000
  H   H4233     1.0  0.83675  0.39437  0.85032  1.0000
  C   C3537     1.0  0.99507  0.42411  0.91002  1.0000
  H   H4234     1.0  0.97053  0.40841  0.95875  1.0000
  C   C3538     1.0  0.90019  0.41317  0.93704  1.0000
  H   H4235     1.0  0.85950  0.41839  0.91946  1.0000
  H   H4236     1.0  0.95209  0.52520  0.71233  1.0000
  Fe  Fe474     1.0  0.94328  0.41862  0.88584  1.0000
  C   C3539     1.0  0.89716  0.42300  0.89551  1.0000
  H   H4237     1.0  0.86427  0.44237  0.90927  1.0000
  H   H4238     1.0  0.85560  0.39880  0.91427  1.0000
  C   C3540     1.0  0.78313  0.56404  0.96624  1.0000
  S   S947      1.0  0.84441  0.41994  0.97943  1.0000
  C   C3541     1.0  0.80784  0.43132  0.97683  1.0000
  N   N232      1.0  0.73281  0.46403  0.97497  1.0000
  S   S948      1.0  0.88223  0.40234  0.96168  1.0000
  H   H4239     1.0  0.92976  0.58962  0.69483  1.0000
  S   S949      1.0  0.75061  0.58654  0.93319  1.0000
  H   H4240     1.0  0.91040  0.39429  0.71867  1.0000
  S   S950      1.0  0.00082  0.39549  0.66267  1.0000
  S   S951      1.0  0.91543  0.39805  0.79445  1.0000
  C   C3542     1.0  0.78964  0.58490  0.94045  1.0000
  C   C3543     1.0  0.99626  0.40209  0.55714  1.0000
  C   C3544     1.0  0.92789  0.39715  0.84602  1.0000
  Fe  Fe475     1.0  0.86734  0.40965  0.98116  1.0000
  H   H4241     1.0  0.90521  0.41098  0.97351  1.0000
  C   C3545     1.0  0.62175  0.42003  0.97068  1.0000
  H   H4242     1.0  0.95213  0.41804  0.97641  1.0000
  C   C3546     1.0  0.94217  0.41649  0.97516  1.0000
  H   H4243     1.0  0.80020  0.57706  0.94086  1.0000
  C   C3547     1.0  0.71812  0.47375  0.97669  1.0000
  H   H4244     1.0  0.94779  0.58360  0.67334  1.0000
  H   H4245     1.0  0.92450  0.41276  0.95194  1.0000
  H   H4246     1.0  0.80070  0.47239  0.97245  1.0000
  H   H4247     1.0  0.62739  0.43429  0.97921  1.0000
  N   N233      1.0  0.78334  0.59020  0.95386  1.0000
  C   C3548     1.0  0.00025  0.55810  0.49316  1.0000
  H   H4248     1.0  0.86868  0.39290  0.89925  1.0000
  N   N234      1.0  0.87796  0.39242  0.91647  1.0000
  H   H4249     1.0  0.88212  0.39158  0.93675  1.0000
  H   H4250     1.0  0.95858  0.39325  0.95141  1.0000
  H   H4251     1.0  0.58953  0.45868  0.98539  1.0000
  H   H4252     1.0  0.98875  0.74256  0.47635  1.0000
  C   C3549     1.0  0.96502  0.74425  0.44272  1.0000
  Fe  Fe476     1.0  0.56295  0.76676  0.16252  1.0000
  S   S952      1.0  0.56903  0.74320  0.16273  1.0000
  S   S953      1.0  0.55848  0.77695  0.18147  1.0000
  Fe  Fe477     1.0  0.55424  0.77423  0.13409  1.0000
  S   S954      1.0  0.55959  0.75154  0.13157  1.0000
  H   H4253     1.0  0.95850  0.71550  0.37638  1.0000
  Fe  Fe478     1.0  0.54894  0.74664  0.15476  1.0000
  S   S955      1.0  0.53527  0.73018  0.16446  1.0000
  Fe  Fe479     1.0  0.57945  0.74958  0.13940  1.0000
  S   S956      1.0  0.60074  0.73478  0.13175  1.0000
  S   S957      1.0  0.54178  0.76947  0.15658  1.0000
  S   S958      1.0  0.57510  0.77309  0.13980  1.0000
  C   C3550     1.0  0.59823  0.66693  0.12053  1.0000
  H   H4254     1.0  0.53274  0.73894  0.19894  1.0000
  C   C3551     1.0  0.66905  0.67403  0.00928  1.0000
  C   C3552     1.0  0.58403  0.78407  0.18100  1.0000
  H   H4255     1.0  0.67072  0.69673  0.98639  1.0000
  C   C3553     1.0  0.98243  0.73748  0.47233  1.0000
  H   H4256     1.0  0.58509  0.67540  0.04064  1.0000
  C   C3554     1.0  0.66876  0.60985  0.02289  1.0000
  C   C3555     1.0  0.66076  0.59766  0.99253  1.0000
  C   C3556     1.0  0.58363  0.67043  0.05229  1.0000
  C   C3557     1.0  0.64822  0.60430  0.00100  1.0000
  H   H4257     1.0  0.67355  0.70069  0.00167  1.0000
  C   C3558     1.0  0.52355  0.73672  0.14063  1.0000
  Fe  Fe480     1.0  0.62364  0.68205  0.07896  1.0000
  S   S959      1.0  0.63698  0.66448  0.09300  1.0000
  S   S960      1.0  0.60839  0.70339  0.08202  1.0000
  Fe  Fe481     1.0  0.62978  0.66413  0.05682  1.0000
  S   S961      1.0  0.64333  0.64534  0.06886  1.0000
  S   S962      1.0  0.62613  0.66094  0.03697  1.0000
  Fe  Fe482     1.0  0.62626  0.64984  0.08808  1.0000
  S   S963      1.0  0.61730  0.63153  0.10326  1.0000
  Fe  Fe483     1.0  0.65308  0.66140  0.07229  1.0000
  S   S964      1.0  0.67755  0.65575  0.06595  1.0000
  S   S965      1.0  0.61177  0.66735  0.07580  1.0000
  S   S966      1.0  0.64068  0.68019  0.05860  1.0000
  Fe  Fe484     1.0  0.59032  0.61958  0.02600  1.0000
  S   S967      1.0  0.57753  0.61069  0.04764  1.0000
  H   H4258     1.0  0.69951  0.63889  0.01460  1.0000
  C   C3559     1.0  0.97974  0.69293  0.37184  1.0000
  H   H4259     1.0  0.55151  0.76668  0.23657  1.0000
  C   C3560     1.0  0.92269  0.64509  0.27722  1.0000
  N   N235      1.0  0.66475  0.59812  0.08037  1.0000
  S   S968      1.0  0.58824  0.60368  0.01517  1.0000
  H   H4260     1.0  0.96800  0.76444  0.47516  1.0000
  S   S969      1.0  0.61218  0.60753  0.03047  1.0000
  C   C3561     1.0  0.97938  0.71535  0.40680  1.0000
  Fe  Fe485     1.0  0.91984  0.74572  0.42162  1.0000
  S   S970      1.0  0.91938  0.76945  0.41562  1.0000
  S   S971      1.0  0.93863  0.72775  0.41503  1.0000
  Fe  Fe486     1.0  0.89153  0.74917  0.44376  1.0000
  S   S972      1.0  0.88831  0.77291  0.43960  1.0000
  Fe  Fe487     1.0  0.89565  0.77208  0.41655  1.0000
  H   H4261     1.0  0.63539  0.64690  0.00402  1.0000
  Fe  Fe488     1.0  0.91197  0.76874  0.43912  1.0000
  C   C3562     1.0  0.63371  0.64966  0.99293  1.0000
  S   S973      1.0  0.89665  0.74847  0.42059  1.0000
  S   S974      1.0  0.91469  0.74488  0.44516  1.0000
  Fe  Fe489     1.0  0.95434  0.66520  0.37647  1.0000
  S   S975      1.0  0.95152  0.64334  0.37667  1.0000
  S   S976      1.0  0.93588  0.68440  0.38040  1.0000
  Fe  Fe490     1.0  0.98722  0.65684  0.36813  1.0000
  H   H4262     1.0  0.99893  0.65731  0.39217  1.0000
  H   H4263     1.0  0.62421  0.64567  0.99302  1.0000
  Fe  Fe491     1.0  0.96884  0.64440  0.35638  1.0000
  S   S977      1.0  0.97293  0.63551  0.33675  1.0000
  Fe  Fe492     1.0  0.97021  0.63502  0.38772  1.0000
  S   S978      1.0  0.97309  0.61463  0.40461  1.0000
  S   S979      1.0  0.97025  0.66689  0.35515  1.0000
  S   S980      1.0  0.97146  0.65666  0.38935  1.0000
  H   H4264     1.0  0.56379  0.75110  0.21937  1.0000
  H   H4265     1.0  0.52700  0.74675  0.13760  1.0000
  S   S981      1.0  0.52074  0.60087  0.99477  1.0000
  S   S982      1.0  0.59962  0.71701  0.99681  1.0000
  C   C3563     1.0  0.55231  0.75607  0.22033  1.0000
  C   C3564     1.0  0.52184  0.71385  0.15699  1.0000
  H   H4266     1.0  0.65722  0.70952  0.99511  1.0000
  H   H4267     1.0  0.94485  0.61920  0.29663  1.0000
  C   C3565     1.0  0.88872  0.73996  0.48034  1.0000
  C   C3566     1.0  0.55988  0.69379  0.15469  1.0000
  C   C3567     1.0  0.50646  0.77801  0.13934  1.0000
  C   C3568     1.0  0.52308  0.76973  0.22210  1.0000
  H   H4268     1.0  0.93403  0.62166  0.26436  1.0000
  C   C3569     1.0  0.65663  0.61967  0.02825  1.0000
  C   C3570     1.0  0.99656  0.62348  0.40558  1.0000
  H   H4269     1.0  0.65653  0.63104  0.02523  1.0000
  H   H4270     1.0  0.92974  0.64392  0.26659  1.0000
  C   C3571     1.0  0.58781  0.67512  0.14260  1.0000
  N   N236      1.0  0.65799  0.68756  0.00676  1.0000
  H   H4271     1.0  0.69462  0.65048  0.99052  1.0000
  H   H4272     1.0  0.56752  0.64534  0.05039  1.0000
  C   C3572     1.0  0.55116  0.59855  0.01577  1.0000
  H   H4273     1.0  0.67580  0.67247  0.98699  1.0000
  Fe  Fe493     1.0  0.99296  0.78658  0.48341  1.0000
  H   H4274     1.0  0.57194  0.78482  0.10618  1.0000
  C   C3573     1.0  0.65755  0.60538  0.09242  1.0000
  H   H4275     1.0  0.52243  0.61571  0.02754  1.0000
  C   C3574     1.0  0.60882  0.60226  0.08017  1.0000
  H   H4276     1.0  0.88792  0.77875  0.46729  1.0000
  C   C3575     1.0  0.96230  0.62535  0.33389  1.0000
  C   C3576     1.0  0.94795  0.62539  0.34154  1.0000
  C   C3577     1.0  0.93972  0.61761  0.33843  1.0000
  C   C3578     1.0  0.94580  0.60962  0.32778  1.0000
  C   C3579     1.0  0.96020  0.60946  0.32029  1.0000
  C   C3580     1.0  0.96836  0.61734  0.32329  1.0000
  H   H4277     1.0  0.94313  0.63158  0.34968  1.0000
  H   H4278     1.0  0.92859  0.61781  0.34426  1.0000
  H   H4279     1.0  0.96502  0.60348  0.31198  1.0000
  H   H4280     1.0  0.97943  0.61724  0.31729  1.0000
  C   C3581     1.0  0.93671  0.71537  0.40641  1.0000
  C   C3582     1.0  0.92657  0.71906  0.39788  1.0000
  C   C3583     1.0  0.92629  0.70938  0.39012  1.0000
  C   C3584     1.0  0.93604  0.69594  0.39093  1.0000
  C   C3585     1.0  0.94564  0.69202  0.40005  1.0000
  C   C3586     1.0  0.94610  0.70175  0.40760  1.0000
  H   H4281     1.0  0.91928  0.72953  0.39686  1.0000
  H   H4282     1.0  0.91867  0.71244  0.38325  1.0000
  H   H4283     1.0  0.95280  0.68150  0.40123  1.0000
  H   H4284     1.0  0.95384  0.69872  0.41434  1.0000
  H   H4285     1.0  0.97589  0.73163  0.48200  1.0000
  N   N237      1.0  0.58156  0.65554  0.05551  1.0000
  H   H4286     1.0  0.90549  0.59175  0.30461  1.0000
  H   H4287     1.0  0.66105  0.59888  0.10242  1.0000
  H   H4288     1.0  0.89624  0.74482  0.47148  1.0000
  H   H4289     1.0  0.54486  0.61070  0.99606  1.0000
  H   H4290     1.0  0.88291  0.69055  0.45492  1.0000
  H   H4291     1.0  0.63775  0.59322  0.08415  1.0000
  C   C3587     1.0  0.99433  0.59975  0.41956  1.0000
  C   C3588     1.0  0.94188  0.62888  0.28825  1.0000
  H   H4292     1.0  0.64548  0.60735  0.09467  1.0000
  H   H4293     1.0  0.50989  0.74545  0.21761  1.0000
  C   C3589     1.0  0.69094  0.64847  0.01317  1.0000
  C   C3590     1.0  0.67741  0.66760  0.99769  1.0000
  H   H4294     1.0  0.94065  0.77717  0.42871  1.0000
  C   C3591     1.0  0.92723  0.61584  0.27325  1.0000
  C   C3592     1.0  0.57731  0.63425  0.07559  1.0000
  S   S983      1.0  0.87559  0.73755  0.46054  1.0000
  C   C3593     1.0  0.57014  0.78333  0.99065  1.0000
  H   H4295     1.0  0.58532  0.69492  0.15839  1.0000
  N   N238      1.0  0.50268  0.61485  0.04396  1.0000
  C   C3594     1.0  0.61377  0.62060  0.09419  1.0000
  C   C3595     1.0  0.61464  0.62462  0.07940  1.0000
  C   C3596     1.0  0.61215  0.61544  0.07238  1.0000
  C   C3597     1.0  0.96261  0.75837  0.47122  1.0000
  C   C3598     1.0  0.51184  0.72058  0.13582  1.0000
  H   H4296     1.0  0.61711  0.63483  0.07340  1.0000
  H   H4297     1.0  0.61297  0.61843  0.06098  1.0000
  C   C3599     1.0  0.61631  0.67647  0.02760  1.0000
  C   C3600     1.0  0.61350  0.68973  0.03120  1.0000
  C   C3601     1.0  0.61206  0.67566  0.01574  1.0000
  H   H4298     1.0  0.61649  0.69038  0.04056  1.0000
  H   H4299     1.0  0.61365  0.66539  0.01325  1.0000
  C   C3602     1.0  0.69965  0.61230  0.09004  1.0000
  C   C3603     1.0  0.70618  0.61811  0.07599  1.0000
  C   C3604     1.0  0.69942  0.63155  0.06873  1.0000
  C   C3605     1.0  0.68594  0.63904  0.07531  1.0000
  C   C3606     1.0  0.67934  0.63313  0.08927  1.0000
  C   C3607     1.0  0.68629  0.61991  0.09668  1.0000
  H   H4300     1.0  0.71651  0.61235  0.07081  1.0000
  H   H4301     1.0  0.70462  0.63612  0.05796  1.0000
  H   H4302     1.0  0.66902  0.63890  0.09447  1.0000
  H   H4303     1.0  0.68121  0.61547  0.10755  1.0000
  H   H4304     1.0  0.99105  0.71165  0.34818  1.0000
  C   C3608     1.0  0.56442  0.71280  0.13433  1.0000
  C   C3609     1.0  0.57710  0.63373  0.09995  1.0000
  C   C3610     1.0  0.56877  0.65617  0.05010  1.0000
  C   C3611     1.0  0.59645  0.66450  0.13526  1.0000
  H   H4305     1.0  0.57992  0.65286  0.10359  1.0000
  H   H4306     1.0  0.58134  0.66603  0.07902  1.0000
  H   H4307     1.0  0.66021  0.61605  0.09019  1.0000
  H   H4308     1.0  0.97774  0.69204  0.36176  1.0000
  H   H4309     1.0  0.86343  0.78010  0.42616  1.0000
  C   C3612     1.0  0.60275  0.72613  0.11789  1.0000
  C   C3613     1.0  0.59384  0.73158  0.10801  1.0000
  C   C3614     1.0  0.59575  0.72447  0.09709  1.0000
  C   C3615     1.0  0.60648  0.71181  0.09601  1.0000
  C   C3616     1.0  0.61527  0.70625  0.10598  1.0000
  C   C3617     1.0  0.61348  0.71347  0.11680  1.0000
  H   H4310     1.0  0.58571  0.74143  0.10859  1.0000
  H   H4311     1.0  0.58902  0.72890  0.08932  1.0000
  H   H4312     1.0  0.62357  0.69652  0.10524  1.0000
  H   H4313     1.0  0.62046  0.70921  0.12436  1.0000
  C   C3618     1.0  0.56938  0.78435  0.18753  1.0000
  H   H4314     1.0  0.50565  0.60234  0.06485  1.0000
  C   C3619     1.0  0.50784  0.75584  0.20978  1.0000
  C   C3620     1.0  0.58278  0.69070  0.12028  1.0000
  H   H4315     1.0  0.99272  0.63320  0.39832  1.0000
  C   C3621     1.0  0.95692  0.73150  0.46699  1.0000
  H   H4316     1.0  0.52016  0.62506  0.04118  1.0000
  H   H4317     1.0  0.52823  0.77861  0.18655  1.0000
  H   H4318     1.0  0.67812  0.61360  0.01558  1.0000
  C   C3622     1.0  0.58077  0.70386  0.15021  1.0000
  C   C3623     1.0  0.61027  0.60750  0.10192  1.0000
  C   C3624     1.0  0.94961  0.72754  0.44756  1.0000
  C   C3625     1.0  0.52986  0.75005  0.19256  1.0000
  C   C3626     1.0  0.88460  0.77552  0.47910  1.0000
  N   N239      1.0  0.57157  0.69960  0.14339  1.0000
  H   H4319     1.0  0.51122  0.78278  0.19868  1.0000
  H   H4320     1.0  0.57514  0.61593  0.09311  1.0000
  H   H4321     1.0  0.55855  0.66169  0.05643  1.0000
  H   H4322     1.0  0.96897  0.72904  0.36709  1.0000
  H   H4323     1.0  0.55643  0.77587  0.07952  1.0000
  C   C3627     1.0  0.57617  0.62701  0.08990  1.0000
  H   H4324     1.0  0.57310  0.73849  0.98811  1.0000
  C   C3628     1.0  0.52624  0.72685  0.15323  1.0000
  H   H4325     1.0  0.96595  0.71759  0.35775  1.0000
  H   H4326     1.0  0.56418  0.68449  0.16271  1.0000
  C   C3629     1.0  0.60748  0.70232  0.02220  1.0000
  H   H4327     1.0  0.99426  0.65286  0.32827  1.0000
  C   C3630     1.0  0.59469  0.64707  0.04751  1.0000
  H   H4328     1.0  0.95587  0.72930  0.47842  1.0000
  H   H4329     1.0  0.55706  0.71046  0.12906  1.0000
  H   H4330     1.0  0.55927  0.60445  0.01449  1.0000
  H   H4331     1.0  0.86497  0.78763  0.46493  1.0000
  C   C3631     1.0  0.57888  0.64780  0.09578  1.0000
  H   H4332     1.0  0.52553  0.77882  0.23815  1.0000
  S   S984      1.0  0.58448  0.64345  0.01869  1.0000
  C   C3632     1.0  0.64732  0.68561  0.99994  1.0000
  H   H4333     1.0  0.99505  0.70637  0.42004  1.0000
  H   H4334     1.0  0.51727  0.77847  0.08328  1.0000
  C   C3633     1.0  0.89012  0.69737  0.45492  1.0000
  H   H4335     1.0  0.65220  0.68417  0.98884  1.0000
  H   H4336     1.0  0.94859  0.62652  0.27784  1.0000
  S   S985      1.0  0.98727  0.63467  0.36754  1.0000
  H   H4337     1.0  0.96209  0.60525  0.36234  1.0000
  H   H4338     1.0  0.58695  0.67281  0.15398  1.0000
  H   H4339     1.0  0.00090  0.63444  0.31769  1.0000
  C   C3634     1.0  0.57987  0.65520  0.08150  1.0000
  C   C3635     1.0  0.59112  0.65073  0.00066  1.0000
  H   H4340     1.0  0.53589  0.78191  0.05257  1.0000
  H   H4341     1.0  0.92840  0.60072  0.26096  1.0000
  H   H4342     1.0  0.99024  0.72935  0.46659  1.0000
  H   H4343     1.0  0.50434  0.60265  0.02860  1.0000
  C   C3636     1.0  0.91817  0.63633  0.30258  1.0000
  C   C3637     1.0  0.92416  0.60380  0.27119  1.0000
  C   C3638     1.0  0.64465  0.60018  0.04160  1.0000
  H   H4344     1.0  0.94295  0.71732  0.46961  1.0000
  H   H4345     1.0  0.55279  0.70198  0.16078  1.0000
  N   N240      1.0  0.98175  0.70736  0.37089  1.0000
  C   C3639     1.0  0.91129  0.59869  0.29578  1.0000
  H   H4346     1.0  0.64270  0.67613  0.00620  1.0000
  C   C3640     1.0  0.97588  0.71587  0.39404  1.0000
  H   H4347     1.0  0.57257  0.71828  0.12610  1.0000
  S   S986      1.0  0.70744  0.59524  0.09930  1.0000
  N   N241      1.0  0.53965  0.77037  0.07348  1.0000
  C   C3641     1.0  0.53611  0.77107  0.05980  1.0000
  C   C3642     1.0  0.52823  0.78075  0.08097  1.0000
  C   C3643     1.0  0.55358  0.77503  0.06984  1.0000
  C   C3644     1.0  0.54017  0.75575  0.08267  1.0000
  C   C3645     1.0  0.55231  0.74767  0.08873  1.0000
  C   C3646     1.0  0.52807  0.74933  0.08618  1.0000
  C   C3647     1.0  0.55228  0.73398  0.09754  1.0000
  C   C3648     1.0  0.52821  0.73562  0.09491  1.0000
  C   C3649     1.0  0.54026  0.72797  0.10063  1.0000
  H   H4348     1.0  0.52522  0.76895  0.06132  1.0000
  C   C3650     1.0  0.58061  0.68854  0.13535  1.0000
  C   C3651     1.0  0.55506  0.78784  0.99402  1.0000
  H   H4349     1.0  0.90122  0.78885  0.48440  1.0000
  H   H4350     1.0  0.98928  0.76142  0.45598  1.0000
  C   C3652     1.0  0.96674  0.59446  0.36757  1.0000
  C   C3653     1.0  0.95717  0.73752  0.43796  1.0000
  C   C3654     1.0  0.54651  0.78203  0.98920  1.0000
  H   H4351     1.0  0.89795  0.69077  0.46164  1.0000
  H   H4352     1.0  0.56194  0.75169  0.08690  1.0000
  H   H4353     1.0  0.51828  0.75495  0.08233  1.0000
  H   H4354     1.0  0.56165  0.72804  0.10203  1.0000
  H   H4355     1.0  0.91596  0.70509  0.44680  1.0000
  H   H4356     1.0  0.54011  0.71746  0.10764  1.0000
  C   C3655     1.0  0.99385  0.71057  0.35851  1.0000
  C   C3656     1.0  0.64462  0.61484  0.03759  1.0000
  H   H4357     1.0  0.99139  0.74950  0.44465  1.0000
  C   C3657     1.0  0.98532  0.70753  0.38426  1.0000
  H   H4358     1.0  0.91116  0.64720  0.27643  1.0000
  C   C3658     1.0  0.57940  0.64851  0.07090  1.0000
  N   N242      1.0  0.89749  0.70331  0.44014  1.0000
  H   H4359     1.0  0.56271  0.76757  0.06430  1.0000
  C   C3659     1.0  0.90750  0.71165  0.44082  1.0000
  C   C3660     1.0  0.88615  0.71352  0.43283  1.0000
  C   C3661     1.0  0.90585  0.69149  0.43285  1.0000
  C   C3662     1.0  0.90319  0.69012  0.42010  1.0000
  C   C3663     1.0  0.91716  0.68090  0.43847  1.0000
  C   C3664     1.0  0.91139  0.67886  0.41348  1.0000
  C   C3665     1.0  0.92539  0.66977  0.43166  1.0000
  C   C3666     1.0  0.92253  0.66878  0.41917  1.0000
  C   C3667     1.0  0.76622  0.60004  0.01642  1.0000
  H   H4360     1.0  0.57705  0.62839  0.06813  1.0000
  H   H4361     1.0  0.92133  0.62787  0.31183  1.0000
  H   H4362     1.0  0.91318  0.71634  0.42992  1.0000
  H   H4363     1.0  0.73064  0.59969  0.00712  1.0000
  H   H4364     1.0  0.90156  0.72062  0.44625  1.0000
  H   H4365     1.0  0.87787  0.70811  0.43239  1.0000
  H   H4366     1.0  0.88011  0.72232  0.43853  1.0000
  H   H4367     1.0  0.89101  0.71882  0.42179  1.0000
  H   H4368     1.0  0.89504  0.69772  0.41482  1.0000
  H   H4369     1.0  0.91985  0.68125  0.44808  1.0000
  H   H4370     1.0  0.90949  0.67823  0.40353  1.0000
  H   H4371     1.0  0.93417  0.66196  0.43595  1.0000
  H   H4372     1.0  0.92912  0.66037  0.41367  1.0000
  N   N243      1.0  0.97333  0.74827  0.46291  1.0000
  H   H4373     1.0  0.00124  0.66422  0.33409  1.0000
  C   C3668     1.0  0.74056  0.59972  0.00974  1.0000
  C   C3669     1.0  0.96823  0.71789  0.36793  1.0000
  C   C3670     1.0  0.96538  0.74118  0.45741  1.0000
  H   H4374     1.0  0.97718  0.76555  0.44460  1.0000
  H   H4375     1.0  0.66374  0.61763  0.06392  1.0000
  H   H4376     1.0  0.59874  0.63061  0.99403  1.0000
  H   H4377     1.0  0.60508  0.65873  0.11485  1.0000
  H   H4378     1.0  0.55277  0.69034  0.15000  1.0000
  H   H4379     1.0  0.90618  0.63838  0.30389  1.0000
  C   C3671     1.0  0.51818  0.77469  0.19249  1.0000
  H   H4380     1.0  0.66639  0.67103  0.03250  1.0000
  C   C3672     1.0  0.74971  0.60854  0.00030  1.0000
  H   H4381     1.0  0.52527  0.60578  0.04471  1.0000
  C   C3673     1.0  0.59787  0.64208  0.99073  1.0000
  H   H4382     1.0  0.50446  0.62516  0.01508  1.0000
  H   H4383     1.0  0.64123  0.70248  0.01792  1.0000
  C   C3674     1.0  0.99239  0.70677  0.41012  1.0000
  C   C3675     1.0  0.91624  0.59523  0.28243  1.0000
  C   C3676     1.0  0.98324  0.75645  0.45150  1.0000
  H   H4384     1.0  0.51171  0.70047  0.15115  1.0000
  H   H4385     1.0  0.60427  0.64536  0.05209  1.0000
  H   H4386     1.0  0.55086  0.74755  0.20387  1.0000
  C   C3677     1.0  0.51828  0.61541  0.03915  1.0000
  H   H4387     1.0  0.95529  0.76632  0.46458  1.0000
  H   H4388     1.0  0.57680  0.62790  0.11093  1.0000
  H   H4389     1.0  0.57409  0.67751  0.05783  1.0000
  H   H4390     1.0  0.95672  0.74024  0.42678  1.0000
  H   H4391     1.0  0.96385  0.60024  0.38750  1.0000
  H   H4392     1.0  0.64184  0.59783  0.00972  1.0000
  H   H4393     1.0  0.88327  0.70606  0.46050  1.0000
  H   H4394     1.0  0.58455  0.67227  0.00393  1.0000
  C   C3678     1.0  0.93282  0.78621  0.44736  1.0000
  H   H4395     1.0  0.68515  0.64946  0.03536  1.0000
  H   H4396     1.0  0.59362  0.67066  0.05528  1.0000
  H   H4397     1.0  0.59328  0.63637  0.04762  1.0000
  H   H4398     1.0  0.50688  0.59199  0.04568  1.0000
  H   H4399     1.0  0.66139  0.64733  0.99354  1.0000
  H   H4400     1.0  0.92440  0.65491  0.27913  1.0000
  H   H4401     1.0  0.51878  0.73099  0.09751  1.0000
  H   H4402     1.0  0.59314  0.68198  0.10156  1.0000
  C   C3679     1.0  0.94932  0.72467  0.46207  1.0000
  H   H4403     1.0  0.60194  0.65437  0.14097  1.0000
  N   N244      1.0  0.92608  0.63230  0.28874  1.0000
  H   H4404     1.0  0.60596  0.71266  0.02456  1.0000
  H   H4405     1.0  0.52382  0.70619  0.16672  1.0000
  C   C3680     1.0  0.66892  0.59519  0.02683  1.0000
  C   C3681     1.0  0.92223  0.61979  0.28668  1.0000
  H   H4406     1.0  0.97048  0.75199  0.43472  1.0000
  C   C3682     1.0  0.60426  0.70153  0.00973  1.0000
  C   C3683     1.0  0.66519  0.69910  0.99710  1.0000
  H   H4407     1.0  0.51192  0.77563  0.22290  1.0000
  H   H4408     1.0  0.63807  0.69513  0.99907  1.0000
  C   C3684     1.0  0.96774  0.59167  0.38174  1.0000
  C   C3685     1.0  0.99849  0.69887  0.38800  1.0000
  H   H4409     1.0  0.57821  0.70067  0.11371  1.0000
  H   H4410     1.0  0.54001  0.75321  0.18566  1.0000
  H   H4411     1.0  0.54421  0.76309  0.05405  1.0000
  C   C3686     1.0  0.58990  0.66556  0.99630  1.0000
  H   H4412     1.0  0.59014  0.70759  0.14215  1.0000
  H   H4413     1.0  0.68340  0.60759  0.07438  1.0000
  H   H4414     1.0  0.52344  0.74966  0.18516  1.0000
  C   C3687     1.0  0.67206  0.66700  0.02299  1.0000
  H   H4415     1.0  0.96482  0.78322  0.42264  1.0000
  H   H4416     1.0  0.53041  0.78045  0.09140  1.0000
  H   H4417     1.0  0.51230  0.77464  0.18449  1.0000
  H   H4418     1.0  0.64789  0.61064  0.06892  1.0000
  H   H4419     1.0  0.65693  0.69497  0.02541  1.0000
  C   C3688     1.0  0.98896  0.61251  0.41043  1.0000
  C   C3689     1.0  0.60610  0.68818  0.00682  1.0000
  C   C3690     1.0  0.68818  0.65501  0.99963  1.0000
  H   H4420     1.0  0.99394  0.60189  0.37554  1.0000
  S   S987      1.0  0.93503  0.60049  0.32359  1.0000
  H   H4421     1.0  0.56978  0.66201  0.03869  1.0000
  N   N245      1.0  0.52166  0.76029  0.20186  1.0000
  H   H4422     1.0  0.87629  0.76897  0.48191  1.0000
  C   C3691     1.0  0.64973  0.69250  0.02005  1.0000
  H   H4423     1.0  0.60314  0.68758  0.99748  1.0000
  C   C3692     1.0  0.52979  0.76106  0.21194  1.0000
  H   H4424     1.0  0.60960  0.60434  0.11332  1.0000
  C   C3693     1.0  0.54467  0.75410  0.21144  1.0000
  C   C3694     1.0  0.51494  0.71061  0.14819  1.0000
  C   C3695     1.0  0.68287  0.65442  0.02482  1.0000
  H   H4425     1.0  0.57458  0.71281  0.15565  1.0000
  H   H4426     1.0  0.55757  0.72077  0.14074  1.0000
  C   C3696     1.0  0.59208  0.79049  0.18603  1.0000
  H   H4427     1.0  0.96559  0.72274  0.39224  1.0000
  C   C3697     1.0  0.76243  0.60877  0.00377  1.0000
  Fe  Fe494     1.0  0.59927  0.59737  0.05130  1.0000
  C   C3698     1.0  0.65993  0.60741  0.06731  1.0000
  H   H4428     1.0  0.94532  0.63779  0.29011  1.0000
  H   H4429     1.0  0.51397  0.74135  0.12244  1.0000
  C   C3699     1.0  0.94314  0.78265  0.43532  1.0000
  H   H4430     1.0  0.51018  0.76899  0.14751  1.0000
  H   H4431     1.0  0.58919  0.77873  0.17223  1.0000
  C   C3700     1.0  0.95677  0.78612  0.43188  1.0000
  H   H4432     1.0  0.59750  0.65256  0.03606  1.0000
  C   C3701     1.0  0.59143  0.67999  0.11308  1.0000
  C   C3702     1.0  0.87747  0.73556  0.47799  1.0000
  H   H4433     1.0  0.63045  0.66154  0.98980  1.0000
  H   H4434     1.0  0.63524  0.62255  0.04180  1.0000
  H   H4435     1.0  0.63505  0.59719  0.04903  1.0000
  Fe  Fe495     1.0  0.57693  0.59385  0.03712  1.0000
  C   C3703     1.0  0.64366  0.61924  0.99816  1.0000
  C   C3704     1.0  0.54292  0.60215  0.00537  1.0000
  H   H4436     1.0  0.64398  0.68427  0.02767  1.0000
  C   C3705     1.0  0.53082  0.77165  0.23091  1.0000
  H   H4437     1.0  0.63373  0.62359  0.00505  1.0000
  H   H4438     1.0  0.76948  0.61561  0.99656  1.0000
  H   H4439     1.0  0.98935  0.68442  0.37416  1.0000
  C   C3706     1.0  0.65167  0.62802  0.98660  1.0000
  C   C3707     1.0  0.60786  0.59835  0.09493  1.0000
  H   H4440     1.0  0.77621  0.60017  0.01888  1.0000
  S   S988      1.0  0.95613  0.59177  0.28527  1.0000
  S   S989      1.0  0.91580  0.78185  0.45212  1.0000
  H   H4441     1.0  0.91043  0.61251  0.30868  1.0000
  H   H4442     1.0  0.94361  0.72232  0.44378  1.0000
  C   C3708     1.0  0.51612  0.73368  0.13207  1.0000
  C   C3709     1.0  0.54543  0.76488  0.22999  1.0000
  H   H4443     1.0  0.97041  0.69029  0.38058  1.0000
  H   H4444     1.0  0.92074  0.64613  0.30358  1.0000
  S   S990      1.0  0.50330  0.71593  0.12498  1.0000
  H   H4445     1.0  0.66431  0.60191  0.05825  1.0000
  H   H4446     1.0  0.57672  0.78793  0.99442  1.0000
  H   H4447     1.0  0.55301  0.78583  0.06249  1.0000
  C   C3710     1.0  0.91420  0.61077  0.29794  1.0000
  H   H4448     1.0  0.50702  0.78949  0.04508  1.0000
  H   H4449     1.0  0.89451  0.76832  0.48261  1.0000
  C   C3711     1.0  0.53181  0.59512  0.00725  1.0000
  H   H4450     1.0  0.97181  0.72155  0.41422  1.0000
  H   H4451     1.0  0.00102  0.66750  0.31549  1.0000
  H   H4452     1.0  0.60349  0.78985  0.18118  1.0000
  H   H4453     1.0  0.95556  0.75274  0.48069  1.0000
  H   H4454     1.0  0.53476  0.78552  0.99186  1.0000
  C   C3712     1.0  0.68065  0.59688  0.07770  1.0000
  H   H4455     1.0  0.99667  0.72073  0.35820  1.0000
  S   S991      1.0  0.88457  0.79011  0.40119  1.0000
  N   N246      1.0  0.87912  0.78814  0.48575  1.0000
  C   C3713     1.0  0.00196  0.69859  0.40070  1.0000
  H   H4456     1.0  0.55162  0.79121  0.20435  1.0000
  C   C3714     1.0  0.56553  0.79101  0.09839  1.0000
  C   C3715     1.0  0.56289  0.79115  0.19905  1.0000
  H   H4457     1.0  0.00084  0.59134  0.39090  1.0000
  C   C3716     1.0  0.74414  0.59129  0.02273  1.0000
  C   C3717     1.0  0.75708  0.59138  0.02599  1.0000
  C   C3718     1.0  0.58451  0.69374  0.93935  1.0000
  H   H4458     1.0  0.95617  0.65967  0.67389  1.0000
  S   S992      1.0  0.98865  0.60796  0.73701  1.0000
  C   C3719     1.0  0.54696  0.73463  0.93958  1.0000
  S   S993      1.0  0.52739  0.77541  0.95440  1.0000
  Fe  Fe496     1.0  0.96091  0.59918  0.70732  1.0000
  Fe  Fe497     1.0  0.70928  0.62067  0.95652  1.0000
  S   S994      1.0  0.73335  0.61888  0.95058  1.0000
  S   S995      1.0  0.69269  0.63613  0.94484  1.0000
  H   H4459     1.0  0.54584  0.76763  0.97745  1.0000
  C   C3720     1.0  0.54519  0.78499  0.80084  1.0000
  Fe  Fe498     1.0  0.73205  0.61190  0.97425  1.0000
  C   C3721     1.0  0.84216  0.76556  0.50790  1.0000
  H   H4460     1.0  0.83932  0.77447  0.55710  1.0000
  H   H4461     1.0  0.60108  0.75545  0.86754  1.0000
  Fe  Fe499     1.0  0.64090  0.70371  0.95652  1.0000
  S   S996      1.0  0.62612  0.72468  0.96026  1.0000
  S   S997      1.0  0.66410  0.69707  0.95902  1.0000
  Fe  Fe500     1.0  0.61629  0.69148  0.95581  1.0000
  S   S998      1.0  0.59919  0.71123  0.95957  1.0000
  S   S999      1.0  0.61168  0.67087  0.95515  1.0000
  Fe  Fe501     1.0  0.61553  0.72303  0.94384  1.0000
  S   S1000     1.0  0.60637  0.74316  0.92918  1.0000
  C   C3722     1.0  0.99076  0.74037  0.50590  1.0000
  H   H4462     1.0  0.92859  0.67999  0.62259  1.0000
  S   S1001     1.0  0.63174  0.70321  0.93847  1.0000
  H   H4463     1.0  0.51016  0.73408  0.89280  1.0000
  H   H4464     1.0  0.55687  0.69850  0.92332  1.0000
  Fe  Fe502     1.0  0.57134  0.77383  0.85278  1.0000
  S   S1002     1.0  0.56243  0.75443  0.85644  1.0000
  S   S1003     1.0  0.59218  0.77612  0.83663  1.0000
  Fe  Fe503     1.0  0.54880  0.78486  0.87707  1.0000
  S   S1004     1.0  0.53779  0.76645  0.88327  1.0000
  H   H4465     1.0  0.52544  0.78847  0.77622  1.0000
  Fe  Fe504     1.0  0.56046  0.75281  0.87969  1.0000
  S   S1005     1.0  0.56907  0.73165  0.89347  1.0000
  Fe  Fe505     1.0  0.54066  0.76955  0.85956  1.0000
  S   S1006     1.0  0.52301  0.76990  0.84929  1.0000
  S   S1007     1.0  0.57114  0.77100  0.87576  1.0000
  H   H4466     1.0  0.61837  0.76802  0.85045  1.0000
  C   C3723     1.0  0.84561  0.76767  0.53019  1.0000
  C   C3724     1.0  0.56829  0.69653  0.92433  1.0000
  H   H4467     1.0  0.90941  0.69687  0.55387  1.0000
  C   C3725     1.0  0.96212  0.67043  0.69358  1.0000
  H   H4468     1.0  0.62925  0.77640  0.85609  1.0000
  H   H4469     1.0  0.94959  0.68239  0.59256  1.0000
  H   H4470     1.0  0.97495  0.74841  0.56628  1.0000
  H   H4471     1.0  0.65554  0.66241  0.97980  1.0000
  C   C3726     1.0  0.96696  0.74592  0.54325  1.0000
  H   H4472     1.0  0.56496  0.68164  0.95972  1.0000
  S   S1008     1.0  0.62661  0.69061  0.97333  1.0000
  Fe  Fe506     1.0  0.96754  0.66263  0.62869  1.0000
  S   S1009     1.0  0.96363  0.68657  0.62485  1.0000
  S   S1010     1.0  0.94791  0.65303  0.63772  1.0000
  H   H4473     1.0  0.57424  0.68623  0.92111  1.0000
  H   H4474     1.0  0.59121  0.68402  0.93536  1.0000
  H   H4475     1.0  0.50435  0.78058  0.92369  1.0000
  Fe  Fe507     1.0  0.98394  0.68189  0.63303  1.0000
  N   N247      1.0  0.92948  0.67550  0.60241  1.0000
  Fe  Fe508     1.0  0.97876  0.68504  0.60356  1.0000
  S   S1011     1.0  0.97602  0.69835  0.58172  1.0000
  H   H4476     1.0  0.63344  0.75732  0.85769  1.0000
  S   S1012     1.0  0.98127  0.66133  0.60676  1.0000
  H   H4477     1.0  0.65346  0.64506  0.96008  1.0000
  Fe  Fe509     1.0  0.50452  0.78677  0.96270  1.0000
  Fe  Fe510     1.0  0.89924  0.73913  0.52643  1.0000
  S   S1013     1.0  0.91340  0.75195  0.50874  1.0000
  S   S1014     1.0  0.88163  0.73052  0.52361  1.0000
  Fe  Fe511     1.0  0.91276  0.74168  0.54929  1.0000
  S   S1015     1.0  0.92761  0.75502  0.53344  1.0000
  S   S1016     1.0  0.91422  0.73580  0.57237  1.0000
  Fe  Fe512     1.0  0.90825  0.76642  0.52386  1.0000
  H   H4478     1.0  0.99857  0.70061  0.66740  1.0000
  Fe  Fe513     1.0  0.93116  0.73920  0.52011  1.0000
  S   S1017     1.0  0.95355  0.72860  0.51000  1.0000
  S   S1018     1.0  0.89288  0.75447  0.54090  1.0000
  S   S1019     1.0  0.91752  0.72506  0.53659  1.0000
  Fe  Fe514     1.0  0.61094  0.71146  0.97559  1.0000
  H   H4479     1.0  0.55495  0.72255  0.92365  1.0000
  H   H4480     1.0  0.97843  0.77268  0.52922  1.0000
  C   C3727     1.0  0.89024  0.73817  0.49429  1.0000
  C   C3728     1.0  0.88037  0.73223  0.50599  1.0000
  C   C3729     1.0  0.86907  0.72785  0.50365  1.0000
  H   H4481     1.0  0.67101  0.62678  0.96914  1.0000
  C   C3730     1.0  0.52934  0.78436  0.78604  1.0000
  H   H4482     1.0  0.89913  0.74130  0.49592  1.0000
  H   H4483     1.0  0.86141  0.72317  0.51265  1.0000
  C   C3731     1.0  0.55196  0.72315  0.96289  1.0000
  H   H4484     1.0  0.55108  0.76699  0.93130  1.0000
  H   H4485     1.0  0.52743  0.74691  0.87386  1.0000
  H   H4486     1.0  0.93268  0.77425  0.54951  1.0000
  C   C3732     1.0  0.53908  0.77413  0.81144  1.0000
  H   H4487     1.0  0.79666  0.60590  0.94582  1.0000
  S   S1020     1.0  0.98168  0.60654  0.70170  1.0000
  C   C3733     1.0  0.98919  0.63942  0.70117  1.0000
  S   S1021     1.0  0.98649  0.69160  0.64955  1.0000
  C   C3734     1.0  0.59104  0.75179  0.96590  1.0000
  C   C3735     1.0  0.83470  0.77986  0.50546  1.0000
  C   C3736     1.0  0.64380  0.64835  0.96842  1.0000
  H   H4488     1.0  0.57552  0.75179  0.94869  1.0000
  C   C3737     1.0  0.95637  0.77124  0.54144  1.0000
  H   H4489     1.0  0.84374  0.75910  0.50026  1.0000
  C   C3738     1.0  0.91343  0.69263  0.56361  1.0000
  C   C3739     1.0  0.57026  0.75989  0.95538  1.0000
  C   C3740     1.0  0.94155  0.77835  0.54178  1.0000
  H   H4490     1.0  0.97049  0.73531  0.55028  1.0000
  H   H4491     1.0  0.91222  0.68753  0.61612  1.0000
  C   C3741     1.0  0.96697  0.77769  0.53060  1.0000
  C   C3742     1.0  0.95861  0.70835  0.57950  1.0000
  C   C3743     1.0  0.95558  0.71223  0.56588  1.0000
  C   C3744     1.0  0.94188  0.72040  0.56369  1.0000
  C   C3745     1.0  0.93116  0.72488  0.57511  1.0000
  C   C3746     1.0  0.93418  0.72103  0.58875  1.0000
  C   C3747     1.0  0.94786  0.71272  0.59097  1.0000
  H   H4492     1.0  0.96384  0.70884  0.55697  1.0000
  H   H4493     1.0  0.93970  0.72334  0.55312  1.0000
  H   H4494     1.0  0.92597  0.72461  0.59758  1.0000
  H   H4495     1.0  0.95018  0.70993  0.60147  1.0000
  H   H4496     1.0  0.57236  0.77186  0.80269  1.0000
  C   C3748     1.0  0.94560  0.67253  0.59877  1.0000
  S   S1022     1.0  0.70766  0.61597  0.98015  1.0000
  H   H4497     1.0  0.89243  0.78244  0.54578  1.0000
  H   H4498     1.0  0.92965  0.65339  0.60361  1.0000
  H   H4499     1.0  0.55638  0.77810  0.90523  1.0000
  C   C3749     1.0  0.94361  0.62408  0.68253  1.0000
  C   C3750     1.0  0.93133  0.63227  0.67733  1.0000
  C   C3751     1.0  0.93283  0.64100  0.66354  1.0000
  C   C3752     1.0  0.94665  0.64184  0.65492  1.0000
  C   C3753     1.0  0.95903  0.63364  0.66005  1.0000
  C   C3754     1.0  0.95751  0.62466  0.67384  1.0000
  H   H4500     1.0  0.92058  0.63182  0.68397  1.0000
  H   H4501     1.0  0.92324  0.64721  0.65960  1.0000
  H   H4502     1.0  0.96972  0.63397  0.65328  1.0000
  H   H4503     1.0  0.96704  0.61814  0.67768  1.0000
  C   C3755     1.0  0.55440  0.72212  0.93469  1.0000
  H   H4504     1.0  0.55834  0.76141  0.95678  1.0000
  H   H4505     1.0  0.60033  0.75148  0.88631  1.0000
  C   C3756     1.0  0.62427  0.76128  0.88377  1.0000
  H   H4506     1.0  0.61583  0.74299  0.87473  1.0000
  H   H4507     1.0  0.51572  0.76905  0.79490  1.0000
  C   C3757     1.0  0.60366  0.64833  0.97649  1.0000
  H   H4508     1.0  0.88562  0.77451  0.50494  1.0000
  H   H4509     1.0  0.81542  0.78465  0.54970  1.0000
  H   H4510     1.0  0.63387  0.75247  0.88139  1.0000
  C   C3758     1.0  0.59592  0.67172  0.98221  1.0000
  C   C3759     1.0  0.59525  0.77981  0.88938  1.0000
  N   N248      1.0  0.61481  0.76525  0.87335  1.0000
  C   C3760     1.0  0.56739  0.77983  0.80955  1.0000
  H   H4511     1.0  0.93480  0.66304  0.57971  1.0000
  H   H4512     1.0  0.59538  0.74734  0.97580  1.0000
  H   H4513     1.0  0.56848  0.67378  0.94496  1.0000
  C   C3761     1.0  0.91484  0.69557  0.58636  1.0000
  H   H4514     1.0  0.56468  0.70181  0.96550  1.0000
  H   H4515     1.0  0.94792  0.64966  0.69802  1.0000
  S   S1023     1.0  0.71127  0.59794  0.95580  1.0000
  H   H4516     1.0  0.51168  0.76643  0.91432  1.0000
  H   H4517     1.0  0.62833  0.77063  0.88375  1.0000
  C   C3762     1.0  0.55967  0.71068  0.95804  1.0000
  C   C3763     1.0  0.66889  0.60595  0.98122  1.0000
  C   C3764     1.0  0.90967  0.70088  0.57378  1.0000
  Fe  Fe515     1.0  0.98284  0.59598  0.72439  1.0000
  H   H4518     1.0  0.96301  0.67004  0.70454  1.0000
  Fe  Fe516     1.0  0.73530  0.59561  0.95171  1.0000
  H   H4519     1.0  0.57481  0.73317  0.97193  1.0000
  H   H4520     1.0  0.90286  0.71160  0.57180  1.0000
  C   C3765     1.0  0.59583  0.73959  0.91972  1.0000
  C   C3766     1.0  0.59995  0.72680  0.91498  1.0000
  C   C3767     1.0  0.59173  0.72430  0.90690  1.0000
  C   C3768     1.0  0.57928  0.73449  0.90377  1.0000
  C   C3769     1.0  0.57503  0.74708  0.90878  1.0000
  C   C3770     1.0  0.58334  0.74972  0.91664  1.0000
  H   H4521     1.0  0.60967  0.71900  0.91724  1.0000
  H   H4522     1.0  0.59517  0.71461  0.90286  1.0000
  H   H4523     1.0  0.56522  0.75469  0.90664  1.0000
  H   H4524     1.0  0.58004  0.75958  0.92037  1.0000
  C   C3771     1.0  0.53181  0.78333  0.93609  1.0000
  H   H4525     1.0  0.52415  0.76016  0.81765  1.0000
  H   H4526     1.0  0.57323  0.77021  0.94905  1.0000
  S   S1024     1.0  0.94105  0.61348  0.70001  1.0000
  C   C3772     1.0  0.51623  0.74911  0.87311  1.0000
  N   N249      1.0  0.96084  0.75744  0.55135  1.0000
  H   H4527     1.0  0.91168  0.70271  0.59359  1.0000
  H   H4528     1.0  0.55121  0.68578  0.94962  1.0000
  H   H4529     1.0  0.85891  0.72603  0.48794  1.0000
  C   C3773     1.0  0.56992  0.74212  0.97759  1.0000
  C   C3774     1.0  0.68588  0.65350  0.94789  1.0000
  C   C3775     1.0  0.67313  0.66158  0.94346  1.0000
  C   C3776     1.0  0.66648  0.67494  0.94687  1.0000
  C   C3777     1.0  0.67289  0.68062  0.95416  1.0000
  C   C3778     1.0  0.68602  0.67282  0.95807  1.0000
  C   C3779     1.0  0.69238  0.65911  0.95520  1.0000
  H   H4530     1.0  0.66820  0.65735  0.93763  1.0000
  H   H4531     1.0  0.65646  0.68089  0.94370  1.0000
  H   H4532     1.0  0.69121  0.67731  0.96343  1.0000
  H   H4533     1.0  0.70234  0.65295  0.95849  1.0000
  H   H4534     1.0  0.66885  0.64734  0.97502  1.0000
  H   H4535     1.0  0.95055  0.66424  0.59233  1.0000
  C   C3780     1.0  0.79371  0.59755  0.95555  1.0000
  H   H4536     1.0  0.92556  0.67275  0.55787  1.0000
  H   H4537     1.0  0.59516  0.68316  0.97901  1.0000
  N   N250      1.0  0.57488  0.75539  0.96919  1.0000
  H   H4538     1.0  0.59560  0.76126  0.95944  1.0000
  C   C3781     1.0  0.99420  0.65973  0.68195  1.0000
  H   H4539     1.0  0.76132  0.59558  0.95152  1.0000
  C   C3782     1.0  0.54405  0.77684  0.92703  1.0000
  C   C3783     1.0  0.98393  0.65166  0.69102  1.0000
  H   H4540     1.0  0.96764  0.67892  0.68607  1.0000
  C   C3784     1.0  0.66445  0.62089  0.97824  1.0000
  C   C3785     1.0  0.56311  0.68389  0.94876  1.0000
  C   C3786     1.0  0.98640  0.75533  0.50314  1.0000
  H   H4541     1.0  0.98253  0.75953  0.55023  1.0000
  C   C3787     1.0  0.98053  0.73207  0.50848  1.0000
  C   C3788     1.0  0.96593  0.73875  0.50859  1.0000
  C   C3789     1.0  0.96147  0.75364  0.50658  1.0000
  C   C3790     1.0  0.97173  0.76191  0.50371  1.0000
  C   C3791     1.0  0.92429  0.68504  0.61269  1.0000
  H   H4542     1.0  0.98396  0.72051  0.51013  1.0000
  H   H4543     1.0  0.95021  0.75886  0.50658  1.0000
  H   H4544     1.0  0.00102  0.60789  0.60750  1.0000
  C   C3792     1.0  0.76963  0.60087  0.95204  1.0000
  S   S1025     1.0  0.74591  0.61917  0.98390  1.0000
  H   H4545     1.0  0.99941  0.63005  0.61526  1.0000
  N   N251      1.0  0.56901  0.69626  0.93904  1.0000
  C   C3793     1.0  0.94866  0.75311  0.56312  1.0000
  H   H4546     1.0  0.56343  0.77398  0.82062  1.0000
  H   H4547     1.0  0.57343  0.70495  0.91625  1.0000
  H   H4548     1.0  0.96834  0.76757  0.56336  1.0000
  H   H4549     1.0  0.87364  0.79099  0.50750  1.0000
  C   C3794     1.0  0.62438  0.76690  0.85878  1.0000
  H   H4550     1.0  0.95879  0.74476  0.53813  1.0000
  C   C3795     1.0  0.53984  0.79010  0.78809  1.0000
  N   N252      1.0  0.96851  0.65624  0.68986  1.0000
  H   H4551     1.0  0.97659  0.74806  0.53460  1.0000
  H   H4552     1.0  0.94025  0.75098  0.55904  1.0000
  H   H4553     1.0  0.77186  0.59303  0.98154  1.0000
  C   C3796     1.0  0.92478  0.66185  0.60986  1.0000
  H   H4554     1.0  0.97355  0.64747  0.67130  1.0000
  C   C3797     1.0  0.92771  0.67360  0.57846  1.0000
  H   H4555     1.0  0.61348  0.78546  0.81224  1.0000
  H   H4556     1.0  0.63508  0.64353  0.96795  1.0000
  C   C3798     1.0  0.84747  0.75947  0.52029  1.0000
  H   H4557     1.0  0.95041  0.67412  0.69316  1.0000
  C   C3799     1.0  0.93769  0.79093  0.53173  1.0000
  H   H4558     1.0  0.59556  0.74341  0.95950  1.0000
  H   H4559     1.0  0.96345  0.63528  0.69697  1.0000
  H   H4560     1.0  0.59733  0.77161  0.89873  1.0000
  S   S1026     1.0  0.99874  0.68276  0.61138  1.0000
  Fe  Fe517     1.0  0.99978  0.65922  0.61653  1.0000
  C   C3800     1.0  0.59926  0.78947  0.86383  1.0000
  S   S1027     1.0  0.99941  0.76569  0.49856  1.0000
  H   H4561     1.0  0.96822  0.77338  0.50199  1.0000
  H   H4562     1.0  0.83036  0.78454  0.49591  1.0000
  C   C3801     1.0  0.54700  0.78300  0.91232  1.0000
  H   H4563     1.0  0.64016  0.66021  0.96510  1.0000
  H   H4564     1.0  0.67866  0.60076  0.97463  1.0000
  C   C3802     1.0  0.95937  0.64613  0.69938  1.0000
  H   H4565     1.0  0.95881  0.64516  0.71087  1.0000
  H   H4566     1.0  0.92805  0.69525  0.60808  1.0000
  C   C3803     1.0  0.96300  0.79051  0.52089  1.0000
  H   H4567     1.0  0.91274  0.66351  0.61207  1.0000
  C   C3804     1.0  0.56092  0.70968  0.94384  1.0000
  H   H4568     1.0  0.79168  0.59379  0.93097  1.0000
  C   C3805     1.0  0.83253  0.78810  0.51541  1.0000
  H   H4569     1.0  0.86685  0.77712  0.50500  1.0000
  H   H4570     1.0  0.94336  0.76143  0.56953  1.0000
  H   H4571     1.0  0.95242  0.74295  0.57065  1.0000
  C   C3806     1.0  0.92395  0.68165  0.58914  1.0000
  H   H4572     1.0  0.85311  0.74828  0.52226  1.0000
  H   H4573     1.0  0.58603  0.69207  0.95033  1.0000
  C   C3807     1.0  0.97213  0.75833  0.55806  1.0000
  C   C3808     1.0  0.92250  0.67904  0.56591  1.0000
  C   C3809     1.0  0.56834  0.76678  0.97741  1.0000
  C   C3810     1.0  0.96761  0.65753  0.67497  1.0000
  C   C3811     1.0  0.54563  0.73512  0.95367  1.0000
  H   H4574     1.0  0.92811  0.65728  0.62028  1.0000
  C   C3812     1.0  0.60774  0.75327  0.87559  1.0000
  H   H4575     1.0  0.54218  0.77006  0.82163  1.0000
  H   H4576     1.0  0.61859  0.75711  0.89490  1.0000
  C   C3813     1.0  0.86765  0.72947  0.48967  1.0000
  C   C3814     1.0  0.60339  0.77835  0.87545  1.0000
  C   C3815     1.0  0.52381  0.77350  0.79658  1.0000
  H   H4577     1.0  0.54218  0.74404  0.93237  1.0000
  C   C3816     1.0  0.87609  0.78252  0.50145  1.0000
  S   S1028     1.0  0.90162  0.79015  0.51508  1.0000
  H   H4578     1.0  0.95010  0.66854  0.60854  1.0000
  C   C3817     1.0  0.52860  0.76846  0.80930  1.0000
  H   H4579     1.0  0.60903  0.64165  0.96883  1.0000
  H   H4580     1.0  0.97223  0.66651  0.66730  1.0000
  H   H4581     1.0  0.57631  0.78422  0.81028  1.0000
  C   C3818     1.0  0.51145  0.75931  0.86157  1.0000
  H   H4582     1.0  0.55792  0.74365  0.97974  1.0000
  H   H4583     1.0  0.58927  0.70300  0.93269  1.0000
  H   H4584     1.0  0.53965  0.74480  0.95742  1.0000
  H   H4585     1.0  0.85011  0.76221  0.53949  1.0000
  C   C3819     1.0  0.83810  0.78232  0.52800  1.0000
  C   C3820     1.0  0.84327  0.78415  0.55026  1.0000
  H   H4586     1.0  0.85524  0.78110  0.54608  1.0000
  H   H4587     1.0  0.60442  0.78916  0.85282  1.0000
  C   C3821     1.0  0.60300  0.66312  0.97235  1.0000
  H   H4588     1.0  0.99091  0.66938  0.67428  1.0000
  H   H4589     1.0  0.55085  0.72351  0.97387  1.0000
  S   S1029     1.0  0.98640  0.65811  0.63878  1.0000
  S   S1030     1.0  0.54966  0.78923  0.85368  1.0000
  C   C3822     1.0  0.65868  0.65050  0.98285  1.0000
  Fe  Fe518     1.0  0.71161  0.59310  0.97889  1.0000
  N   N253      1.0  0.64696  0.64384  0.98288  1.0000
  H   H4590     1.0  0.98220  0.63286  0.70892  1.0000
  H   H4591     1.0  0.77116  0.60930  0.94203  1.0000
  H   H4592     1.0  0.58848  0.76979  0.98049  1.0000
  C   C3823     1.0  0.50650  0.74174  0.88374  1.0000
  H   H4593     1.0  0.76489  0.60657  0.96094  1.0000
  C   C3824     1.0  0.55300  0.77174  0.98095  1.0000
  H   H4594     1.0  0.78912  0.60320  0.96452  1.0000
  C   C3825     1.0  0.57676  0.77290  0.98253  1.0000
  N   N254      1.0  0.83546  0.79121  0.53847  1.0000
  Fe  Fe519     1.0  0.88030  0.91635  0.45796  1.0000
  S   S1031     1.0  0.85958  0.92268  0.45021  1.0000
  S   S1032     1.0  0.90154  0.92030  0.44372  1.0000
  C   C3826     1.0  0.84845  0.82045  0.41119  1.0000
  C   C3827     1.0  0.77246  0.90271  0.43340  1.0000
  Fe  Fe520     1.0  0.58765  0.85747  0.19685  1.0000
  S   S1033     1.0  0.57282  0.86609  0.21559  1.0000
  S   S1034     1.0  0.59867  0.87091  0.17683  1.0000
  Fe  Fe521     1.0  0.58595  0.84761  0.22889  1.0000
  S   S1035     1.0  0.59208  0.84995  0.24851  1.0000
  S   S1036     1.0  0.60176  0.84005  0.20990  1.0000
  S   S1037     1.0  0.57066  0.95747  0.14694  1.0000
  Fe  Fe522     1.0  0.56347  0.88573  0.11882  1.0000
  S   S1038     1.0  0.55398  0.90064  0.13381  1.0000
  S   S1039     1.0  0.58659  0.87394  0.11731  1.0000
  H   H4595     1.0  0.66430  0.89386  0.40210  1.0000
  N   N255      1.0  0.98111  0.87146  0.45684  1.0000
  C   C3828     1.0  0.61318  0.83466  0.12782  1.0000
  Fe  Fe523     1.0  0.54303  0.91461  0.11620  1.0000
  S   S1040     1.0  0.53990  0.93859  0.10996  1.0000
  Fe  Fe524     1.0  0.98343  0.80030  0.45536  1.0000
  S   S1041     1.0  0.55400  0.90044  0.10053  1.0000
  H   H4596     1.0  0.53170  0.84822  0.17679  1.0000
  C   C3829     1.0  0.63127  0.92337  0.40443  1.0000
  H   H4597     1.0  0.76392  0.83497  0.38095  1.0000
  S   S1042     1.0  0.55718  0.84069  0.02488  1.0000
  H   H4598     1.0  0.64551  0.89128  0.42397  1.0000
  H   H4599     1.0  0.50642  0.94988  0.36326  1.0000
  C   C3830     1.0  0.52958  0.95534  0.36717  1.0000
  Fe  Fe525     1.0  0.55462  0.82464  0.04575  1.0000
  H   H4600     1.0  0.85662  0.86616  0.47691  1.0000
  Fe  Fe526     1.0  0.71808  0.93235  0.36417  1.0000
  S   S1043     1.0  0.69570  0.93375  0.36200  1.0000
  S   S1044     1.0  0.72610  0.95285  0.35797  1.0000
  Fe  Fe527     1.0  0.72373  0.90006  0.37449  1.0000
  S   S1045     1.0  0.70146  0.89890  0.37331  1.0000
  S   S1046     1.0  0.73909  0.88047  0.38421  1.0000
  Fe  Fe528     1.0  0.70517  0.91457  0.35219  1.0000
  S   S1047     1.0  0.69825  0.91766  0.33139  1.0000
  Fe  Fe529     1.0  0.69371  0.91817  0.38310  1.0000
  S   S1048     1.0  0.67231  0.92257  0.39880  1.0000
  S   S1049     1.0  0.72812  0.91439  0.35256  1.0000
  S   S1050     1.0  0.71554  0.91803  0.38600  1.0000
  S   S1051     1.0  0.66895  0.96884  0.29933  1.0000
  Fe  Fe530     1.0  0.64379  0.89838  0.29705  1.0000
  S   S1052     1.0  0.64677  0.90983  0.27371  1.0000
  S   S1053     1.0  0.65938  0.88809  0.31214  1.0000
  Fe  Fe531     1.0  0.61117  0.90410  0.30088  1.0000
  S   S1054     1.0  0.61109  0.91659  0.27857  1.0000
  S   S1055     1.0  0.59064  0.90099  0.31691  1.0000
  Fe  Fe532     1.0  0.62990  0.89878  0.27254  1.0000
  S   S1056     1.0  0.62885  0.89183  0.25294  1.0000
  Fe  Fe533     1.0  0.62756  0.92654  0.28145  1.0000
  S   S1057     1.0  0.62484  0.95059  0.27624  1.0000
  S   S1058     1.0  0.62892  0.88567  0.29504  1.0000
  S   S1059     1.0  0.62560  0.91580  0.30451  1.0000
  C   C3831     1.0  0.57079  0.79803  0.20372  1.0000
  Fe  Fe534     1.0  0.58027  0.94888  0.37453  1.0000
  S   S1060     1.0  0.59969  0.93470  0.38271  1.0000
  H   H4601     1.0  0.61640  0.82018  0.11430  1.0000
  Fe  Fe535     1.0  0.56010  0.92945  0.39318  1.0000
  S   S1061     1.0  0.57759  0.91379  0.40341  1.0000
  S   S1062     1.0  0.53759  0.92512  0.39941  1.0000
  Fe  Fe536     1.0  0.58426  0.93320  0.40411  1.0000
  S   S1063     1.0  0.59329  0.93173  0.42274  1.0000
  Fe  Fe537     1.0  0.59146  0.91653  0.38140  1.0000
  S   S1064     1.0  0.60670  0.89725  0.37421  1.0000
  S   S1065     1.0  0.56523  0.94890  0.39613  1.0000
  S   S1066     1.0  0.57361  0.93088  0.37088  1.0000
  H   H4602     1.0  0.87659  0.84811  0.41402  1.0000
  S   S1067     1.0  0.52317  0.90540  0.12461  1.0000
  H   H4603     1.0  0.62079  0.80394  0.17735  1.0000
  S   S1068     1.0  0.62809  0.97261  0.45371  1.0000
  H   H4604     1.0  0.86473  0.84354  0.43943  1.0000
  C   C3832     1.0  0.90573  0.96790  0.47550  1.0000
  H   H4605     1.0  0.90752  0.97595  0.46572  1.0000
  C   C3833     1.0  0.51005  0.82698  0.01258  1.0000
  S   S1069     1.0  0.66961  0.96802  0.43289  1.0000
  H   H4606     1.0  0.54504  0.82588  0.22658  1.0000
  Fe  Fe538     1.0  0.83395  0.87087  0.42479  1.0000
  S   S1070     1.0  0.81267  0.88699  0.42591  1.0000
  S   S1071     1.0  0.85629  0.87352  0.42356  1.0000
  Fe  Fe539     1.0  0.81993  0.84602  0.42915  1.0000
  S   S1072     1.0  0.79728  0.85984  0.43101  1.0000
  Fe  Fe540     1.0  0.80748  0.87531  0.41240  1.0000
  S   S1073     1.0  0.79777  0.88775  0.39324  1.0000
  Fe  Fe541     1.0  0.80423  0.87025  0.44425  1.0000
  S   S1074     1.0  0.82977  0.86064  0.40949  1.0000
  S   S1075     1.0  0.82587  0.85504  0.44420  1.0000
  H   H4607     1.0  0.59932  0.84087  0.16766  1.0000
  C   C3834     1.0  0.59550  0.94829  0.42349  1.0000
  C   C3835     1.0  0.58995  0.96092  0.41438  1.0000
  C   C3836     1.0  0.59120  0.97417  0.41558  1.0000
  C   C3837     1.0  0.59822  0.97477  0.42570  1.0000
  C   C3838     1.0  0.60422  0.96210  0.43445  1.0000
  C   C3839     1.0  0.60277  0.94886  0.43341  1.0000
  H   H4608     1.0  0.58439  0.96053  0.40667  1.0000
  Fe  Fe542     1.0  0.91106  0.89856  0.45591  1.0000
  H   H4609     1.0  0.60955  0.96250  0.44234  1.0000
  H   H4610     1.0  0.60706  0.93910  0.44048  1.0000
  C   C3840     1.0  0.52657  0.90438  0.36976  1.0000
  N   N256      1.0  0.76099  0.92884  0.40041  1.0000
  H   H4611     1.0  0.76232  0.85931  0.36549  1.0000
  C   C3841     1.0  0.53351  0.91691  0.38808  1.0000
  C   C3842     1.0  0.54391  0.91313  0.37617  1.0000
  C   C3843     1.0  0.54050  0.90680  0.36709  1.0000
  H   H4612     1.0  0.51403  0.85255  0.25247  1.0000
  H   H4613     1.0  0.77519  0.93772  0.38107  1.0000
  H   H4614     1.0  0.55458  0.91509  0.37387  1.0000
  H   H4615     1.0  0.54856  0.90407  0.35781  1.0000
  C   C3844     1.0  0.59493  0.89785  0.33344  1.0000
  C   C3845     1.0  0.58401  0.90130  0.34511  1.0000
  C   C3846     1.0  0.58765  0.90052  0.35786  1.0000
  C   C3847     1.0  0.60214  0.89605  0.35904  1.0000
  C   C3848     1.0  0.61299  0.89164  0.34770  1.0000
  C   C3849     1.0  0.60939  0.89271  0.33480  1.0000
  H   H4616     1.0  0.57281  0.90484  0.34424  1.0000
  H   H4617     1.0  0.57922  0.90331  0.36679  1.0000
  H   H4618     1.0  0.62423  0.88802  0.34861  1.0000
  H   H4619     1.0  0.61788  0.88971  0.32589  1.0000
  S   S1076     1.0  0.54295  0.98698  0.16739  1.0000
  C   C3850     1.0  0.79520  0.84157  0.38422  1.0000
  H   H4620     1.0  0.63529  0.90724  0.43017  1.0000
  C   C3851     1.0  0.65655  0.96419  0.29273  1.0000
  C   C3852     1.0  0.66007  0.95070  0.28944  1.0000
  C   C3853     1.0  0.65027  0.94640  0.28458  1.0000
  C   C3854     1.0  0.63702  0.95574  0.28268  1.0000
  C   C3855     1.0  0.63353  0.96932  0.28581  1.0000
  C   C3856     1.0  0.64325  0.97352  0.29091  1.0000
  H   H4621     1.0  0.67037  0.94347  0.29074  1.0000
  H   H4622     1.0  0.65305  0.93592  0.28216  1.0000
  H   H4623     1.0  0.62321  0.97650  0.28451  1.0000
  H   H4624     1.0  0.55694  0.88932  0.16716  1.0000
  C   C3857     1.0  0.67150  0.93425  0.40941  1.0000
  C   C3858     1.0  0.68423  0.93704  0.41051  1.0000
  C   C3859     1.0  0.68351  0.94734  0.41786  1.0000
  C   C3860     1.0  0.67004  0.95493  0.42416  1.0000
  C   C3861     1.0  0.65722  0.95206  0.42327  1.0000
  C   C3862     1.0  0.65796  0.94161  0.41601  1.0000
  H   H4625     1.0  0.69467  0.93133  0.40569  1.0000
  H   H4626     1.0  0.69342  0.94952  0.41856  1.0000
  H   H4627     1.0  0.64677  0.95786  0.42818  1.0000
  H   H4628     1.0  0.64803  0.93953  0.41525  1.0000
  C   C3863     1.0  0.75485  0.88312  0.38726  1.0000
  C   C3864     1.0  0.76194  0.89369  0.37797  1.0000
  C   C3865     1.0  0.77514  0.89487  0.37988  1.0000
  C   C3866     1.0  0.78109  0.88587  0.39138  1.0000
  C   C3867     1.0  0.77384  0.87549  0.40086  1.0000
  C   C3868     1.0  0.76088  0.87398  0.39867  1.0000
  H   H4629     1.0  0.75750  0.90061  0.36901  1.0000
  H   H4630     1.0  0.78081  0.90275  0.37233  1.0000
  H   H4631     1.0  0.77822  0.86859  0.40982  1.0000
  H   H4632     1.0  0.75548  0.86572  0.40584  1.0000
  C   C3869     1.0  0.68656  0.90968  0.32696  1.0000
  C   C3870     1.0  0.68071  0.91667  0.31483  1.0000
  C   C3871     1.0  0.67195  0.91045  0.31043  1.0000
  C   C3872     1.0  0.66917  0.89701  0.31799  1.0000
  C   C3873     1.0  0.67486  0.89012  0.33025  1.0000
  C   C3874     1.0  0.68339  0.89646  0.33481  1.0000
  H   H4633     1.0  0.68312  0.92687  0.30867  1.0000
  H   H4634     1.0  0.66777  0.91582  0.30092  1.0000
  H   H4635     1.0  0.67289  0.87966  0.33608  1.0000
  H   H4636     1.0  0.68796  0.89089  0.34405  1.0000
  C   C3875     1.0  0.90795  0.82229  0.43249  1.0000
  S   S1077     1.0  0.52179  0.88173  0.10113  1.0000
  C   C3876     1.0  0.54220  0.94792  0.34485  1.0000
  C   C3877     1.0  0.72579  0.96106  0.37156  1.0000
  C   C3878     1.0  0.72042  0.95532  0.38597  1.0000
  C   C3879     1.0  0.72155  0.96133  0.39662  1.0000
  C   C3880     1.0  0.93380  0.86670  0.45858  1.0000
  C   C3881     1.0  0.89430  0.83205  0.43174  1.0000
  H   H4637     1.0  0.71566  0.94609  0.38895  1.0000
  H   H4638     1.0  0.71774  0.95661  0.40776  1.0000
  S   S1078     1.0  0.57349  0.84360  0.19663  1.0000
  H   H4639     1.0  0.68202  0.96650  0.35212  1.0000
  H   H4640     1.0  0.65207  0.90768  0.41771  1.0000
  C   C3882     1.0  0.58003  0.82331  0.12491  1.0000
  C   C3883     1.0  0.91010  0.84192  0.47529  1.0000
  C   C3884     1.0  0.62071  0.90256  0.41438  1.0000
  H   H4641     1.0  0.53060  0.84956  0.13039  1.0000
  H   H4642     1.0  0.78339  0.93053  0.39613  1.0000
  C   C3885     1.0  0.94640  0.84424  0.47863  1.0000
  H   H4643     1.0  0.63924  0.83446  0.15659  1.0000
  C   C3886     1.0  0.56958  0.98053  0.10137  1.0000
  C   C3887     1.0  0.75577  0.89340  0.42684  1.0000
  C   C3888     1.0  0.56226  0.95273  0.13617  1.0000
  C   C3889     1.0  0.54983  0.96178  0.13174  1.0000
  C   C3890     1.0  0.54311  0.95755  0.12344  1.0000
  C   C3891     1.0  0.54876  0.94423  0.11966  1.0000
  C   C3892     1.0  0.56138  0.93538  0.12381  1.0000
  C   C3893     1.0  0.56810  0.93961  0.13206  1.0000
  H   H4644     1.0  0.54515  0.97187  0.13498  1.0000
  H   H4645     1.0  0.53333  0.96442  0.12028  1.0000
  H   H4646     1.0  0.56609  0.92532  0.12051  1.0000
  H   H4647     1.0  0.57784  0.93269  0.13525  1.0000
  C   C3894     1.0  0.60262  0.86151  0.24934  1.0000
  C   C3895     1.0  0.60661  0.85995  0.26224  1.0000
  C   C3896     1.0  0.61458  0.86912  0.26353  1.0000
  C   C3897     1.0  0.61859  0.88009  0.25195  1.0000
  C   C3898     1.0  0.61475  0.88154  0.23900  1.0000
  C   C3899     1.0  0.60677  0.87237  0.23770  1.0000
  H   H4648     1.0  0.60366  0.85147  0.27126  1.0000
  H   H4649     1.0  0.61796  0.86749  0.27336  1.0000
  H   H4650     1.0  0.61798  0.88981  0.22989  1.0000
  H   H4651     1.0  0.60388  0.87369  0.22768  1.0000
  C   C3900     1.0  0.59514  0.87134  0.16047  1.0000
  C   C3901     1.0  0.58285  0.86732  0.15981  1.0000
  C   C3902     1.0  0.58020  0.86813  0.14652  1.0000
  C   C3903     1.0  0.59006  0.87257  0.13390  1.0000
  C   C3904     1.0  0.60243  0.87639  0.13456  1.0000
  C   C3905     1.0  0.60485  0.87597  0.14782  1.0000
  H   H4652     1.0  0.57526  0.86381  0.16949  1.0000
  H   H4653     1.0  0.57054  0.86531  0.14602  1.0000
  H   H4654     1.0  0.60997  0.87998  0.12480  1.0000
  H   H4655     1.0  0.61431  0.87918  0.14827  1.0000
  H   H4656     1.0  0.55035  0.80462  0.13858  1.0000
  C   C3906     1.0  0.52276  0.82324  0.00247  1.0000
  H   H4657     1.0  0.58022  0.84405  0.12725  1.0000
  H   H4658     1.0  0.57773  0.86922  0.33876  1.0000
  H   H4659     1.0  0.56523  0.89774  0.31259  1.0000
  S   S1079     1.0  0.53877  0.82830  0.00146  1.0000
  H   H4660     1.0  0.77745  0.92238  0.42042  1.0000
  C   C3907     1.0  0.88445  0.81261  0.42959  1.0000
  C   C3908     1.0  0.94189  0.85382  0.45476  1.0000
  H   H4661     1.0  0.95373  0.83239  0.46199  1.0000
  H   H4662     1.0  0.94356  0.85264  0.44396  1.0000
  C   C3909     1.0  0.85877  0.90961  0.44196  1.0000
  C   C3910     1.0  0.87114  0.89900  0.43854  1.0000
  C   C3911     1.0  0.87032  0.88819  0.43258  1.0000
  C   C3912     1.0  0.85710  0.88780  0.43016  1.0000
  C   C3913     1.0  0.84476  0.89853  0.43340  1.0000
  C   C3914     1.0  0.84560  0.90945  0.43924  1.0000
  H   H4663     1.0  0.88141  0.89920  0.44035  1.0000
  H   H4664     1.0  0.87998  0.88013  0.42985  1.0000
  H   H4665     1.0  0.83455  0.89842  0.43144  1.0000
  H   H4666     1.0  0.83601  0.91766  0.44182  1.0000
  C   C3915     1.0  0.83269  0.87212  0.46745  1.0000
  H   H4667     1.0  0.85285  0.88137  0.48442  1.0000
  C   C3916     1.0  0.53982  0.82004  0.18458  1.0000
  C   C3917     1.0  0.78411  0.83421  0.38601  1.0000
  H   H4668     1.0  0.51115  0.97340  0.35117  1.0000
  H   H4669     1.0  0.50429  0.92684  0.09360  1.0000
  N   N257      1.0  0.70956  0.95664  0.31496  1.0000
  C   C3918     1.0  0.72006  0.94305  0.31273  1.0000
  C   C3919     1.0  0.71309  0.96126  0.32620  1.0000
  C   C3920     1.0  0.69472  0.95380  0.32049  1.0000
  C   C3921     1.0  0.71013  0.96736  0.30122  1.0000
  Fe  Fe543     1.0  0.97365  0.81618  0.47914  1.0000
  C   C3922     1.0  0.70625  0.96481  0.28969  1.0000
  C   C3923     1.0  0.61724  0.82122  0.12452  1.0000
  C   C3924     1.0  0.52201  0.96847  0.34522  1.0000
  H   H4670     1.0  0.61721  0.97808  0.09666  1.0000
  H   H4671     1.0  0.73127  0.94482  0.30795  1.0000
  H   H4672     1.0  0.83122  0.82476  0.46973  1.0000
  H   H4673     1.0  0.71717  0.93802  0.30562  1.0000
  H   H4674     1.0  0.72443  0.96282  0.32319  1.0000
  H   H4675     1.0  0.71233  0.95305  0.33642  1.0000
  H   H4676     1.0  0.70548  0.97137  0.32856  1.0000
  H   H4677     1.0  0.54258  0.93683  0.06328  1.0000
  H   H4678     1.0  0.69327  0.94704  0.33150  1.0000
  H   H4679     1.0  0.68636  0.96394  0.32058  1.0000
  C   C3925     1.0  0.86591  0.79795  0.48133  1.0000
  H   H4680     1.0  0.70277  0.95512  0.29077  1.0000
  C   C3926     1.0  0.51576  0.84582  0.21290  1.0000
  H   H4681     1.0  0.85508  0.88367  0.46537  1.0000
  C   C3927     1.0  0.71024  0.98778  0.27483  1.0000
  N   N258      1.0  0.54800  0.82937  0.17258  1.0000
  C   C3928     1.0  0.54359  0.84395  0.17559  1.0000
  C   C3929     1.0  0.56376  0.82418  0.17232  1.0000
  C   C3930     1.0  0.54521  0.82882  0.15900  1.0000
  C   C3931     1.0  0.75563  0.94225  0.40579  1.0000
  C   C3932     1.0  0.53826  0.84102  0.14996  1.0000
  C   C3933     1.0  0.84785  0.80594  0.46637  1.0000
  H   H4682     1.0  0.66456  0.88506  0.36278  1.0000
  H   H4683     1.0  0.89341  0.80930  0.42063  1.0000
  H   H4684     1.0  0.54259  0.80877  0.18343  1.0000
  H   H4685     1.0  0.57026  0.83082  0.16325  1.0000
  H   H4686     1.0  0.56625  0.82454  0.18238  1.0000
  H   H4687     1.0  0.56783  0.81286  0.17132  1.0000
  C   C3934     1.0  0.54226  0.88764  0.05929  1.0000
  H   H4688     1.0  0.68324  0.95451  0.38371  1.0000
  N   N259      1.0  0.56455  0.87188  0.39433  1.0000
  C   C3935     1.0  0.57123  0.85808  0.40293  1.0000
  C   C3936     1.0  0.57062  0.88342  0.39551  1.0000
  C   C3937     1.0  0.54871  0.87507  0.40084  1.0000
  C   C3938     1.0  0.56789  0.87090  0.37919  1.0000
  C   C3939     1.0  0.55693  0.87288  0.37166  1.0000
  C   C3940     1.0  0.58255  0.86776  0.37152  1.0000
  C   C3941     1.0  0.56050  0.87225  0.35726  1.0000
  C   C3942     1.0  0.58600  0.86692  0.35719  1.0000
  C   C3943     1.0  0.57499  0.86933  0.35002  1.0000
  H   H4689     1.0  0.58331  0.85569  0.39973  1.0000
  H   H4690     1.0  0.56837  0.85815  0.41451  1.0000
  H   H4691     1.0  0.56755  0.84900  0.40171  1.0000
  H   H4692     1.0  0.58261  0.88168  0.39144  1.0000
  H   H4693     1.0  0.56837  0.88444  0.40677  1.0000
  H   H4694     1.0  0.56575  0.89400  0.38935  1.0000
  H   H4695     1.0  0.54345  0.86655  0.40084  1.0000
  H   H4696     1.0  0.54654  0.87596  0.41214  1.0000
  H   H4697     1.0  0.54305  0.88553  0.39510  1.0000
  H   H4698     1.0  0.54545  0.87528  0.37649  1.0000
  H   H4699     1.0  0.59151  0.86633  0.37640  1.0000
  H   H4700     1.0  0.59728  0.86499  0.35143  1.0000
  N   N260      1.0  0.62869  0.93626  0.33657  1.0000
  C   C3944     1.0  0.61448  0.94674  0.33805  1.0000
  C   C3945     1.0  0.63690  0.94014  0.32163  1.0000
  C   C3946     1.0  0.62569  0.92187  0.33916  1.0000
  C   C3947     1.0  0.63743  0.93596  0.34656  1.0000
  C   C3948     1.0  0.63253  0.94471  0.35675  1.0000
  C   C3949     1.0  0.65127  0.92647  0.34639  1.0000
  C   C3950     1.0  0.64095  0.94379  0.36628  1.0000
  C   C3951     1.0  0.65965  0.92572  0.35587  1.0000
  C   C3952     1.0  0.65444  0.93424  0.36588  1.0000
  H   H4701     1.0  0.61593  0.95789  0.33588  1.0000
  H   H4702     1.0  0.60822  0.94677  0.33035  1.0000
  H   H4703     1.0  0.60744  0.94416  0.34890  1.0000
  H   H4704     1.0  0.64006  0.95055  0.31954  1.0000
  H   H4705     1.0  0.63042  0.94114  0.31376  1.0000
  H   H4706     1.0  0.64705  0.93200  0.31905  1.0000
  H   H4707     1.0  0.62069  0.91806  0.35062  1.0000
  H   H4708     1.0  0.61801  0.92188  0.33285  1.0000
  H   H4709     1.0  0.63568  0.91365  0.33618  1.0000
  H   H4710     1.0  0.62220  0.95233  0.35763  1.0000
  H   H4711     1.0  0.65566  0.91948  0.33896  1.0000
  H   H4712     1.0  0.63692  0.95050  0.37402  1.0000
  H   H4713     1.0  0.67020  0.91834  0.35551  1.0000
  H   H4714     1.0  0.66089  0.93337  0.37336  1.0000
  C   C3953     1.0  0.89314  0.84625  0.43283  1.0000
  C   C3954     1.0  0.90481  0.85039  0.43470  1.0000
  H   H4715     1.0  0.96669  0.89146  0.46073  1.0000
  C   C3955     1.0  0.91802  0.84059  0.43536  1.0000
  H   H4716     1.0  0.88328  0.85438  0.43187  1.0000
  H   H4717     1.0  0.90374  0.86136  0.43532  1.0000
  S   S1080     1.0  0.79014  0.87653  0.46437  1.0000
  C   C3956     1.0  0.54669  0.93276  0.16855  1.0000
  H   H4718     1.0  0.61474  0.90551  0.42477  1.0000
  H   H4719     1.0  0.62737  0.81430  0.18470  1.0000
  C   C3957     1.0  0.52425  0.87385  0.06322  1.0000
  H   H4720     1.0  0.85924  0.82833  0.43885  1.0000
  H   H4721     1.0  0.59640  0.98686  0.33317  1.0000
  S   S1081     1.0  0.52228  0.89733  0.35774  1.0000
  N   N261      1.0  0.88194  0.82813  0.42919  1.0000
  H   H4722     1.0  0.60474  0.83151  0.18396  1.0000
  H   H4723     1.0  0.54146  0.90029  0.32897  1.0000
  S   S1082     1.0  0.92666  0.88098  0.44579  1.0000
  H   H4724     1.0  0.57006  0.89941  0.19226  1.0000
  H   H4725     1.0  0.50290  0.94903  0.07483  1.0000
  C   C3958     1.0  0.61423  0.83604  0.14098  1.0000
  H   H4726     1.0  0.51892  0.95806  0.37464  1.0000
  H   H4727     1.0  0.64142  0.92745  0.39982  1.0000
  H   H4728     1.0  0.56632  0.89320  0.26739  1.0000
  Fe  Fe544     1.0  0.53855  0.83386  0.02178  1.0000
  H   H4729     1.0  0.60744  0.95826  0.11059  1.0000
  C   C3959     1.0  0.86411  0.96213  0.46648  1.0000
  H   H4730     1.0  0.61419  0.98066  0.37668  1.0000
  C   C3960     1.0  0.84081  0.81739  0.47296  1.0000
  H   H4731     1.0  0.95767  0.87746  0.46311  1.0000
  H   H4732     1.0  0.60914  0.84412  0.12018  1.0000
  C   C3961     1.0  0.70621  0.97493  0.27676  1.0000
  Fe  Fe545     1.0  0.64740  0.98126  0.43990  1.0000
  H   H4733     1.0  0.51008  0.83271  0.02025  1.0000
  C   C3962     1.0  0.50726  0.90986  0.05931  1.0000
  H   H4734     1.0  0.68636  0.98319  0.35053  1.0000
  C   C3963     1.0  0.51636  0.92500  0.09075  1.0000
  C   C3964     1.0  0.52269  0.92353  0.04047  1.0000
  H   H4735     1.0  0.52099  0.91323  0.09300  1.0000
  C   C3965     1.0  0.89092  0.79603  0.48170  1.0000
  H   H4736     1.0  0.99130  0.84910  0.45743  1.0000
  C   C3966     1.0  0.96020  0.79290  0.44061  1.0000
  C   C3967     1.0  0.69530  0.98139  0.46295  1.0000
  C   C3968     1.0  0.93835  0.85712  0.48243  1.0000
  S   S1083     1.0  0.54178  0.79286  0.12074  1.0000
  H   H4737     1.0  0.59838  0.82241  0.17465  1.0000
  H   H4738     1.0  0.58239  0.89973  0.16649  1.0000
  H   H4739     1.0  0.96678  0.87674  0.47637  1.0000
  H   H4740     1.0  0.62254  0.84785  0.15842  1.0000
  H   H4741     1.0  0.55962  0.92180  0.32567  1.0000
  H   H4742     1.0  0.63841  0.80832  0.16892  1.0000
  H   H4743     1.0  0.70555  0.97218  0.43052  1.0000
  C   C3969     1.0  0.68512  0.97274  0.35797  1.0000
  C   C3970     1.0  0.57237  0.79490  0.08392  1.0000
  C   C3971     1.0  0.87933  0.83631  0.41492  1.0000
  H   H4744     1.0  0.88703  0.80580  0.43988  1.0000
  C   C3972     1.0  0.64314  0.90160  0.39603  1.0000
  H   H4745     1.0  0.55126  0.90851  0.19646  1.0000
  Fe  Fe546     1.0  0.66246  0.98906  0.30755  1.0000
  C   C3973     1.0  0.53806  0.88833  0.07377  1.0000
  C   C3974     1.0  0.50961  0.91573  0.06938  1.0000
  N   N262      1.0  0.83461  0.87885  0.47806  1.0000
  C   C3975     1.0  0.51960  0.91428  0.39088  1.0000
  S   S1084     1.0  0.53781  0.81630  0.04156  1.0000
  C   C3976     1.0  0.53557  0.88009  0.05411  1.0000
  C   C3977     1.0  0.86665  0.98368  0.44827  1.0000
  N   N263      1.0  0.59421  0.97968  0.10566  1.0000
  H   H4746     1.0  0.76603  0.88288  0.44464  1.0000
  H   H4747     1.0  0.58106  0.86783  0.29781  1.0000
  Fe  Fe547     1.0  0.90364  0.92830  0.46172  1.0000
  C   C3978     1.0  0.98003  0.87469  0.44169  1.0000
  H   H4748     1.0  0.53173  0.93739  0.04638  1.0000
  C   C3979     1.0  0.65869  0.88974  0.37191  1.0000
  H   H4749     1.0  0.61135  0.97484  0.20641  1.0000
  C   C3980     1.0  0.86018  0.79630  0.47045  1.0000
  H   H4750     1.0  0.55190  0.87430  0.35164  1.0000
  N   N264      1.0  0.56521  0.84581  0.08605  1.0000
  C   C3981     1.0  0.54967  0.84559  0.08858  1.0000
  C   C3982     1.0  0.56655  0.86100  0.08122  1.0000
  C   C3983     1.0  0.57358  0.83860  0.07412  1.0000
  C   C3984     1.0  0.57045  0.83828  0.09932  1.0000
  C   C3985     1.0  0.57210  0.82322  0.10417  1.0000
  C   C3986     1.0  0.57340  0.84561  0.10813  1.0000
  C   C3987     1.0  0.57704  0.81584  0.11664  1.0000
  C   C3988     1.0  0.57809  0.83817  0.12073  1.0000
  H   H4751     1.0  0.60603  0.98319  0.08377  1.0000
  H   H4752     1.0  0.54295  0.85083  0.09751  1.0000
  H   H4753     1.0  0.54520  0.85147  0.07895  1.0000
  H   H4754     1.0  0.54799  0.83447  0.09120  1.0000
  H   H4755     1.0  0.55909  0.86763  0.08878  1.0000
  H   H4756     1.0  0.56358  0.86607  0.07069  1.0000
  H   H4757     1.0  0.57790  0.86191  0.07992  1.0000
  H   H4758     1.0  0.57164  0.82775  0.07579  1.0000
  H   H4759     1.0  0.57040  0.84458  0.06381  1.0000
  H   H4760     1.0  0.58548  0.83751  0.07253  1.0000
  H   H4761     1.0  0.56941  0.81704  0.09841  1.0000
  H   H4762     1.0  0.57215  0.85712  0.10558  1.0000
  H   H4763     1.0  0.51256  0.90852  0.03728  1.0000
  C   C3989     1.0  0.93605  0.79340  0.45583  1.0000
  H   H4764     1.0  0.88645  0.95871  0.44407  1.0000
  H   H4765     1.0  0.50959  0.81326  0.04572  1.0000
  C   C3990     1.0  0.55883  0.89113  0.29670  1.0000
  H   H4766     1.0  0.64657  0.96426  0.23290  1.0000
  C   C3991     1.0  0.54292  0.89702  0.31910  1.0000
  C   C3992     1.0  0.59451  0.98276  0.11920  1.0000
  C   C3993     1.0  0.53555  0.94368  0.16363  1.0000
  H   H4767     1.0  0.84432  0.83165  0.40695  1.0000
  C   C3994     1.0  0.86729  0.79867  0.40950  1.0000
  H   H4768     1.0  0.70273  0.97287  0.26832  1.0000
  C   C3995     1.0  0.99455  0.88324  0.46706  1.0000
  H   H4769     1.0  0.54733  0.88478  0.28439  1.0000
  H   H4770     1.0  0.50760  0.83445  0.24436  1.0000
  H   H4771     1.0  0.59520  0.87714  0.28751  1.0000
  H   H4772     1.0  0.54360  0.91879  0.07365  1.0000
  H   H4773     1.0  0.66410  0.96083  0.39006  1.0000
  H   H4774     1.0  0.58498  0.88119  0.30411  1.0000
  C   C3996     1.0  0.51695  0.94526  0.35658  1.0000
  H   H4775     1.0  0.52053  0.96788  0.33479  1.0000
  C   C3997     1.0  0.67793  0.98296  0.37948  1.0000
  C   C3998     1.0  0.54217  0.80353  0.09274  1.0000
  S   S1085     1.0  0.53573  0.85676  0.21822  1.0000
  C   C3999     1.0  0.64225  0.90315  0.42061  1.0000
  C   C4000     1.0  0.61619  0.99064  0.35425  1.0000
  S   S1086     1.0  0.90942  0.94941  0.45838  1.0000
  H   H4776     1.0  0.57164  0.87443  0.27600  1.0000
  H   H4777     1.0  0.58497  0.88464  0.26641  1.0000
  C   C4001     1.0  0.58406  0.87844  0.29444  1.0000
  C   C4002     1.0  0.60031  0.98545  0.34265  1.0000
  Fe  Fe548     1.0  0.55991  0.85029  0.21671  1.0000
  H   H4778     1.0  0.58888  0.90262  0.27472  1.0000
  C   C4003     1.0  0.84608  0.81930  0.48368  1.0000
  H   H4779     1.0  0.73562  0.97790  0.35672  1.0000
  H   H4780     1.0  0.55522  0.93597  0.17090  1.0000
  H   H4781     1.0  0.53445  0.85140  0.15262  1.0000
  H   H4782     1.0  0.62509  0.92831  0.41370  1.0000
  H   H4783     1.0  0.57965  0.90660  0.29163  1.0000
  H   H4784     1.0  0.98207  0.85314  0.47451  1.0000
  H   H4785     1.0  0.78140  0.87244  0.36171  1.0000
  H   H4786     1.0  0.87030  0.82657  0.45112  1.0000
  N   N265      1.0  0.57341  0.88954  0.28694  1.0000
  C   C4004     1.0  0.57816  0.90332  0.28251  1.0000
  C   C4005     1.0  0.57398  0.88527  0.27368  1.0000
  C   C4006     1.0  0.73153  0.97333  0.36785  1.0000
  C   C4007     1.0  0.59468  0.97662  0.35546  1.0000
  H   H4787     1.0  0.57013  0.91215  0.27742  1.0000
  C   C4008     1.0  0.53598  0.84008  0.13710  1.0000
  H   H4788     1.0  0.97189  0.85294  0.46229  1.0000
  S   S1087     1.0  0.50911  0.80625  0.21750  1.0000
  H   H4789     1.0  0.54051  0.93343  0.08204  1.0000
  C   C4009     1.0  0.53521  0.82839  0.22269  1.0000
  C   C4010     1.0  0.79390  0.85552  0.37518  1.0000
  C   C4011     1.0  0.54664  0.88831  0.29386  1.0000
  C   C4012     1.0  0.55651  0.89551  0.30964  1.0000
  H   H4790     1.0  0.54595  0.84394  0.18585  1.0000
  C   C4013     1.0  0.51882  0.92562  0.06524  1.0000
  C   C4014     1.0  0.51632  0.82042  0.21767  1.0000
  H   H4791     1.0  0.50778  0.86363  0.18515  1.0000
  C   C4015     1.0  0.79369  0.86318  0.47950  1.0000
  C   C4016     1.0  0.52851  0.84268  0.21786  1.0000
  N   N266      1.0  0.80716  0.83563  0.39194  1.0000
  H   H4792     1.0  0.62454  0.92747  0.39629  1.0000
  H   H4793     1.0  0.52382  0.88783  0.30103  1.0000
  C   C4017     1.0  0.54443  0.93620  0.33843  1.0000
  C   C4018     1.0  0.56149  0.90838  0.18804  1.0000
  H   H4794     1.0  0.69594  0.96674  0.36022  1.0000
  C   C4019     1.0  0.65813  0.89473  0.39440  1.0000
  C   C4020     1.0  0.52896  0.81729  0.22285  1.0000
  H   H4795     1.0  0.52067  0.89542  0.32339  1.0000
  H   H4796     1.0  0.51648  0.94896  0.15508  1.0000
  C   C4021     1.0  0.53303  0.88995  0.30338  1.0000
  C   C4022     1.0  0.53119  0.89427  0.31597  1.0000
  C   C4023     1.0  0.72767  0.97336  0.39291  1.0000
  H   H4797     1.0  0.86777  0.81880  0.39423  1.0000
  C   C4024     1.0  0.52480  0.94041  0.15936  1.0000
  H   H4798     1.0  0.87360  0.94939  0.44391  1.0000
  S   S1088     1.0  0.88162  0.92598  0.47507  1.0000
  C   C4025     1.0  0.85048  0.87749  0.47609  1.0000
  H   H4799     1.0  0.88910  0.83385  0.40632  1.0000
  N   N267      1.0  0.63459  0.90751  0.40869  1.0000
  H   H4800     1.0  0.79439  0.84426  0.41011  1.0000
  H   H4801     1.0  0.62266  0.89072  0.41606  1.0000
  H   H4802     1.0  0.51673  0.92361  0.15676  1.0000
  C   C4026     1.0  0.77159  0.85423  0.37038  1.0000
  H   H4803     1.0  0.55436  0.80580  0.16101  1.0000
  H   H4804     1.0  0.65676  0.97632  0.36142  1.0000
  H   H4805     1.0  0.75036  0.93866  0.38267  1.0000
  C   C4027     1.0  0.84599  0.79858  0.42906  1.0000
  C   C4028     1.0  0.59973  0.97487  0.36772  1.0000
  H   H4806     1.0  0.72031  0.93489  0.32297  1.0000
  H   H4807     1.0  0.74999  0.88504  0.42863  1.0000
  H   H4808     1.0  0.71738  0.98348  0.30702  1.0000
  C   C4029     1.0  0.51611  0.90806  0.38169  1.0000
  C   C4030     1.0  0.66570  0.88883  0.38253  1.0000
  C   C4031     1.0  0.77560  0.92896  0.39086  1.0000
  Fe  Fe549     1.0  0.53521  0.88999  0.14063  1.0000
  C   C4032     1.0  0.77112  0.91458  0.42196  1.0000
  H   H4809     1.0  0.56561  0.80328  0.21256  1.0000
  H   H4810     1.0  0.62535  0.90841  0.38489  1.0000
  H   H4811     1.0  0.51060  0.85687  0.20918  1.0000
  Fe  Fe550     1.0  0.53953  0.85580  0.03675  1.0000
  C   C4033     1.0  0.54055  0.82705  0.13289  1.0000
  H   H4812     1.0  0.80556  0.88884  0.47779  1.0000
  S   S1089     1.0  0.57183  0.83214  0.23130  1.0000
  C   C4034     1.0  0.80082  0.84912  0.47832  1.0000
  H   H4813     1.0  0.56520  0.91832  0.18668  1.0000
  C   C4035     1.0  0.75099  0.92901  0.39164  1.0000
  H   H4814     1.0  0.73969  0.92922  0.39811  1.0000
  H   H4815     1.0  0.78044  0.91861  0.38742  1.0000
  C   C4036     1.0  0.71435  0.99054  0.28584  1.0000
  H   H4816     1.0  0.85666  0.96910  0.47372  1.0000
  N   N268      1.0  0.62002  0.82579  0.16526  1.0000
  Fe  Fe551     1.0  0.58648  0.82646  0.21089  1.0000
  H   H4817     1.0  0.75466  0.91958  0.38668  1.0000
  C   C4037     1.0  0.64416  0.89680  0.37296  1.0000
  S   S1090     1.0  0.54186  0.87767  0.03656  1.0000
  S   S1091     1.0  0.53849  0.84027  0.05787  1.0000
  C   C4038     1.0  0.62703  0.81248  0.17432  1.0000
  H   H4818     1.0  0.57178  0.90661  0.15305  1.0000
  Fe  Fe552     1.0  0.53507  0.88986  0.11061  1.0000
  C   C4039     1.0  0.76201  0.91623  0.41257  1.0000
  C   C4040     1.0  0.70337  0.97037  0.44238  1.0000
  C   C4041     1.0  0.82413  0.91969  0.47330  1.0000
  H   H4819     1.0  0.75439  0.95195  0.39694  1.0000
  H   H4820     1.0  0.61293  0.90755  0.40724  1.0000
  S   S1092     1.0  0.58171  0.96753  0.35578  1.0000
  C   C4042     1.0  0.66004  0.98229  0.36742  1.0000
  H   H4821     1.0  0.98869  0.86755  0.43541  1.0000
  C   C4043     1.0  0.98162  0.85600  0.46302  1.0000
  H   H4822     1.0  0.87608  0.96550  0.43055  1.0000
  C   C4044     1.0  0.54715  0.91810  0.16978  1.0000
  H   H4823     1.0  0.82928  0.92843  0.47188  1.0000
  H   H4824     1.0  0.91005  0.81132  0.43153  1.0000
  C   C4045     1.0  0.93175  0.86818  0.47254  1.0000
  C   C4046     1.0  0.91959  0.82660  0.43424  1.0000
  C   C4047     1.0  0.61955  0.82400  0.15122  1.0000
  H   H4825     1.0  0.61438  0.98560  0.25331  1.0000
  C   C4048     1.0  0.67289  0.96036  0.38028  1.0000
  H   H4826     1.0  0.78398  0.82369  0.39284  1.0000
  H   H4827     1.0  0.76309  0.94369  0.41151  1.0000
  C   C4049     1.0  0.70112  0.98862  0.46966  1.0000
  H   H4828     1.0  0.74479  0.94244  0.41328  1.0000
  S   S1093     1.0  0.52421  0.88209  0.16321  1.0000
  H   H4829     1.0  0.53543  0.90439  0.16576  1.0000
  H   H4830     1.0  0.80148  0.86208  0.37381  1.0000
  H   H4831     1.0  0.58654  0.98396  0.40879  1.0000
  H   H4832     1.0  0.55358  0.96298  0.34683  1.0000
  C   C4050     1.0  0.51993  0.87471  0.07757  1.0000
  H   H4833     1.0  0.51148  0.91718  0.40008  1.0000
  C   C4051     1.0  0.52262  0.81574  0.99266  1.0000
  H   H4834     1.0  0.67708  0.88349  0.38156  1.0000
  H   H4835     1.0  0.84047  0.97453  0.45614  1.0000
  N   N269      1.0  0.52791  0.95404  0.35332  1.0000
  H   H4836     1.0  0.93000  0.81908  0.43448  1.0000
  C   C4052     1.0  0.75435  0.90523  0.41535  1.0000
  H   H4837     1.0  0.74739  0.90531  0.40868  1.0000
  H   H4838     1.0  0.86063  0.95178  0.46970  1.0000
  H   H4839     1.0  0.92804  0.79621  0.46511  1.0000
  C   C4053     1.0  0.63653  0.90285  0.38471  1.0000
  H   H4840     1.0  0.50536  0.90605  0.38389  1.0000
  H   H4841     1.0  0.81366  0.84007  0.40872  1.0000
  H   H4842     1.0  0.63873  0.89755  0.36465  1.0000
  H   H4843     1.0  0.54929  0.85168  0.16703  1.0000
  H   H4844     1.0  0.52786  0.82393  0.18547  1.0000
  Fe  Fe553     1.0  0.52167  0.83320  0.05208  1.0000
  C   C4054     1.0  0.77249  0.84055  0.37919  1.0000
  S   S1094     1.0  0.59598  0.80541  0.20351  1.0000
  H   H4845     1.0  0.51694  0.81403  0.14120  1.0000
  C   C4055     1.0  0.86854  0.83179  0.44016  1.0000
  C   C4056     1.0  0.53591  0.91514  0.16547  1.0000
  H   H4846     1.0  0.55095  0.89256  0.05220  1.0000
  C   C4057     1.0  0.76482  0.89213  0.43582  1.0000
  H   H4847     1.0  0.53581  0.94510  0.37266  1.0000
  H   H4848     1.0  0.54349  0.89377  0.07786  1.0000
  C   C4058     1.0  0.87549  0.96035  0.44206  1.0000
  H   H4849     1.0  0.62734  0.80057  0.15478  1.0000
  H   H4850     1.0  0.56604  0.88375  0.18152  1.0000
  H   H4851     1.0  0.51327  0.88034  0.13991  1.0000
  C   C4059     1.0  0.62345  0.81039  0.14759  1.0000
  C   C4060     1.0  0.56403  0.80317  0.07395  1.0000
  S   S1095     1.0  0.82407  0.82197  0.43313  1.0000
  C   C4061     1.0  0.62812  0.83696  0.16336  1.0000
  H   H4852     1.0  0.98074  0.88599  0.43634  1.0000
  C   C4062     1.0  0.63916  0.96917  0.24178  1.0000
  H   H4853     1.0  0.67538  0.98373  0.44845  1.0000
  H   H4854     1.0  0.54677  0.89056  0.18509  1.0000
  C   C4063     1.0  0.80785  0.82047  0.39991  1.0000
  H   H4855     1.0  0.52929  0.97595  0.34299  1.0000
  H   H4856     1.0  0.59531  0.96814  0.37768  1.0000
  H   H4857     1.0  0.58846  0.95944  0.11697  1.0000
  H   H4858     1.0  0.87007  0.83378  0.41255  1.0000
  C   C4064     1.0  0.82143  0.83627  0.38181  1.0000
  C   C4065     1.0  0.73239  0.97952  0.37849  1.0000
  C   C4066     1.0  0.59672  0.96386  0.10785  1.0000
  H   H4859     1.0  0.58366  0.81758  0.13468  1.0000
  H   H4860     1.0  0.62958  0.98789  0.25833  1.0000
  C   C4067     1.0  0.50451  0.84827  0.25852  1.0000
  C   C4068     1.0  0.62203  0.97862  0.22066  1.0000
  H   H4861     1.0  0.58536  0.97943  0.12790  1.0000
  H   H4862     1.0  0.98472  0.88795  0.47382  1.0000
  C   C4069     1.0  0.55439  0.95395  0.34248  1.0000
  C   C4070     1.0  0.55710  0.89200  0.17717  1.0000
  N   N270      1.0  0.69743  0.98408  0.44724  1.0000
  C   C4071     1.0  0.51395  0.91358  0.04494  1.0000
  C   C4072     1.0  0.69080  0.98842  0.37483  1.0000
  H   H4863     1.0  0.57718  0.95298  0.33325  1.0000
  C   C4073     1.0  0.94972  0.79676  0.45245  1.0000
  H   H4864     1.0  0.57110  0.96900  0.10402  1.0000
  H   H4865     1.0  0.54214  0.81968  0.19492  1.0000
  H   H4866     1.0  0.52748  0.79197  0.07451  1.0000
  H   H4867     1.0  0.80919  0.81332  0.39266  1.0000
  C   C4074     1.0  0.52498  0.92617  0.16028  1.0000
  H   H4868     1.0  0.51879  0.86835  0.05917  1.0000
  H   H4869     1.0  0.50390  0.82701  0.10700  1.0000
  H   H4870     1.0  0.69568  0.96307  0.44654  1.0000
  C   C4075     1.0  0.50983  0.81206  0.99288  1.0000
  C   C4076     1.0  0.94788  0.84246  0.46489  1.0000
  C   C4077     1.0  0.99454  0.87478  0.45776  1.0000
  H   H4871     1.0  0.53895  0.82632  0.12287  1.0000
  H   H4872     1.0  0.65100  0.98359  0.37690  1.0000
  H   H4873     1.0  0.50926  0.79299  0.14896  1.0000
  N   N271      1.0  0.55935  0.90674  0.17453  1.0000
  C   C4078     1.0  0.51158  0.87302  0.16265  1.0000
  H   H4874     1.0  0.80542  0.85571  0.39723  1.0000
  C   C4079     1.0  0.52699  0.88172  0.08291  1.0000
  H   H4875     1.0  0.92712  0.84391  0.43653  1.0000
  C   C4080     1.0  0.54892  0.80694  0.07835  1.0000
  C   C4081     1.0  0.50981  0.83470  0.21254  1.0000
  C   C4082     1.0  0.54935  0.81564  0.15454  1.0000
  C   C4083     1.0  0.55805  0.93085  0.33035  1.0000
  C   C4084     1.0  0.68642  0.97188  0.47208  1.0000
  C   C4085     1.0  0.57283  0.90798  0.16335  1.0000
  S   S1096     1.0  0.91528  0.90698  0.47258  1.0000
  N   N272      1.0  0.86395  0.96911  0.45130  1.0000
  H   H4876     1.0  0.95212  0.80234  0.45900  1.0000
  H   H4877     1.0  0.87516  0.95973  0.46868  1.0000
  H   H4878     1.0  0.84897  0.97412  0.43757  1.0000
  C   C4086     1.0  0.96755  0.87969  0.46462  1.0000
  C   C4087     1.0  0.90627  0.95387  0.47491  1.0000
  H   H4879     1.0  0.84362  0.80451  0.45806  1.0000
  H   H4880     1.0  0.53411  0.80625  0.22672  1.0000
  C   C4088     1.0  0.51489  0.94731  0.07340  1.0000
  S   S1097     1.0  0.54576  0.87373  0.12729  1.0000
  S   S1098     1.0  0.98424  0.82236  0.45592  1.0000
  H   H4881     1.0  0.92540  0.87797  0.47565  1.0000
  H   H4882     1.0  0.58044  0.93236  0.32252  1.0000
  C   C4089     1.0  0.80509  0.84431  0.40242  1.0000
  H   H4883     1.0  0.82287  0.83084  0.37304  1.0000
  H   H4884     1.0  0.79801  0.81933  0.40864  1.0000
  C   C4090     1.0  0.60496  0.83036  0.17318  1.0000
  C   C4091     1.0  0.62410  0.99044  0.24930  1.0000
  H   H4885     1.0  0.82272  0.84746  0.37688  1.0000
  C   C4092     1.0  0.61453  0.98280  0.20963  1.0000
  C   C4093     1.0  0.50846  0.87370  0.14963  1.0000
  H   H4886     1.0  0.83976  0.86120  0.46762  1.0000
  H   H4887     1.0  0.53540  0.96383  0.36596  1.0000
  H   H4888     1.0  0.88827  0.97631  0.45295  1.0000
  H   H4889     1.0  0.87470  0.80986  0.42842  1.0000
  H   H4890     1.0  0.83985  0.79283  0.43867  1.0000
  C   C4094     1.0  0.56984  0.93681  0.32853  1.0000
  C   C4095     1.0  0.84977  0.96900  0.44884  1.0000
  H   H4891     1.0  0.77957  0.90157  0.44038  1.0000
  H   H4892     1.0  0.81720  0.81628  0.40530  1.0000
  H   H4893     1.0  0.83067  0.83099  0.38722  1.0000
  C   C4096     1.0  0.78236  0.86163  0.36827  1.0000
  C   C4097     1.0  0.84063  0.81317  0.42380  1.0000
  Fe  Fe554     1.0  0.62552  0.98927  0.46598  1.0000
  C   C4098     1.0  0.86168  0.81315  0.40395  1.0000
  C   C4099     1.0  0.56800  0.94836  0.33457  1.0000
  Fe  Fe555     1.0  0.89294  0.90389  0.48438  1.0000
  H   H4894     1.0  0.57825  0.80429  0.12001  1.0000
  H   H4895     1.0  0.69865  0.98692  0.36505  1.0000
  H   H4896     1.0  0.62918  0.83801  0.17380  1.0000
  H   H4897     1.0  0.58407  0.79172  0.08051  1.0000
  H   H4898     1.0  0.71376  0.96458  0.44570  1.0000
  S   S1099     1.0  0.88952  0.89390  0.46858  1.0000
  H   H4899     1.0  0.69206  0.94797  0.31394  1.0000
  H   H4900     1.0  0.61069  0.84663  0.14315  1.0000
  C   C4100     1.0  0.68320  0.99078  0.44335  1.0000
  H   H4901     1.0  0.53047  0.80673  0.09601  1.0000
  H   H4902     1.0  0.68132  0.96625  0.46778  1.0000
  H   H4903     1.0  0.65878  0.98155  0.39707  1.0000
  H   H4904     1.0  0.52077  0.93424  0.36256  1.0000
  N   N273      1.0  0.52186  0.93182  0.07562  1.0000
  H   H4905     1.0  0.54230  0.81229  0.07066  1.0000
  C   C4101     1.0  0.83239  0.90561  0.47498  1.0000
  H   H4906     1.0  0.53589  0.93084  0.33963  1.0000
  H   H4907     1.0  0.51425  0.94465  0.34673  1.0000
  H   H4908     1.0  0.60475  0.97691  0.12281  1.0000
  C   C4102     1.0  0.62231  0.80911  0.13440  1.0000
  S   S1100     1.0  0.52100  0.85035  0.03195  1.0000
  H   H4909     1.0  0.67030  0.95372  0.37451  1.0000
  N   N274      1.0  0.63404  0.98491  0.23689  1.0000
  H   H4910     1.0  0.57551  0.91862  0.16123  1.0000
  H   H4911     1.0  0.51124  0.86973  0.08459  1.0000
  H   H4912     1.0  0.91768  0.82345  0.46593  1.0000
  S   S1101     1.0  0.73031  0.97984  0.40643  1.0000
  H   H4913     1.0  0.53563  0.95480  0.16257  1.0000
  H   H4914     1.0  0.80315  0.84609  0.46822  1.0000
  C   C4103     1.0  0.54703  0.81483  0.14171  1.0000
  H   H4915     1.0  0.84834  0.95782  0.45081  1.0000
  C   C4104     1.0  0.50240  0.79347  0.05477  1.0000
  H   H4916     1.0  0.52787  0.92636  0.02926  1.0000
  C   C4105     1.0  0.87988  0.98547  0.44986  1.0000
  C   C4106     1.0  0.61038  0.98199  0.36715  1.0000
  C   C4107     1.0  0.58547  0.79765  0.19730  1.0000
  S   S1102     1.0  0.57225  0.80925  0.05610  1.0000
  Fe  Fe556     1.0  0.56176  0.98003  0.15006  1.0000
  H   H4917     1.0  0.83533  0.87868  0.45644  1.0000
  S   S1103     1.0  0.50234  0.82754  0.06912  1.0000
  H   H4918     1.0  0.51910  0.95332  0.06248  1.0000
  C   C4108     1.0  0.71430  0.98054  0.29888  1.0000
  H   H4919     1.0  0.62428  0.96731  0.22554  1.0000
  N   N275      1.0  0.67417  0.97478  0.37133  1.0000
  H   H4920     1.0  0.59649  0.96074  0.09810  1.0000
  H   H4921     1.0  0.51932  0.92946  0.09831  1.0000
  H   H4922     1.0  0.96954  0.87319  0.44076  1.0000
  H   H4923     1.0  0.89338  0.80067  0.46999  1.0000
  H   H4924     1.0  0.65414  0.98847  0.22227  1.0000
  H   H4925     1.0  0.64519  0.96650  0.25043  1.0000
  Fe  Fe557     1.0  0.61562  0.99059  0.43933  1.0000
  S   S1104     1.0  0.97797  0.79533  0.43720  1.0000
  H   H4926     1.0  0.84370  0.90428  0.47491  1.0000
  S   S1105     1.0  0.66517  0.98697  0.32955  1.0000
  H   H4927     1.0  0.82139  0.87083  0.46940  1.0000
  H   H4928     1.0  0.51684  0.95235  0.08112  1.0000
  H   H4929     1.0  0.73712  0.98880  0.37551  1.0000
  C   C4109     1.0  0.80946  0.92252  0.47316  1.0000
  H   H4930     1.0  0.62993  0.96367  0.24651  1.0000
  H   H4931     1.0  0.64047  0.98396  0.29340  1.0000
  H   H4932     1.0  0.90895  0.84946  0.46524  1.0000
  H   H4933     1.0  0.51975  0.82021  0.11442  1.0000
  C   C4110     1.0  0.58020  0.98756  0.10164  1.0000
  C   C4111     1.0  0.66866  0.98550  0.39269  1.0000
  C   C4112     1.0  0.50547  0.82009  0.14180  1.0000
  C   C4113     1.0  0.50822  0.82621  0.11641  1.0000
  C   C4114     1.0  0.53779  0.93014  0.07352  1.0000
  C   C4115     1.0  0.52497  0.92963  0.05041  1.0000
  S   S1106     1.0  0.97105  0.79499  0.47799  1.0000
  C   C4116     1.0  0.50407  0.80683  0.05519  1.0000
  C   C4117     1.0  0.55047  0.79578  0.10278  1.0000
  H   H4934     1.0  0.65362  0.98761  0.24063  1.0000
  C   C4118     1.0  0.62631  0.98886  0.22511  1.0000
  H   H4935     1.0  0.50807  0.83739  0.11651  1.0000
  H   H4936     1.0  0.50445  0.91194  0.08037  1.0000
  H   H4937     1.0  0.64980  0.99010  0.47954  1.0000
  C   C4119     1.0  0.82617  0.89389  0.47641  1.0000
  C   C4120     1.0  0.69817  0.98638  0.48457  1.0000
  H   H4938     1.0  0.62538  0.79864  0.13182  1.0000
  C   C4121     1.0  0.91508  0.82730  0.47565  1.0000
  H   H4939     1.0  0.71847  0.98934  0.44141  1.0000
  C   C4122     1.0  0.50532  0.86426  0.17511  1.0000
  C   C4123     1.0  0.55625  0.98835  0.09804  1.0000
  C   C4124     1.0  0.60649  0.98440  0.09435  1.0000
  H   H4940     1.0  0.54819  0.98274  0.09824  1.0000
  H   H4941     1.0  0.79152  0.91340  0.47474  1.0000
  C   C4125     1.0  0.81114  0.89716  0.47647  1.0000
  H   H4942     1.0  0.50520  0.83142  0.14153  1.0000
  C   C4126     1.0  0.80296  0.91126  0.47480  1.0000
  H   H4943     1.0  0.80313  0.93345  0.47175  1.0000
  C   C4127     1.0  0.85936  0.79137  0.42201  1.0000
  C   C4128     1.0  0.50578  0.79198  0.14007  1.0000
  H   H4944     1.0  0.55000  0.79591  0.00035  1.0000
  S   S1107     1.0  0.89764  0.96513  0.51809  1.0000
  H   H4945     1.0  0.63111  0.87864  0.72049  1.0000
  C   C4129     1.0  0.80210  0.91268  0.56698  1.0000
  H   H4946     1.0  0.62179  0.89356  0.69969  1.0000
  C   C4130     1.0  0.53643  0.96807  0.84852  1.0000
  H   H4947     1.0  0.51819  0.91907  0.76365  1.0000
  S   S1108     1.0  0.88785  0.89260  0.50736  1.0000
  H   H4948     1.0  0.51896  0.95528  0.88270  1.0000
  H   H4949     1.0  0.89218  0.84051  0.53514  1.0000
  H   H4950     1.0  0.63530  0.87158  0.74189  1.0000
  H   H4951     1.0  0.53390  0.81434  0.94160  1.0000
  H   H4952     1.0  0.59965  0.85066  0.75533  1.0000
  H   H4953     1.0  0.69474  0.98253  0.64806  1.0000
  C   C4131     1.0  0.60403  0.80720  0.80285  1.0000
  H   H4954     1.0  0.51495  0.87639  0.94885  1.0000
  C   C4132     1.0  0.51791  0.91137  0.77418  1.0000
  H   H4955     1.0  0.55525  0.80530  0.81678  1.0000
  H   H4956     1.0  0.50580  0.93942  0.85867  1.0000
  H   H4957     1.0  0.90083  0.86183  0.52227  1.0000
  H   H4958     1.0  0.77950  0.93595  0.55891  1.0000
  C   C4133     1.0  0.52605  0.80243  0.91584  1.0000
  H   H4959     1.0  0.67257  0.97441  0.61207  1.0000
  N   N276      1.0  0.93877  0.97499  0.52049  1.0000
  C   C4134     1.0  0.50629  0.87846  0.74990  1.0000
  S   S1109     1.0  0.56970  0.96324  0.65072  1.0000
  C   C4135     1.0  0.68253  0.96315  0.68162  1.0000
  H   H4960     1.0  0.86241  0.81194  0.49584  1.0000
  C   C4136     1.0  0.68227  0.98746  0.68187  1.0000
  C   C4137     1.0  0.51677  0.89480  0.75563  1.0000
  C   C4138     1.0  0.50609  0.87099  0.95575  1.0000
  H   H4961     1.0  0.53905  0.80879  0.81028  1.0000
  S   S1110     1.0  0.68311  0.95928  0.56957  1.0000
  H   H4962     1.0  0.89747  0.82471  0.52823  1.0000
  C   C4139     1.0  0.88538  0.79244  0.54185  1.0000
  H   H4963     1.0  0.51750  0.91747  0.78208  1.0000
  H   H4964     1.0  0.51342  0.80126  0.93716  1.0000
  Fe  Fe558     1.0  0.53810  0.85977  0.79875  1.0000
  S   S1111     1.0  0.53276  0.86622  0.77722  1.0000
  S   S1112     1.0  0.51894  0.86326  0.81699  1.0000
  H   H4965     1.0  0.58037  0.88256  0.71845  1.0000
  S   S1113     1.0  0.56626  0.85107  0.76482  1.0000
  Fe  Fe559     1.0  0.55420  0.87266  0.76919  1.0000
  S   S1114     1.0  0.55640  0.89294  0.75226  1.0000
  Fe  Fe560     1.0  0.54516  0.84420  0.77506  1.0000
  S   S1115     1.0  0.53706  0.82936  0.76754  1.0000
  S   S1116     1.0  0.55860  0.86817  0.79101  1.0000
  S   S1117     1.0  0.54924  0.83722  0.79710  1.0000
  H   H4966     1.0  0.93011  0.98184  0.54060  1.0000
  Fe  Fe561     1.0  0.62971  0.92578  0.68909  1.0000
  S   S1118     1.0  0.61265  0.93657  0.70515  1.0000
  S   S1119     1.0  0.62323  0.91919  0.67271  1.0000
  Fe  Fe562     1.0  0.65454  0.92701  0.70040  1.0000
  S   S1120     1.0  0.63969  0.93779  0.71772  1.0000
  S   S1121     1.0  0.67871  0.92391  0.69700  1.0000
  Fe  Fe563     1.0  0.62589  0.92215  0.72072  1.0000
  S   S1122     1.0  0.61591  0.91086  0.74278  1.0000
  Fe  Fe564     1.0  0.62779  0.95115  0.70069  1.0000
  S   S1123     1.0  0.62025  0.97506  0.69531  1.0000
  S   S1124     1.0  0.64198  0.91002  0.70492  1.0000
  S   S1125     1.0  0.64369  0.94166  0.68306  1.0000
  C   C4140     1.0  0.61089  0.87184  0.73243  1.0000
  Fe  Fe565     1.0  0.74375  0.94829  0.60271  1.0000
  S   S1126     1.0  0.76444  0.94288  0.61030  1.0000
  S   S1127     1.0  0.73899  0.96585  0.58381  1.0000
  Fe  Fe566     1.0  0.73047  0.92644  0.62645  1.0000
  S   S1128     1.0  0.74985  0.91882  0.63632  1.0000
  S   S1129     1.0  0.71048  0.91738  0.63416  1.0000
  Fe  Fe567     1.0  0.74970  0.94222  0.63205  1.0000
  S   S1130     1.0  0.75424  0.94963  0.64922  1.0000
  Fe  Fe568     1.0  0.76297  0.91999  0.61386  1.0000
  S   S1131     1.0  0.78310  0.90293  0.60882  1.0000
  S   S1132     1.0  0.72902  0.94976  0.62420  1.0000
  S   S1133     1.0  0.74358  0.92549  0.60433  1.0000
  Fe  Fe569     1.0  0.81957  0.86674  0.53619  1.0000
  S   S1134     1.0  0.79789  0.86202  0.53929  1.0000
  S   S1135     1.0  0.82221  0.88860  0.52355  1.0000
  C   C4141     1.0  0.52287  0.79612  0.93042  1.0000
  S   S1136     1.0  0.81130  0.82982  0.55621  1.0000
  Fe  Fe570     1.0  0.81065  0.84117  0.53354  1.0000
  S   S1137     1.0  0.80798  0.83028  0.51790  1.0000
  Fe  Fe571     1.0  0.80058  0.85130  0.56161  1.0000
  S   S1138     1.0  0.78081  0.85567  0.57919  1.0000
  S   S1139     1.0  0.83226  0.84687  0.52844  1.0000
  S   S1140     1.0  0.82156  0.85753  0.55893  1.0000
  H   H4967     1.0  0.62850  0.86328  0.75982  1.0000
  C   C4142     1.0  0.80174  0.84276  0.50339  1.0000
  H   H4968     1.0  0.50668  0.87157  0.74308  1.0000
  H   H4969     1.0  0.92075  0.80627  0.48881  1.0000
  H   H4970     1.0  0.52579  0.97525  0.88665  1.0000
  H   H4971     1.0  0.54349  0.79863  0.77955  1.0000
  N   N277      1.0  0.51158  0.85526  0.96019  1.0000
  C   C4143     1.0  0.91396  0.82263  0.50097  1.0000
  H   H4972     1.0  0.81007  0.82799  0.48944  1.0000
  H   H4973     1.0  0.54569  0.98678  0.84231  1.0000
  H   H4974     1.0  0.74526  0.98487  0.59737  1.0000
  C   C4144     1.0  0.78212  0.88967  0.60093  1.0000
  C   C4145     1.0  0.76934  0.88985  0.59730  1.0000
  C   C4146     1.0  0.76886  0.87908  0.59108  1.0000
  C   C4147     1.0  0.78130  0.86838  0.58799  1.0000
  C   C4148     1.0  0.79407  0.86814  0.59170  1.0000
  C   C4149     1.0  0.79444  0.87874  0.59821  1.0000
  H   H4975     1.0  0.75985  0.89831  0.59920  1.0000
  H   H4976     1.0  0.75898  0.87929  0.58820  1.0000
  H   H4977     1.0  0.80365  0.85978  0.58953  1.0000
  H   H4978     1.0  0.80435  0.87851  0.60104  1.0000
  H   H4979     1.0  0.51913  0.81526  0.76092  1.0000
  C   C4150     1.0  0.51933  0.98825  0.64874  1.0000
  C   C4151     1.0  0.75680  0.97227  0.65763  1.0000
  C   C4152     1.0  0.75170  0.96803  0.64811  1.0000
  C   C4153     1.0  0.74356  0.97839  0.63894  1.0000
  C   C4154     1.0  0.51850  0.85546  0.93356  1.0000
  C   C4155     1.0  0.52895  0.95861  0.85985  1.0000
  H   H4980     1.0  0.76303  0.96428  0.66479  1.0000
  H   H4981     1.0  0.73948  0.97515  0.63165  1.0000
  H   H4982     1.0  0.51979  0.83199  0.82444  1.0000
  C   C4156     1.0  0.68760  0.92177  0.67966  1.0000
  C   C4157     1.0  0.68085  0.91744  0.67155  1.0000
  C   C4158     1.0  0.68809  0.91576  0.65768  1.0000
  C   C4159     1.0  0.70185  0.91891  0.65173  1.0000
  C   C4160     1.0  0.70852  0.92343  0.65978  1.0000
  C   C4161     1.0  0.70151  0.92456  0.67385  1.0000
  H   H4983     1.0  0.67014  0.91515  0.67605  1.0000
  H   H4984     1.0  0.68295  0.91216  0.65152  1.0000
  H   H4985     1.0  0.71922  0.92571  0.65530  1.0000
  H   H4986     1.0  0.70683  0.92764  0.68024  1.0000
  C   C4162     1.0  0.53993  0.97969  0.85102  1.0000
  H   H4987     1.0  0.69277  0.98464  0.56854  1.0000
  C   C4163     1.0  0.62467  0.97650  0.72081  1.0000
  H   H4988     1.0  0.75550  0.98876  0.57180  1.0000
  C   C4164     1.0  0.90404  0.94348  0.48758  1.0000
  H   H4989     1.0  0.91108  0.86350  0.50429  1.0000
  C   C4165     1.0  0.50792  0.80688  0.87409  1.0000
  H   H4990     1.0  0.62610  0.96501  0.72391  1.0000
  C   C4166     1.0  0.80470  0.83888  0.49031  1.0000
  H   H4991     1.0  0.50252  0.83753  0.97439  1.0000
  C   C4167     1.0  0.57255  0.89853  0.74982  1.0000
  C   C4168     1.0  0.57972  0.89497  0.76099  1.0000
  C   C4169     1.0  0.59279  0.89917  0.75878  1.0000
  C   C4170     1.0  0.59902  0.90657  0.74529  1.0000
  C   C4171     1.0  0.59181  0.91021  0.73413  1.0000
  C   C4172     1.0  0.57841  0.90651  0.73650  1.0000
  H   H4992     1.0  0.57516  0.88904  0.77137  1.0000
  H   H4993     1.0  0.59823  0.89644  0.76751  1.0000
  H   H4994     1.0  0.59654  0.91584  0.72367  1.0000
  H   H4995     1.0  0.57289  0.90935  0.72782  1.0000
  H   H4996     1.0  0.94208  0.96489  0.50298  1.0000
  H   H4997     1.0  0.85196  0.80266  0.52580  1.0000
  C   C4173     1.0  0.59650  0.87309  0.73117  1.0000
  H   H4998     1.0  0.66416  0.95479  0.69545  1.0000
  C   C4174     1.0  0.62627  0.98398  0.73005  1.0000
  H   H4999     1.0  0.52377  0.82662  0.96130  1.0000
  C   C4175     1.0  0.75365  0.98674  0.65816  1.0000
  C   C4176     1.0  0.60058  0.88891  0.70773  1.0000
  Fe  Fe572     1.0  0.56927  0.84604  0.78722  1.0000
  H   H5000     1.0  0.90447  0.93263  0.48723  1.0000
  C   C4177     1.0  0.53618  0.98219  0.86473  1.0000
  H   H5001     1.0  0.81743  0.87105  0.49483  1.0000
  H   H5002     1.0  0.57056  0.82603  0.81615  1.0000
  C   C4178     1.0  0.52970  0.82586  0.93936  1.0000
  H   H5003     1.0  0.88050  0.81674  0.51102  1.0000
  H   H5004     1.0  0.83493  0.85915  0.49423  1.0000
  C   C4179     1.0  0.61994  0.87928  0.72059  1.0000
  C   C4180     1.0  0.88761  0.79865  0.52725  1.0000
  C   C4181     1.0  0.69890  0.96157  0.57256  1.0000
  C   C4182     1.0  0.70932  0.94940  0.57674  1.0000
  C   C4183     1.0  0.72157  0.95079  0.58021  1.0000
  C   C4184     1.0  0.72365  0.96434  0.57925  1.0000
  C   C4185     1.0  0.71333  0.97660  0.57484  1.0000
  C   C4186     1.0  0.70087  0.97520  0.57163  1.0000
  H   H5005     1.0  0.70784  0.93885  0.57744  1.0000
  H   H5006     1.0  0.72953  0.94135  0.58335  1.0000
  H   H5007     1.0  0.61869  0.95161  0.62750  1.0000
  H   H5008     1.0  0.95451  0.96758  0.53382  1.0000
  C   C4187     1.0  0.52040  0.89525  0.84089  1.0000
  H   H5009     1.0  0.92412  0.97595  0.50757  1.0000
  H   H5010     1.0  0.62262  0.98688  0.62415  1.0000
  C   C4188     1.0  0.87420  0.79934  0.55153  1.0000
  Fe  Fe573     1.0  0.83219  0.83694  0.55149  1.0000
  H   H5011     1.0  0.80004  0.92906  0.54082  1.0000
  H   H5012     1.0  0.79810  0.88725  0.56705  1.0000
  C   C4189     1.0  0.68960  0.97485  0.67663  1.0000
  C   C4190     1.0  0.90711  0.84699  0.48773  1.0000
  C   C4191     1.0  0.52992  0.83344  0.92531  1.0000
  H   H5013     1.0  0.55059  0.96865  0.71767  1.0000
  H   H5014     1.0  0.89987  0.93890  0.51056  1.0000
  C   C4192     1.0  0.58491  0.95156  0.65666  1.0000
  C   C4193     1.0  0.59252  0.95558  0.66424  1.0000
  C   C4194     1.0  0.60435  0.94567  0.66927  1.0000
  C   C4195     1.0  0.60858  0.93184  0.66657  1.0000
  C   C4196     1.0  0.60118  0.92805  0.65868  1.0000
  C   C4197     1.0  0.58933  0.93785  0.65382  1.0000
  H   H5015     1.0  0.58925  0.96625  0.66623  1.0000
  H   H5016     1.0  0.61028  0.94876  0.67506  1.0000
  H   H5017     1.0  0.60450  0.91743  0.65647  1.0000
  H   H5018     1.0  0.58350  0.93475  0.64790  1.0000
  H   H5019     1.0  0.92914  0.95877  0.51854  1.0000
  H   H5020     1.0  0.97130  0.79516  0.51264  1.0000
  H   H5021     1.0  0.68714  0.95310  0.67831  1.0000
  C   C4198     1.0  0.51965  0.87596  0.82563  1.0000
  C   C4199     1.0  0.53284  0.87921  0.82477  1.0000
  C   C4200     1.0  0.53321  0.88892  0.83236  1.0000
  C   C4201     1.0  0.63209  0.98958  0.49798  1.0000
  C   C4202     1.0  0.53097  0.93285  0.86766  1.0000
  H   H5022     1.0  0.54283  0.87394  0.81863  1.0000
  H   H5023     1.0  0.54346  0.89122  0.83192  1.0000
  C   C4203     1.0  0.62512  0.86967  0.74973  1.0000
  H   H5024     1.0  0.83878  0.81154  0.53896  1.0000
  H   H5025     1.0  0.79681  0.90774  0.57798  1.0000
  H   H5026     1.0  0.57148  0.96749  0.59236  1.0000
  C   C4204     1.0  0.52498  0.96173  0.87361  1.0000
  C   C4205     1.0  0.79008  0.86684  0.49276  1.0000
  N   N278      1.0  0.61674  0.86240  0.74487  1.0000
  C   C4206     1.0  0.79424  0.85669  0.50464  1.0000
  C   C4207     1.0  0.51706  0.88615  0.74669  1.0000
  H   H5027     1.0  0.86063  0.82888  0.52820  1.0000
  C   C4208     1.0  0.86959  0.89146  0.51206  1.0000
  C   C4209     1.0  0.86472  0.88104  0.52381  1.0000
  C   C4210     1.0  0.85016  0.87992  0.52728  1.0000
  C   C4211     1.0  0.84043  0.88957  0.51928  1.0000
  C   C4212     1.0  0.84525  0.90005  0.50766  1.0000
  C   C4213     1.0  0.85988  0.90081  0.50388  1.0000
  H   H5028     1.0  0.87218  0.87382  0.53018  1.0000
  H   H5029     1.0  0.84642  0.87182  0.53631  1.0000
  H   H5030     1.0  0.83770  0.90754  0.50153  1.0000
  N   N279      1.0  0.50536  0.90440  0.77835  1.0000
  H   H5031     1.0  0.62071  0.84353  0.73679  1.0000
  H   H5032     1.0  0.69065  0.96546  0.60437  1.0000
  H   H5033     1.0  0.63591  0.85188  0.73168  1.0000
  C   C4214     1.0  0.80293  0.91728  0.54175  1.0000
  H   H5034     1.0  0.59693  0.86733  0.76054  1.0000
  H   H5035     1.0  0.60971  0.85171  0.76695  1.0000
  C   C4215     1.0  0.54789  0.80012  0.81433  1.0000
  C   C4216     1.0  0.84029  0.80482  0.53124  1.0000
  H   H5036     1.0  0.57970  0.97886  0.68677  1.0000
  S   S1141     1.0  0.50432  0.97677  0.91178  1.0000
  H   H5037     1.0  0.84162  0.79143  0.55753  1.0000
  H   H5038     1.0  0.52828  0.93398  0.84189  1.0000
  C   C4217     1.0  0.51204  0.82334  0.76656  1.0000
  H   H5039     1.0  0.69366  0.94891  0.62594  1.0000
  H   H5040     1.0  0.71135  0.98923  0.67353  1.0000
  H   H5041     1.0  0.59709  0.98058  0.61005  1.0000
  H   H5042     1.0  0.51329  0.81364  0.86475  1.0000
  Fe  Fe574     1.0  0.56287  0.98544  0.65466  1.0000
  H   H5043     1.0  0.67607  0.96773  0.59634  1.0000
  H   H5044     1.0  0.53433  0.82785  0.91664  1.0000
  H   H5045     1.0  0.53976  0.96671  0.83767  1.0000
  H   H5046     1.0  0.65794  0.95851  0.59723  1.0000
  C   C4218     1.0  0.52266  0.85298  0.96854  1.0000
  H   H5047     1.0  0.68129  0.93782  0.63560  1.0000
  H   H5048     1.0  0.81440  0.89078  0.55452  1.0000
  H   H5049     1.0  0.59662  0.89563  0.69840  1.0000
  C   C4219     1.0  0.95067  0.96399  0.52626  1.0000
  C   C4220     1.0  0.59150  0.88150  0.71898  1.0000
  H   H5050     1.0  0.58456  0.80936  0.85704  1.0000
  H   H5051     1.0  0.65716  0.94338  0.64272  1.0000
  N   N280      1.0  0.74528  0.87650  0.63937  1.0000
  C   C4221     1.0  0.74260  0.86207  0.64134  1.0000
  C   C4222     1.0  0.73849  0.88649  0.62775  1.0000
  C   C4223     1.0  0.76126  0.87533  0.63458  1.0000
  C   C4224     1.0  0.73881  0.88169  0.65279  1.0000
  C   C4225     1.0  0.72374  0.88287  0.65903  1.0000
  C   C4226     1.0  0.74705  0.88584  0.65994  1.0000
  C   C4227     1.0  0.71738  0.88764  0.67172  1.0000
  C   C4228     1.0  0.74052  0.89075  0.67255  1.0000
  C   C4229     1.0  0.72574  0.89160  0.67845  1.0000
  H   H5052     1.0  0.73084  0.86225  0.64339  1.0000
  H   H5053     1.0  0.74792  0.85757  0.63164  1.0000
  H   H5054     1.0  0.74690  0.85441  0.65049  1.0000
  C   C4230     1.0  0.90146  0.94703  0.50079  1.0000
  H   H5055     1.0  0.74310  0.88300  0.61744  1.0000
  H   H5056     1.0  0.76714  0.86790  0.64278  1.0000
  H   H5057     1.0  0.76585  0.87107  0.62468  1.0000
  H   H5058     1.0  0.76409  0.88598  0.63196  1.0000
  H   H5059     1.0  0.71666  0.88041  0.65398  1.0000
  H   H5060     1.0  0.75850  0.88567  0.65588  1.0000
  H   H5061     1.0  0.70577  0.88875  0.67612  1.0000
  H   H5062     1.0  0.74694  0.89412  0.67768  1.0000
  H   H5063     1.0  0.72065  0.89565  0.68809  1.0000
  H   H5064     1.0  0.71438  0.97105  0.68389  1.0000
  C   C4231     1.0  0.61477  0.88777  0.70852  1.0000
  H   H5065     1.0  0.91802  0.98756  0.52884  1.0000
  H   H5066     1.0  0.58875  0.86790  0.73954  1.0000
  C   C4232     1.0  0.52871  0.97325  0.87598  1.0000
  C   C4233     1.0  0.87865  0.81180  0.52231  1.0000
  C   C4234     1.0  0.63747  0.94718  0.63635  1.0000
  H   H5067     1.0  0.62898  0.97820  0.74021  1.0000
  N   N281      1.0  0.57340  0.96485  0.70727  1.0000
  C   C4235     1.0  0.57214  0.95430  0.70001  1.0000
  C   C4236     1.0  0.58775  0.80122  0.86609  1.0000
  C   C4237     1.0  0.58347  0.97359  0.69689  1.0000
  C   C4238     1.0  0.57822  0.95744  0.72078  1.0000
  C   C4239     1.0  0.57079  0.94729  0.73108  1.0000
  C   C4240     1.0  0.58994  0.96034  0.72438  1.0000
  C   C4241     1.0  0.57529  0.94000  0.74380  1.0000
  C   C4242     1.0  0.59446  0.95284  0.73704  1.0000
  C   C4243     1.0  0.58725  0.94259  0.74665  1.0000
  H   H5068     1.0  0.56347  0.94841  0.70614  1.0000
  H   H5069     1.0  0.56935  0.95958  0.68941  1.0000
  H   H5070     1.0  0.58256  0.94622  0.69816  1.0000
  C   C4244     1.0  0.60413  0.79432  0.81317  1.0000
  C   C4245     1.0  0.53794  0.79573  0.90674  1.0000
  H   H5071     1.0  0.55524  0.81032  0.78657  1.0000
  H   H5072     1.0  0.59457  0.96687  0.69406  1.0000
  H   H5073     1.0  0.83089  0.87513  0.50085  1.0000
  H   H5074     1.0  0.50994  0.80597  0.98551  1.0000
  H   H5075     1.0  0.56155  0.94476  0.72934  1.0000
  S   S1142     1.0  0.52087  0.90664  0.85114  1.0000
  H   H5076     1.0  0.56980  0.93190  0.75127  1.0000
  H   H5077     1.0  0.54885  0.96342  0.60222  1.0000
  H   H5078     1.0  0.59113  0.93645  0.75620  1.0000
  H   H5079     1.0  0.63110  0.84172  0.74963  1.0000
  H   H5080     1.0  0.70425  0.95666  0.65776  1.0000
  C   C4246     1.0  0.90255  0.85827  0.51221  1.0000
  S   S1143     1.0  0.65063  0.97980  0.55241  1.0000
  H   H5081     1.0  0.71257  0.95147  0.67301  1.0000
  H   H5082     1.0  0.50565  0.79295  0.86238  1.0000
  C   C4247     1.0  0.59210  0.79278  0.82453  1.0000
  H   H5083     1.0  0.56404  0.96279  0.61953  1.0000
  C   C4248     1.0  0.50543  0.89523  0.79291  1.0000
  H   H5084     1.0  0.52664  0.84148  0.97324  1.0000
  H   H5085     1.0  0.63195  0.95941  0.60258  1.0000
  C   C4249     1.0  0.52386  0.83301  0.95058  1.0000
  H   H5086     1.0  0.59603  0.96811  0.71747  1.0000
  H   H5087     1.0  0.50405  0.94866  0.87209  1.0000
  S   S1144     1.0  0.54102  0.80297  0.88834  1.0000
  H   H5088     1.0  0.90225  0.98241  0.48918  1.0000
  C   C4250     1.0  0.63761  0.95608  0.61127  1.0000
  H   H5089     1.0  0.52557  0.90030  0.75252  1.0000
  C   C4251     1.0  0.58008  0.80430  0.82571  1.0000
  H   H5090     1.0  0.81406  0.90854  0.56580  1.0000
  H   H5091     1.0  0.55498  0.98055  0.70072  1.0000
  C   C4252     1.0  0.60523  0.85790  0.75738  1.0000
  H   H5092     1.0  0.61117  0.97683  0.66955  1.0000
  H   H5093     1.0  0.53233  0.85718  0.96174  1.0000
  C   C4253     1.0  0.86511  0.81240  0.54665  1.0000
  H   H5094     1.0  0.61701  0.98913  0.51841  1.0000
  H   H5095     1.0  0.91552  0.81471  0.51065  1.0000
  H   H5096     1.0  0.52586  0.88521  0.73734  1.0000
  H   H5097     1.0  0.75757  0.98987  0.66565  1.0000
  C   C4254     1.0  0.71084  0.95987  0.66321  1.0000
  C   C4255     1.0  0.66903  0.98807  0.69194  1.0000
  H   H5098     1.0  0.57096  0.80337  0.83467  1.0000
  H   H5099     1.0  0.57079  0.81117  0.88157  1.0000
  C   C4256     1.0  0.57985  0.81714  0.81521  1.0000
  C   C4257     1.0  0.77161  0.90425  0.56032  1.0000
  C   C4258     1.0  0.75828  0.93257  0.56235  1.0000
  C   C4259     1.0  0.75648  0.90886  0.56266  1.0000
  C   C4260     1.0  0.74983  0.92298  0.56363  1.0000
  H   H5100     1.0  0.81504  0.91397  0.53906  1.0000
  H   H5101     1.0  0.79902  0.91506  0.53334  1.0000
  H   H5102     1.0  0.77596  0.89312  0.55977  1.0000
  H   H5103     1.0  0.75306  0.94354  0.56323  1.0000
  H   H5104     1.0  0.74987  0.90139  0.56374  1.0000
  H   H5105     1.0  0.73810  0.92650  0.56536  1.0000
  N   N282      1.0  0.90668  0.84243  0.51427  1.0000
  C   C4261     1.0  0.89475  0.83662  0.52512  1.0000
  C   C4262     1.0  0.92004  0.83731  0.52004  1.0000
  H   H5106     1.0  0.54289  0.93129  0.86639  1.0000
  C   C4263     1.0  0.90921  0.83746  0.50096  1.0000
  H   H5107     1.0  0.51564  0.88688  0.79306  1.0000
  C   C4264     1.0  0.50680  0.88265  0.83378  1.0000
  S   S1145     1.0  0.59166  0.83423  0.79018  1.0000
  H   H5108     1.0  0.52844  0.90326  0.77359  1.0000
  H   H5109     1.0  0.88459  0.83996  0.52105  1.0000
  H   H5110     1.0  0.52904  0.92311  0.86578  1.0000
  C   C4265     1.0  0.62658  0.84930  0.74056  1.0000
  C   C4266     1.0  0.81967  0.79459  0.54490  1.0000
  H   H5111     1.0  0.63174  0.94337  0.64717  1.0000
  H   H5112     1.0  0.92955  0.84051  0.51182  1.0000
  H   H5113     1.0  0.61563  0.97038  0.64642  1.0000
  H   H5114     1.0  0.78434  0.87762  0.49379  1.0000
  H   H5115     1.0  0.82619  0.79900  0.51328  1.0000
  C   C4267     1.0  0.91690  0.81767  0.48849  1.0000
  C   C4268     1.0  0.50914  0.94829  0.86075  1.0000
  C   C4269     1.0  0.70244  0.98475  0.65299  1.0000
  H   H5116     1.0  0.67603  0.95676  0.63543  1.0000
  C   C4270     1.0  0.51801  0.83199  0.77109  1.0000
  C   C4271     1.0  0.58000  0.80227  0.87989  1.0000
  C   C4272     1.0  0.77343  0.92808  0.55997  1.0000
  H   H5117     1.0  0.96021  0.96142  0.51748  1.0000
  H   H5118     1.0  0.52440  0.85405  0.91148  1.0000
  H   H5119     1.0  0.52637  0.95277  0.83499  1.0000
  H   H5120     1.0  0.94543  0.80668  0.51343  1.0000
  N   N283      1.0  0.55507  0.98156  0.60488  1.0000
  N   N284      1.0  0.70400  0.97421  0.66661  1.0000
  H   H5121     1.0  0.94711  0.95384  0.53222  1.0000
  C   C4273     1.0  0.59181  0.81854  0.80371  1.0000
  H   H5122     1.0  0.51828  0.85832  0.97775  1.0000
  H   H5123     1.0  0.87257  0.79452  0.56285  1.0000
  H   H5124     1.0  0.91888  0.84176  0.52943  1.0000
  C   C4274     1.0  0.66921  0.96397  0.69154  1.0000
  C   C4275     1.0  0.65967  0.98823  0.65218  1.0000
  H   H5125     1.0  0.92288  0.82546  0.52363  1.0000
  H   H5126     1.0  0.52505  0.96813  0.64225  1.0000
  C   C4276     1.0  0.51171  0.82647  0.82446  1.0000
  N   N285      1.0  0.79667  0.90937  0.55613  1.0000
  C   C4277     1.0  0.80230  0.89383  0.55652  1.0000
  C   C4278     1.0  0.50719  0.89221  0.84148  1.0000
  H   H5127     1.0  0.79932  0.89062  0.54813  1.0000
  H   H5128     1.0  0.80004  0.92436  0.56630  1.0000
  H   H5129     1.0  0.81322  0.80144  0.53690  1.0000
  C   C4279     1.0  0.50373  0.79518  0.87279  1.0000
  H   H5130     1.0  0.81722  0.80053  0.55348  1.0000
  C   C4280     1.0  0.93338  0.96842  0.51197  1.0000
  H   H5131     1.0  0.79149  0.85964  0.51478  1.0000
  H   H5132     1.0  0.84039  0.82812  0.48892  1.0000
  H   H5133     1.0  0.52859  0.98568  0.65351  1.0000
  H   H5134     1.0  0.72177  0.95967  0.65587  1.0000
  H   H5135     1.0  0.64523  0.98367  0.67271  1.0000
  H   H5136     1.0  0.61854  0.88022  0.75179  1.0000
  H   H5137     1.0  0.74017  0.89748  0.62602  1.0000
  H   H5138     1.0  0.72654  0.88745  0.63009  1.0000
  S   S1146     1.0  0.85102  0.82048  0.55913  1.0000
  C   C4281     1.0  0.61700  0.98071  0.64664  1.0000
  C   C4282     1.0  0.78058  0.91376  0.55894  1.0000
  C   C4283     1.0  0.52436  0.84820  0.92242  1.0000
  C   C4284     1.0  0.63013  0.95173  0.62526  1.0000
  H   H5139     1.0  0.51423  0.86687  0.93050  1.0000
  C   C4285     1.0  0.94840  0.79702  0.52133  1.0000
  H   H5140     1.0  0.94029  0.98875  0.49134  1.0000
  H   H5141     1.0  0.68674  0.97565  0.50471  1.0000
  C   C4286     1.0  0.54405  0.97457  0.60372  1.0000
  H   H5142     1.0  0.76784  0.98832  0.58900  1.0000
  C   C4287     1.0  0.55897  0.97455  0.71059  1.0000
  H   H5143     1.0  0.50509  0.98818  0.86043  1.0000
  H   H5144     1.0  0.51905  0.81235  0.91162  1.0000
  C   C4288     1.0  0.90279  0.97155  0.48876  1.0000
  H   H5145     1.0  0.89214  0.86279  0.50858  1.0000
  C   C4289     1.0  0.90074  0.96106  0.50141  1.0000
  C   C4290     1.0  0.86739  0.81867  0.53201  1.0000
  C   C4291     1.0  0.55951  0.97450  0.61860  1.0000
  C   C4292     1.0  0.53104  0.94366  0.84299  1.0000
  C   C4293     1.0  0.51165  0.81260  0.83264  1.0000
  H   H5146     1.0  0.71477  0.98713  0.57420  1.0000
  H   H5147     1.0  0.51320  0.84906  0.78206  1.0000
  H   H5148     1.0  0.54313  0.94177  0.84008  1.0000
  C   C4294     1.0  0.51800  0.84804  0.94805  1.0000
  H   H5149     1.0  0.57775  0.98143  0.59452  1.0000
  N   N286      1.0  0.52517  0.94611  0.85773  1.0000
  N   N287      1.0  0.67592  0.95143  0.61603  1.0000
  C   C4295     1.0  0.68400  0.93986  0.60831  1.0000
  C   C4296     1.0  0.67887  0.96535  0.60687  1.0000
  C   C4297     1.0  0.68188  0.94870  0.62886  1.0000
  C   C4298     1.0  0.66017  0.95171  0.61944  1.0000
  C   C4299     1.0  0.65222  0.94723  0.63359  1.0000
  C   C4300     1.0  0.65246  0.95581  0.60834  1.0000
  H   H5150     1.0  0.66154  0.97755  0.65045  1.0000
  Fe  Fe575     1.0  0.89048  0.98861  0.51771  1.0000
  H   H5151     1.0  0.86354  0.90884  0.49482  1.0000
  H   H5152     1.0  0.68085  0.94167  0.59800  1.0000
  H   H5153     1.0  0.69597  0.93898  0.60581  1.0000
  H   H5154     1.0  0.68194  0.92924  0.61480  1.0000
  H   H5155     1.0  0.83404  0.81168  0.52317  1.0000
  C   C4301     1.0  0.66256  0.97632  0.69678  1.0000
  C   C4302     1.0  0.62137  0.98397  0.70758  1.0000
  H   H5156     1.0  0.52570  0.93293  0.87905  1.0000
  H   H5157     1.0  0.93747  0.85872  0.49291  1.0000
  H   H5158     1.0  0.61332  0.80828  0.79402  1.0000
  C   C4303     1.0  0.50873  0.84249  0.77832  1.0000
  C   C4304     1.0  0.56799  0.97896  0.59304  1.0000
  H   H5159     1.0  0.51973  0.80726  0.83903  1.0000
  C   C4305     1.0  0.61437  0.98437  0.65970  1.0000
  H   H5160     1.0  0.50453  0.90152  0.80083  1.0000
  C   C4306     1.0  0.68935  0.97703  0.49318  1.0000
  Fe  Fe576     1.0  0.66703  0.97973  0.56399  1.0000
  H   H5161     1.0  0.60380  0.95479  0.73929  1.0000
  H   H5162     1.0  0.53242  0.81286  0.98481  1.0000
  C   C4307     1.0  0.58378  0.79162  0.89152  1.0000
  H   H5163     1.0  0.92630  0.79582  0.53190  1.0000
  H   H5164     1.0  0.50416  0.95852  0.85412  1.0000
  H   H5165     1.0  0.92142  0.96930  0.53846  1.0000
  H   H5166     1.0  0.56859  0.79467  0.78209  1.0000
  H   H5167     1.0  0.56796  0.97917  0.61992  1.0000
  H   H5168     1.0  0.50916  0.81854  0.88860  1.0000
  H   H5169     1.0  0.71298  0.98442  0.64503  1.0000
  C   C4308     1.0  0.82926  0.87066  0.49259  1.0000
  H   H5170     1.0  0.57746  0.79232  0.90221  1.0000
  H   H5171     1.0  0.72547  0.97587  0.66654  1.0000
  S   S1147     1.0  0.50293  0.96917  0.62810  1.0000
  C   C4309     1.0  0.94419  0.98804  0.51216  1.0000
  H   H5172     1.0  0.65243  0.97672  0.70472  1.0000
  H   H5173     1.0  0.53530  0.97338  0.61360  1.0000
  C   C4310     1.0  0.68350  0.96979  0.48694  1.0000
  C   C4311     1.0  0.50560  0.80963  0.88752  1.0000
  H   H5174     1.0  0.56571  0.98546  0.58254  1.0000
  H   H5175     1.0  0.90359  0.85848  0.48655  1.0000
  H   H5176     1.0  0.58425  0.98252  0.70105  1.0000
  C   C4312     1.0  0.92663  0.97852  0.53263  1.0000
  C   C4313     1.0  0.85854  0.80985  0.48770  1.0000
  S   S1148     1.0  0.95544  0.83089  0.49078  1.0000
  S   S1149     1.0  0.62011  0.98584  0.49002  1.0000
  H   H5177     1.0  0.55018  0.97582  0.62791  1.0000
  H   H5178     1.0  0.67636  0.96277  0.49367  1.0000
  H   H5179     1.0  0.55952  0.98270  0.71596  1.0000
  C   C4314     1.0  0.62745  0.99120  0.51215  1.0000
  H   H5180     1.0  0.88819  0.80487  0.48738  1.0000
  C   C4315     1.0  0.51730  0.97828  0.64241  1.0000
  C   C4316     1.0  0.50577  0.89572  0.76835  1.0000
  C   C4317     1.0  0.71414  0.97778  0.67293  1.0000
  S   S1150     1.0  0.61382  0.98474  0.58132  1.0000
  H   H5181     1.0  0.54281  0.79361  0.82458  1.0000
  S   S1151     1.0  0.99455  0.80736  0.48660  1.0000
  C   C4318     1.0  0.50517  0.98138  0.63648  1.0000
  H   H5182     1.0  0.57139  0.80467  0.79308  1.0000
  H   H5183     1.0  0.53907  0.99108  0.86667  1.0000
  C   C4319     1.0  0.56304  0.80058  0.79077  1.0000
  H   H5184     1.0  0.53888  0.98074  0.59459  1.0000
  C   C4320     1.0  0.62099  0.99042  0.63385  1.0000
  S   S1152     1.0  0.65059  0.98937  0.58120  1.0000
  N   N288      1.0  0.55576  0.79128  0.80369  1.0000
