data_image0
_chemical_formula_structural       HSH2C3H2FeS5CFe2SCFeS2FeSFeS2Fe2SFeC6H2SHC6H4SNH2C2HCHCHFeCHCH2CNCSC2SC2H5SHC3SH4SFeCNH3CHNFeCSH2CH2CHFeCH2CHCHCH2C2HSHCH4CHCHSHC2H2C3HC2NC8H14CHCH2SCHSH2CFeSHFeCHCH2CFeHC2HS2HFeC2H2SCHC2SHC2H4CH3CHCHC2SCFeH4CHCHC2HCHNHNCSC2SCFeSH2CHC3HCFeSH4FeSHS2HSC4H4CFeH2C8H4CHC2H3CHSC2H4C2H3CHC3H3C2H2SH3CHCHFeS2CFeCH3NSH3CSHCSH3CH3CSH2FeHSCHC2SC2NH2C3NH5CH6CFeHCH2CH2CHCHSHSCH2CHCHCHSC3HCNSH3CSHCHCSHC6H2C3H2S2CH2CHC2HSFeC2SHNC2SCH4FeH2CH3CHFeHC2H4FeCSHC6FeCFeHFe2SH2SFeS4FeHCFeS2FeS2FeHFeS4HCHC3H2SCHFeS2FeS2FeSFeS3C6H4SC2H3C2H2SC9H4C6H9CHC2HCSCHCFeCH2SC6H4C6HCH3CH2CHNC2SCH5C3H3CSHC2HC4H3CHCH2SC3HNCNC9H15C2HC3H3N2SH3CH2CNCHCHCH2FeH5CFeNC4SCH2CH11C2H2CNC3HC4H2CH5SH3FeH3CH4C3H2CFeH3C2HNFeSHCSH3FeHFeNC3H2C2H10CH2CH4CHCNHCHSHFeSCHNFeSHSH6SHSH2C2HCNCHSFeS2CH2C2HFeCSFeCSFeSCSFeS2HFeC3HC3FeCH4C7H4CH4FeSCH2CH9C5H5CHC4SH4C3H2CH2C5SFeH2C2SC2HCH2NHSHSCNCHSCHCHSHCFeHCSHC2H5NC2H4C3SH3FeCHC3H2SC2H2C2HCHCH3C2NC9H8CHC4SHCSHSHS2CHCFeCH2CHCHCSC2H3C3H2CH2C3HCH2CH2CH4CHFeS2FeS2FeSFeCS2CHFeHCHC2SC3FeSHCSFeS3NHCNH2CH2SC2HCHCH2FeS2H3FeHC2HSC4H5CHCHCHSH2C2FeSCHCH2C6H4CH3CHSHFeHCHC3H3C5H2CH2NHC4H4CHCHSH2C3H4NH6NC9HSH2CH9C3H2CHS2HNFeHC3HSHCHCHC3H2S2C3H2CH4FeCNC8H14SCHNC9H11CH2CHC2HCNCH2SHC2SCH4CHFeC2HCHSHCHC3S2HCSHC2HCHSH3C2HCSH3CH3CHSHCH2CFeH2FeHCH3SHC7SC2NHCNC2SHC3HCHC2FeSCSFeCHC2H2SHFeC3FeH2C3HS2NCH2CH3CFeS2C3SHCH2CH5CHCH2CHCFeNC6H2CH9CHCFeHFeCS2CSH3C2H3SCH2SHSHFeH6C4HC2H3SH2CHFeCS2H4CS2FeH3C3SCSCS3CSCFeS2FeS2FeSFeS3FeS2FeS2FeSFeS3C2HC6H4CHC2H3C5H4C6H6C6H4C6H4C5HCNC2H3CS2HNC9H14NC9HNH6C2H6C3HCHCHCH2C2H2CNC9H8FeH5NCH2C3HCHC2H4CHCH3C2H2SH2CHCH3CH2CHCSH5C2HC3HCHC2FeCHFeHCFeCHCH2C2FeSH2C2HCH2CNHCH3CSH2C2NH2FeH2CH3CH4CH5NSH2CH2C2SH4SC3HCH2CH3C2HCH4FeCHCH5CNSCH2CHC2H2SCH3CH3CSCH2CH5FeCH2CH4SHSFeSHCHFeSFeS2CSFeH2SC2HC6HCSCSC4HFeH2C2H3CH3NSFeCHFeH2FeHFeSHFeSCFeSFeSHSFeCHFeS2FeC2S2CSH2C2FeSC3HCFeSHFeSHFeSFeSHSFeSFeS2FeS2HC6H4C6HSHCHC2SCHSC6H4C2H3CSCHCH2SH2C6H4C6H6CH2CNSHCFeCH4C2SH11CSHCNC9H14NHC2H2CH2CFeH2CH8CHSH2FeHCNC7H5CSCNC8H11NC9H14SC2HCH2CSCHCSC2NFeH3C3SHC2H2FeSC3H3CH2CNCH2CHCHCHC2HCH2CHSNCH3CHCHC4H2CH2CSH3CH2CH3CHCHCH3NHC2HC3HCH2SH2C2HCHCSH6C2NCHC2HCH3C2HFeSHSFeSFeS2FeS2FeSHFeSFeS3H2NHCH2NH3C2H3CHC3H2C6H4C6H2CHC2HFeH3CH3C3SC3HC4H13CHC2H2C2HC2H2C3HC3HC2H6C2H2CFe2HC2NH2C2H2S2CHNS2HC2S2FeC2HSCH5CH2C2HCH3SCHSCHFeS2HSFeSCFeS2HCFeH2C2H2CSH4CHFeS2FeS2FeS2FeS2FeSFeS2H5CFeH2C4H2C7H5FeHCH3CHC4H2C3S2HFeSH3C6H4C6H5NFeHNC4SHC2NHNH8SCFeHNC9H14NC6H11C2HSH3CH2CHCHC5FeCHC2HCH3C4H2FeH2CNHCH4CSH2CHS2H2CHSHSHCHCHSCSH2S2C3HC2FeC2HCHCHSH2C4HCH4NCHFeCHCSC3SCHFeHCH2FeH3CH3C2HCHC2HFeSC3NHCSFeH2CH2CH2FeC2H3CHCS3HCFeHS2H5CHCSFeCHC2SHCH2CHCH4CH5SH2CH2CHCHC11H6CHSNCHC3H2C3H2CH2C3HSH3C2HC2SC2HCHCH3C3H2CFeH2NH3FeSHCSH5C2HCHNCH2FeC4HC2HC2HNC2HNH2CH2C4FeH3NHC2H2CHC2H3CFeS2HCFeHS2FeSCFeS2FeS2FeS2FeSFeS3HCH3CNFeS2FeS2C2H3C4HSHCS2H2C2SC4H6CH3C5FeHCH2SC6H4C6H2CHC6H4SCH2CSC4NC5H4C6H4C6H6CH3C2H3C5HCH6SH2FeNHCH3CH2CH2CHNC4HC2HCH11SFeCNC8H15SHCFe2CHCHCSH2FeNC8H10NC4HC4H7CHC2H4CH3SH2CHFeH3CHNCHSC2HFeSH2CH3CH2C2HSCH3CHC2Fe2S2CHCFe2S2Fe2HS2HCHCFeS2FeSFeS3NCHCSC2H2CHFeCH4FeH2C3FeH2C6H2CHFeSC2HC2HC2HC6H5SH2CSH3CHSH2C4H2SH2C2H2C2SH2SCHCHCH3NC7HCHC2HCH2CH3CHSCH2SHC2HNCH2CNCFeCH3C2NC2H6C2HCHCH2C2H3SCHCSHCSCH2SCSCH3CH3C2HC2H5CHC2HC2HCH3CHCSCHCH2C2H2CH3CH4C2H2CH3C4H4C2H2CHCHCFeS2HSCFeSFeS2CH3FeS2FeSFeS3FeS2FeSFeSHS2CFeHSHFeCH2C6H4CH4C6H4C6HCSH2CHCHCHC8H2C2H2CH8C2HFeHNC9H10CHSCHSCH4C3HCFeHNCH2C2HC6H5SHC2H3C2H3CH3NH2SHCNCH2SNH4SH2C2NC9H7CH3SCHSHCSNC2FeH2C2HSCH5C3HC2H3SCHSCH3SCH2CHCH2CNHCHC3HCH2C2HSCNC2H2CH2CHC2HCHC2HC2HCH3C2H4CH2CSH3SCH3C2H4CH3CSCH2NFeS2FeS2FeSFeS3C2HC6H6NH4C3HC5H3FeHCH2SHC2HC6H5CFeH2C2FeNH2SCH2C2H2FeH2CH4C2HFeC3HCFeH3CHCH2SHC4HNH3CHC3HCHCSHCHCH4SH2CH2C2S3HC3NC9H3CH10CH2S2FeHCHSHNSH3SCNSCHSC2Fe2H3C3HC2NH3CH2SCSC7HCH3C2SH8CH2C2SHC3FeH2CHC2H3CH2C4H2CH7CH2C4H4CH2C2H2CH4CHCHC4HC2NH2CH2S2HC6SHNCHCH2C2HNHNHCHFeHCSHSCH3CH3CH2SC2HC2SH2CHC4HFeH3CHFe2HCHSCHC2H3SHC3H3C3H3CHC2H2C4HSH2CH2CH2CHC2H2C3HCH3SHC2HSCHC2NHCH3FeS2FeS2FeSFeS3FeS2FeS2Fe2S3HC2H2CHCHCH2C2H2C2H2C2H4C2H12CHC2H3C2NH4CHC2H3CHC4H2CH3C5HC3H2CH3FeH6C6H4C6H4C3HC2H3C2HC4HNH3SN2CHCH2C5H3C2HCNCH2CH2C2FeHCHCSC2H5CNC4HC2HNH5C2H2C5HC2H3CH2CHSH2CH3C2H2C3H3NHC2H2CHCHCHCH2CHCH6CH2C2HCHC2HFe2SH5CFeS4HFeSFeS3HSCH2C3HCH2SC2HCHCHCHCSH3CHC6H4C2FeCH6CHCH2C4H3NHC2HCH2CHC5FeHCSC2H3NSC4HSC2SHCH7CH2SH2C3HC3HCHCHC2HN2HCH4NC4H3CH4CH4FeH2CH4CSCHFeCHFeHSH2SCSHFeCH3CHCSC2H3CH4FeS2FeS2FeSFeHS2H2CNH2CHNSCSFeSFeS2FeSFeS5FeSFeSH2C2HC2H3CHC6H3C3HC3H4C8H4CH2CNHCH3C7H4C2H2C2SH4FeHFeCHCHCH5CHCH2FeHC7H8CHCSHC3H3C2HCHCHSFeCHC3SH2SHCH2C6NHSC2SC2NHCFeCSH2CSC2H2C3Fe2C3SH2SCH2C3H3CSH2CSH2SH3C7H2C3HNH2C2HC2H3CH3CH6C2H2CH3C2H2CH2C2NCH2CH3C2HCH5CHC3H2FeS2FeSFeSFeS3C2HCSHSC2HC2HC5HCH2Fe2HCH2CHSH2SC5H2CHC2HCH4C5H3C2H2CH2CHFeCHSH2CFeC2H2C2HNS2H2CHCH4S2H3CHC3NH2C3H2CHCHNC9H18CHCSCH3SHC2H2CSHCHCHNHCH7CNH2N
_chemical_formula_sum              "H2592 S576 C2160 Fe288 N144"
_cell_length_a       72.2298
_cell_length_b       72.9855
_cell_length_c       73.5455
_cell_angle_alpha    77.5917
_cell_angle_beta     77.6742
_cell_angle_gamma    77.635

_space_group_name_H-M_alt    "P 1"
_space_group_IT_number       1

loop_
  _space_group_symop_operation_xyz
  'x, y, z'

loop_
  _atom_site_type_symbol
  _atom_site_label
  _atom_site_symmetry_multiplicity
  _atom_site_fract_x
  _atom_site_fract_y
  _atom_site_fract_z
  _atom_site_occupancy
  H   H1        1.0  0.47366  0.10350  0.28145  1.0000
  S   S1        1.0  0.47451  0.19801  0.29287  1.0000
  H   H2        1.0  0.47676  0.13635  0.26878  1.0000
  H   H3        1.0  0.46090  0.07663  0.29187  1.0000
  C   C1        1.0  0.46825  0.13281  0.28270  1.0000
  C   C2        1.0  0.46634  0.11388  0.29026  1.0000
  C   C3        1.0  0.46008  0.14715  0.29327  1.0000
  H   H4        1.0  0.46219  0.16168  0.28751  1.0000
  H   H5        1.0  0.48099  0.07533  0.30345  1.0000
  Fe  Fe1       1.0  0.38474  0.02314  0.58665  1.0000
  S   S2        1.0  0.35903  0.04052  0.57499  1.0000
  S   S3        1.0  0.40932  0.01022  0.56658  1.0000
  S   S4        1.0  0.38761  0.04506  0.60239  1.0000
  S   S5        1.0  0.36778  0.00642  0.61121  1.0000
  S   S6        1.0  0.36162  0.22863  0.61332  1.0000
  C   C4        1.0  0.37146  0.99147  0.54512  1.0000
  Fe  Fe2       1.0  0.35020  0.19104  0.47470  1.0000
  Fe  Fe3       1.0  0.37148  0.00542  0.48237  1.0000
  S   S7        1.0  0.34490  0.02411  0.47364  1.0000
  C   C5        1.0  0.40642  0.19263  0.39038  1.0000
  Fe  Fe4       1.0  0.39715  0.02052  0.44652  1.0000
  S   S8        1.0  0.37274  0.04083  0.43477  1.0000
  S   S9        1.0  0.42832  0.01799  0.43314  1.0000
  Fe  Fe5       1.0  0.36282  0.04721  0.46429  1.0000
  S   S10       1.0  0.35417  0.07461  0.47618  1.0000
  Fe  Fe6       1.0  0.35733  0.01565  0.44533  1.0000
  S   S11       1.0  0.33918  0.00725  0.42816  1.0000
  S   S12       1.0  0.38865  0.02882  0.47514  1.0000
  Fe  Fe7       1.0  0.34098  0.18205  0.62379  1.0000
  Fe  Fe8       1.0  0.48070  0.02451  0.33531  1.0000
  S   S13       1.0  0.44850  0.03029  0.34399  1.0000
  Fe  Fe9       1.0  0.36034  0.06141  0.59281  1.0000
  C   C6        1.0  0.35008  0.09714  0.46166  1.0000
  C   C7        1.0  0.34656  0.11347  0.46991  1.0000
  C   C8        1.0  0.34404  0.13172  0.45877  1.0000
  C   C9        1.0  0.34454  0.13376  0.43935  1.0000
  C   C10       1.0  0.34778  0.11744  0.43110  1.0000
  C   C11       1.0  0.35068  0.09914  0.44221  1.0000
  H   H6        1.0  0.34570  0.11203  0.48499  1.0000
  H   H7        1.0  0.34135  0.14422  0.46527  1.0000
  S   S14       1.0  0.35366  0.20683  0.42042  1.0000
  H   H8        1.0  0.35332  0.08661  0.43576  1.0000
  C   C12       1.0  0.43340  0.02211  0.40835  1.0000
  C   C13       1.0  0.41872  0.02627  0.39759  1.0000
  C   C14       1.0  0.42332  0.02921  0.37774  1.0000
  C   C15       1.0  0.44259  0.02782  0.36869  1.0000
  C   C16       1.0  0.45719  0.02396  0.37947  1.0000
  C   C17       1.0  0.45259  0.02110  0.39924  1.0000
  H   H9        1.0  0.40387  0.02708  0.40454  1.0000
  H   H10       1.0  0.41197  0.03237  0.36944  1.0000
  H   H11       1.0  0.47208  0.02308  0.37264  1.0000
  H   H12       1.0  0.46398  0.01798  0.40751  1.0000
  S   S15       1.0  0.36044  0.21807  0.45918  1.0000
  N   N1        1.0  0.45363  0.08889  0.31735  1.0000
  H   H13       1.0  0.42151  0.00655  0.52734  1.0000
  H   H14       1.0  0.35009  0.12086  0.54700  1.0000
  C   C18       1.0  0.45949  0.08376  0.33622  1.0000
  C   C19       1.0  0.34502  0.10363  0.61307  1.0000
  H   H15       1.0  0.35746  0.98746  0.55016  1.0000
  C   C20       1.0  0.38070  0.99672  0.55760  1.0000
  H   H16       1.0  0.43999  0.00618  0.63143  1.0000
  C   C21       1.0  0.41765  0.10086  0.40227  1.0000
  H   H17       1.0  0.37379  0.99662  0.57217  1.0000
  Fe  Fe10      1.0  0.34207  0.02558  0.60090  1.0000
  C   C22       1.0  0.39872  0.00218  0.55120  1.0000
  H   H18       1.0  0.29805  0.98716  0.54889  1.0000
  C   C23       1.0  0.42543  0.13904  0.40123  1.0000
  H   H19       1.0  0.39289  0.00224  0.38728  1.0000
  H   H20       1.0  0.32308  0.98921  0.54544  1.0000
  C   C24       1.0  0.40757  0.00231  0.53230  1.0000
  N   N2        1.0  0.44584  0.13297  0.62293  1.0000
  C   C25       1.0  0.40751  0.11309  0.41517  1.0000
  S   S16       1.0  0.38253  0.99502  0.45489  1.0000
  C   C26       1.0  0.45585  0.10880  0.30876  1.0000
  C   C27       1.0  0.37997  0.99220  0.52609  1.0000
  S   S17       1.0  0.32436  0.19598  0.46053  1.0000
  C   C28       1.0  0.34179  0.12802  0.53552  1.0000
  C   C29       1.0  0.34925  0.14165  0.59901  1.0000
  H   H21       1.0  0.46797  0.10810  0.61905  1.0000
  H   H22       1.0  0.42437  0.10653  0.38821  1.0000
  H   H23       1.0  0.41145  0.05755  0.42875  1.0000
  H   H24       1.0  0.30312  0.16892  0.59978  1.0000
  H   H25       1.0  0.45719  0.15799  0.62332  1.0000
  S   S18       1.0  0.31533  0.01576  0.59850  1.0000
  H   H26       1.0  0.39261  0.07800  0.45138  1.0000
  C   C30       1.0  0.39986  0.08445  0.43778  1.0000
  C   C31       1.0  0.41034  0.07288  0.42498  1.0000
  C   C32       1.0  0.38641  0.13082  0.50638  1.0000
  S   S19       1.0  0.35936  0.09229  0.57865  1.0000
  H   H27       1.0  0.38957  0.11235  0.44348  1.0000
  H   H28       1.0  0.30932  0.11612  0.58151  1.0000
  H   H29       1.0  0.36101  0.13233  0.57232  1.0000
  H   H30       1.0  0.39171  0.19113  0.39646  1.0000
  S   S20       1.0  0.36966  0.17358  0.45428  1.0000
  Fe  Fe11      1.0  0.36797  0.03014  0.62612  1.0000
  C   C33       1.0  0.43010  0.10715  0.61826  1.0000
  N   N3        1.0  0.32084  0.12913  0.54243  1.0000
  H   H31       1.0  0.46383  0.05979  0.31290  1.0000
  H   H32       1.0  0.39301  0.12950  0.53379  1.0000
  H   H33       1.0  0.35702  0.18750  0.56690  1.0000
  C   C34       1.0  0.35559  0.19410  0.55252  1.0000
  H   H34       1.0  0.41440  0.15520  0.60641  1.0000
  N   N4        1.0  0.40611  0.13403  0.40961  1.0000
  Fe  Fe12      1.0  0.37737  0.20096  0.43714  1.0000
  C   C35       1.0  0.41579  0.10093  0.61227  1.0000
  S   S21       1.0  0.40818  0.20348  0.42369  1.0000
  H   H35       1.0  0.45005  0.09220  0.34661  1.0000
  H   H36       1.0  0.43848  0.12132  0.33277  1.0000
  C   C36       1.0  0.39806  0.99754  0.51967  1.0000
  H   H37       1.0  0.38284  0.14315  0.43137  1.0000
  H   H38       1.0  0.46028  0.98748  0.35062  1.0000
  C   C37       1.0  0.30595  0.16106  0.58824  1.0000
  H   H39       1.0  0.31262  0.18497  0.56679  1.0000
  Fe  Fe13      1.0  0.34484  0.18025  0.43890  1.0000
  C   C38       1.0  0.31573  0.15970  0.55490  1.0000
  H   H40       1.0  0.43609  0.13201  0.41064  1.0000
  H   H41       1.0  0.42708  0.07185  0.39730  1.0000
  C   C39       1.0  0.31055  0.13890  0.52655  1.0000
  H   H42       1.0  0.32064  0.10180  0.53553  1.0000
  C   C40       1.0  0.30957  0.13119  0.57737  1.0000
  H   H43       1.0  0.41517  0.00128  0.35667  1.0000
  C   C41       1.0  0.44528  0.15391  0.61848  1.0000
  H   H44       1.0  0.31515  0.15271  0.51950  1.0000
  H   H45       1.0  0.47452  0.08593  0.33518  1.0000
  C   C42       1.0  0.39832  0.10427  0.43302  1.0000
  C   C43       1.0  0.31135  0.17003  0.56970  1.0000
  H   H46       1.0  0.44523  0.20547  0.40026  1.0000
  S   S22       1.0  0.48795  0.21460  0.32535  1.0000
  H   H47       1.0  0.35022  0.21768  0.50085  1.0000
  C   C44       1.0  0.31307  0.99157  0.60511  1.0000
  H   H48       1.0  0.30613  0.99535  0.42325  1.0000
  H   H49       1.0  0.29471  0.14176  0.53154  1.0000
  H   H50       1.0  0.34577  0.14236  0.53034  1.0000
  H   H51       1.0  0.34687  0.12001  0.52360  1.0000
  C   C45       1.0  0.40125  0.13352  0.60230  1.0000
  H   H52       1.0  0.40570  0.18404  0.36426  1.0000
  C   C46       1.0  0.43655  0.20079  0.39243  1.0000
  H   H53       1.0  0.43174  0.16171  0.62576  1.0000
  S   S23       1.0  0.36786  0.98626  0.51056  1.0000
  H   H54       1.0  0.30139  0.13468  0.60658  1.0000
  C   C47       1.0  0.30495  0.14172  0.59204  1.0000
  C   C48       1.0  0.31503  0.13994  0.55825  1.0000
  H   H55       1.0  0.45911  0.19870  0.36792  1.0000
  H   H56       1.0  0.39023  0.10911  0.59989  1.0000
  C   C49       1.0  0.35533  0.21368  0.54668  1.0000
  C   C50       1.0  0.31692  0.10931  0.54785  1.0000
  C   C51       1.0  0.39323  0.14114  0.39543  1.0000
  H   H57       1.0  0.30143  0.10912  0.55383  1.0000
  C   C52       1.0  0.43338  0.19083  0.36392  1.0000
  C   C53       1.0  0.44446  0.19694  0.37412  1.0000
  N   N5        1.0  0.38633  0.07023  0.52284  1.0000
  C   C54       1.0  0.36594  0.06771  0.52722  1.0000
  C   C55       1.0  0.39656  0.05973  0.50730  1.0000
  C   C56       1.0  0.39524  0.06113  0.53977  1.0000
  C   C57       1.0  0.38702  0.09088  0.51719  1.0000
  C   C58       1.0  0.38278  0.10099  0.49935  1.0000
  C   C59       1.0  0.39055  0.10180  0.52957  1.0000
  C   C60       1.0  0.38256  0.12063  0.49406  1.0000
  C   C61       1.0  0.39039  0.12143  0.52409  1.0000
  H   H58       1.0  0.35853  0.07371  0.51486  1.0000
  H   H59       1.0  0.36468  0.05234  0.53119  1.0000
  H   H60       1.0  0.35781  0.07489  0.53920  1.0000
  H   H61       1.0  0.41140  0.06284  0.50212  1.0000
  H   H62       1.0  0.38888  0.06310  0.49508  1.0000
  H   H63       1.0  0.39775  0.04399  0.51191  1.0000
  H   H64       1.0  0.38697  0.06646  0.55277  1.0000
  H   H65       1.0  0.39560  0.04544  0.54304  1.0000
  H   H66       1.0  0.41037  0.06337  0.53768  1.0000
  H   H67       1.0  0.37919  0.09388  0.48946  1.0000
  H   H68       1.0  0.39317  0.09560  0.54371  1.0000
  H   H69       1.0  0.37904  0.12807  0.48045  1.0000
  H   H70       1.0  0.42522  0.15466  0.39899  1.0000
  H   H71       1.0  0.43101  0.07209  0.32593  1.0000
  C   C62       1.0  0.31586  0.98266  0.42825  1.0000
  H   H72       1.0  0.34331  0.08901  0.61861  1.0000
  C   C63       1.0  0.41556  0.13994  0.60818  1.0000
  H   H73       1.0  0.47696  0.12904  0.61800  1.0000
  H   H74       1.0  0.39142  0.15691  0.39108  1.0000
  S   S24       1.0  0.34932  0.17731  0.50546  1.0000
  C   C64       1.0  0.35422  0.18298  0.53963  1.0000
  H   H75       1.0  0.38590  0.14612  0.50235  1.0000
  S   S25       1.0  0.36988  0.18470  0.60603  1.0000
  H   H76       1.0  0.40669  0.13905  0.43733  1.0000
  H   H77       1.0  0.39830  0.15994  0.42139  1.0000
  C   C65       1.0  0.43318  0.08701  0.31971  1.0000
  Fe  Fe14      1.0  0.35481  0.21319  0.59293  1.0000
  S   S26       1.0  0.44259  0.18584  0.34090  1.0000
  H   H78       1.0  0.32575  0.10050  0.55841  1.0000
  Fe  Fe15      1.0  0.47193  0.19158  0.32461  1.0000
  C   C66       1.0  0.43058  0.12684  0.61623  1.0000
  H   H79       1.0  0.39876  0.13481  0.38244  1.0000
  C   C67       1.0  0.44710  0.12392  0.31887  1.0000
  H   H80       1.0  0.32745  0.98744  0.51562  1.0000
  H   H81       1.0  0.37856  0.13767  0.40130  1.0000
  C   C68       1.0  0.39819  0.14435  0.42570  1.0000
  Fe  Fe16      1.0  0.37365  0.19973  0.62836  1.0000
  H   H82       1.0  0.34809  0.11895  0.41608  1.0000
  C   C69       1.0  0.41753  0.19866  0.40062  1.0000
  C   C70       1.0  0.34089  0.13636  0.61792  1.0000
  H   H83       1.0  0.32028  0.16725  0.54084  1.0000
  S   S27       1.0  0.34070  0.04824  0.61794  1.0000
  S   S28       1.0  0.32533  0.20927  0.60881  1.0000
  H   H84       1.0  0.35475  0.16781  0.54418  1.0000
  Fe  Fe17      1.0  0.33574  0.22223  0.44356  1.0000
  C   C71       1.0  0.35500  0.12804  0.58703  1.0000
  C   C72       1.0  0.41438  0.18861  0.37215  1.0000
  H   H85       1.0  0.31347  0.13030  0.51511  1.0000
  H   H86       1.0  0.42354  0.09634  0.32926  1.0000
  S   S29       1.0  0.34159  0.15656  0.42516  1.0000
  C   C73       1.0  0.41915  0.08104  0.40723  1.0000
  H   H87       1.0  0.44340  0.98637  0.38369  1.0000
  C   C74       1.0  0.35275  0.10901  0.59401  1.0000
  C   C75       1.0  0.29495  0.98722  0.61373  1.0000
  S   S30       1.0  0.33183  0.15330  0.63293  1.0000
  H   H88       1.0  0.43107  0.13508  0.38706  1.0000
  C   C76       1.0  0.35213  0.19145  0.52098  1.0000
  C   C77       1.0  0.35187  0.21103  0.51516  1.0000
  H   H89       1.0  0.35060  0.15637  0.59342  1.0000
  H   H90       1.0  0.40483  0.99781  0.50502  1.0000
  H   H91       1.0  0.41562  0.08579  0.61420  1.0000
  H   H92       1.0  0.46682  0.12658  0.59847  1.0000
  C   C78       1.0  0.33894  0.11730  0.62493  1.0000
  H   H93       1.0  0.45876  0.06857  0.34265  1.0000
  H   H94       1.0  0.44054  0.09635  0.62497  1.0000
  H   H95       1.0  0.42074  0.99568  0.61557  1.0000
  C   C79       1.0  0.46514  0.12380  0.61417  1.0000
  H   H96       1.0  0.44669  0.15934  0.60299  1.0000
  C   C80       1.0  0.39252  0.99198  0.37870  1.0000
  H   H97       1.0  0.38988  0.14369  0.59623  1.0000
  C   C81       1.0  0.40139  0.11407  0.60431  1.0000
  C   C82       1.0  0.40505  0.99145  0.36149  1.0000
  S   S31       1.0  0.35707  0.22791  0.56254  1.0000
  C   C83       1.0  0.35358  0.22210  0.52796  1.0000
  Fe  Fe18      1.0  0.33267  0.22343  0.62990  1.0000
  H   H98       1.0  0.32522  0.98791  0.48299  1.0000
  H   H99       1.0  0.28303  0.99859  0.61679  1.0000
  H   H100      1.0  0.39779  0.22717  0.35533  1.0000
  H   H101      1.0  0.37135  0.06269  0.63821  1.0000
  C   C84       1.0  0.33311  0.98433  0.43294  1.0000
  H   H102      1.0  0.44313  0.15404  0.31944  1.0000
  C   C85       1.0  0.44944  0.14275  0.31129  1.0000
  H   H103      1.0  0.42813  0.09092  0.30587  1.0000
  C   C86       1.0  0.46537  0.07464  0.30583  1.0000
  C   C87       1.0  0.44369  0.12707  0.64372  1.0000
  H   H104      1.0  0.39638  0.15803  0.67324  1.0000
  C   C88       1.0  0.40062  0.22020  0.65493  1.0000
  H   H105      1.0  0.44271  0.10522  0.77501  1.0000
  N   N6        1.0  0.37203  0.13438  0.67175  1.0000
  H   H106      1.0  0.43070  0.18169  0.73016  1.0000
  N   N7        1.0  0.40097  0.19246  0.72707  1.0000
  C   C89       1.0  0.41273  0.12610  0.70946  1.0000
  S   S32       1.0  0.48399  0.21134  0.74668  1.0000
  C   C90       1.0  0.43625  0.99035  0.70921  1.0000
  C   C91       1.0  0.39693  0.14277  0.75511  1.0000
  S   S33       1.0  0.46575  0.06500  0.66452  1.0000
  C   C92       1.0  0.40956  0.20150  0.65342  1.0000
  Fe  Fe19      1.0  0.46173  0.19696  0.74093  1.0000
  S   S34       1.0  0.45214  0.17106  0.76046  1.0000
  H   H107      1.0  0.42509  0.18022  0.70801  1.0000
  H   H108      1.0  0.46333  0.15709  0.72384  1.0000
  C   C93       1.0  0.39101  0.20499  0.71197  1.0000
  H   H109      1.0  0.47296  0.02695  0.74209  1.0000
  C   C94       1.0  0.44816  0.00421  0.70468  1.0000
  C   C95       1.0  0.35748  0.15155  0.67513  1.0000
  C   C96       1.0  0.46812  0.99886  0.69994  1.0000
  H   H110      1.0  0.44187  0.01898  0.70506  1.0000
  C   C97       1.0  0.38854  0.11456  0.69884  1.0000
  Fe  Fe20      1.0  0.45761  0.08136  0.71280  1.0000
  S   S35       1.0  0.45168  0.10172  0.68665  1.0000
  H   H111      1.0  0.40134  0.21757  0.73797  1.0000
  H   H112      1.0  0.37243  0.17805  0.71618  1.0000
  H   H113      1.0  0.37525  0.20873  0.71700  1.0000
  H   H114      1.0  0.46267  0.12545  0.71623  1.0000
  Fe  Fe21      1.0  0.43852  0.07905  0.68064  1.0000
  S   S36       1.0  0.41289  0.08920  0.66618  1.0000
  H   H115      1.0  0.37801  0.12439  0.75335  1.0000
  S   S37       1.0  0.44179  0.05965  0.70836  1.0000
  S   S38       1.0  0.45149  0.09040  0.74125  1.0000
  H   H116      1.0  0.41388  0.16345  0.75441  1.0000
  S   S39       1.0  0.37471  0.02307  0.65546  1.0000
  C   C98       1.0  0.38450  0.04164  0.65927  1.0000
  C   C99       1.0  0.39653  0.03815  0.67272  1.0000
  C   C100      1.0  0.40557  0.05264  0.67473  1.0000
  C   C101      1.0  0.40198  0.07080  0.66380  1.0000
  H   H117      1.0  0.34632  0.15426  0.66603  1.0000
  H   H118      1.0  0.34994  0.14998  0.69008  1.0000
  H   H119      1.0  0.39904  0.02424  0.68143  1.0000
  H   H120      1.0  0.41511  0.04980  0.68491  1.0000
  C   C102      1.0  0.38936  0.07447  0.65088  1.0000
  Fe  Fe22      1.0  0.47041  0.04719  0.69267  1.0000
  H   H121      1.0  0.37164  0.10494  0.67165  1.0000
  H   H122      1.0  0.40692  0.19577  0.75374  1.0000
  C   C103      1.0  0.39776  0.20300  0.74295  1.0000
  C   C104      1.0  0.45330  0.14891  0.75375  1.0000
  C   C105      1.0  0.45883  0.14578  0.73498  1.0000
  C   C106      1.0  0.45844  0.12787  0.73066  1.0000
  C   C107      1.0  0.45256  0.11319  0.74514  1.0000
  C   C108      1.0  0.44724  0.11644  0.76374  1.0000
  C   C109      1.0  0.44755  0.13414  0.76799  1.0000
  C   C110      1.0  0.37372  0.15114  0.73417  1.0000
  H   H123      1.0  0.39894  0.98897  0.66699  1.0000
  H   H124      1.0  0.42930  0.13337  0.65094  1.0000
  H   H125      1.0  0.44320  0.13641  0.78248  1.0000
  H   H126      1.0  0.38809  0.22659  0.64844  1.0000
  C   C111      1.0  0.38198  0.13750  0.65176  1.0000
  H   H127      1.0  0.45493  0.13133  0.64942  1.0000
  C   C112      1.0  0.43323  0.20401  0.67169  1.0000
  C   C113      1.0  0.42585  0.19339  0.66188  1.0000
  H   H128      1.0  0.44591  0.19778  0.67796  1.0000
  H   H129      1.0  0.43289  0.17894  0.66068  1.0000
  H   H130      1.0  0.38858  0.15052  0.64793  1.0000
  C   C114      1.0  0.37958  0.16878  0.72712  1.0000
  H   H131      1.0  0.36402  0.16460  0.67193  1.0000
  S   S40       1.0  0.47338  0.19765  0.71011  1.0000
  C   C115      1.0  0.39753  0.14504  0.68357  1.0000
  C   C116      1.0  0.38608  0.13112  0.68466  1.0000
  H   H132      1.0  0.36255  0.14738  0.72863  1.0000
  H   H133      1.0  0.38093  0.10293  0.70043  1.0000
  H   H134      1.0  0.42720  0.20264  0.71299  1.0000
  H   H135      1.0  0.40385  0.09916  0.72129  1.0000
  C   C117      1.0  0.40271  0.16044  0.74836  1.0000
  C   C118      1.0  0.41070  0.14248  0.69573  1.0000
  H   H136      1.0  0.42302  0.12404  0.71883  1.0000
  H   H137      1.0  0.42083  0.99458  0.71309  1.0000
  H   H138      1.0  0.39637  0.21880  0.70712  1.0000
  C   C119      1.0  0.40177  0.11214  0.71094  1.0000
  H   H139      1.0  0.38247  0.20457  0.75020  1.0000
  C   C120      1.0  0.39432  0.17396  0.73407  1.0000
  C   C121      1.0  0.42185  0.18905  0.71923  1.0000
  C   C122      1.0  0.36154  0.11831  0.67427  1.0000
  H   H140      1.0  0.41944  0.15319  0.69444  1.0000
  H   H141      1.0  0.40385  0.13259  0.76582  1.0000
  H   H142      1.0  0.35282  0.11571  0.68868  1.0000
  C   C123      1.0  0.38240  0.13815  0.74811  1.0000
  C   C124      1.0  0.42864  0.00469  0.64425  1.0000
  H   H143      1.0  0.35135  0.12119  0.66410  1.0000
  H   H144      1.0  0.45170  0.98499  0.66690  1.0000
  S   S41       1.0  0.44058  0.22433  0.73695  1.0000
  H   H145      1.0  0.37186  0.13932  0.64173  1.0000
  H   H146      1.0  0.43155  0.01289  0.65418  1.0000
  H   H147      1.0  0.39354  0.12515  0.64885  1.0000
  C   C125      1.0  0.42429  0.22278  0.67313  1.0000
  H   H148      1.0  0.39356  0.19834  0.69916  1.0000
  C   C126      1.0  0.41365  0.98388  0.67041  1.0000
  H   H149      1.0  0.38625  0.08857  0.64263  1.0000
  Fe  Fe23      1.0  0.47927  0.08628  0.67254  1.0000
  S   S42       1.0  0.48358  0.01580  0.69467  1.0000
  S   S43       1.0  0.48666  0.06743  0.69931  1.0000
  C   C127      1.0  0.48787  0.02808  0.74127  1.0000
  Fe  Fe24      1.0  0.45356  0.22594  0.70619  1.0000
  C   C128      1.0  0.38089  0.05983  0.64839  1.0000
  H   H150      1.0  0.41579  0.99295  0.67987  1.0000
  H   H151      1.0  0.48048  0.05644  0.74602  1.0000
  H   H152      1.0  0.48191  0.17616  0.66060  1.0000
  N   N8        1.0  0.42842  0.98437  0.65298  1.0000
  S   S44       1.0  0.34527  0.19583  0.64676  1.0000
  H   H153      1.0  0.44513  0.11134  0.64803  1.0000
  H   H154      1.0  0.41445  0.01194  0.64035  1.0000
  H   H155      1.0  0.33246  0.11311  0.63952  1.0000
  C   C129      1.0  0.40802  0.23080  0.66467  1.0000
  S   S45       1.0  0.40075  0.18783  0.64113  1.0000
  H   H156      1.0  0.49088  0.07653  0.76004  1.0000
  C   C130      1.0  0.44380  0.27829  0.23097  1.0000
  S   S46       1.0  0.39410  0.45563  0.16651  1.0000
  H   H157      1.0  0.45524  0.24861  0.23972  1.0000
  H   H158      1.0  0.43190  0.43469  0.16908  1.0000
  H   H159      1.0  0.48667  0.30447  0.22578  1.0000
  C   C131      1.0  0.44038  0.26174  0.26346  1.0000
  H   H160      1.0  0.45005  0.27721  0.21644  1.0000
  H   H161      1.0  0.20265  0.43668  0.27514  1.0000
  H   H162      1.0  0.45622  0.38827  0.09220  1.0000
  C   C132      1.0  0.44086  0.40211  0.12421  1.0000
  S   S47       1.0  0.16696  0.46594  0.28677  1.0000
  H   H163      1.0  0.42349  0.41122  0.02913  1.0000
  H   H164      1.0  0.43783  0.32617  0.19357  1.0000
  Fe  Fe25      1.0  0.46482  0.37243  0.98816  1.0000
  H   H165      1.0  0.26130  0.44563  0.19150  1.0000
  S   S48       1.0  0.47656  0.34111  0.99127  1.0000
  C   C133      1.0  0.40250  0.40995  0.07705  1.0000
  H   H166      1.0  0.42875  0.39056  0.07837  1.0000
  C   C134      1.0  0.39096  0.41737  0.17255  1.0000
  C   C135      1.0  0.43003  0.27844  0.26945  1.0000
  S   S49       1.0  0.42752  0.36662  0.18078  1.0000
  C   C136      1.0  0.41830  0.39138  0.17672  1.0000
  C   C137      1.0  0.39862  0.39773  0.17598  1.0000
  N   N9        1.0  0.43035  0.31379  0.22305  1.0000
  H   H167      1.0  0.20415  0.43767  0.23407  1.0000
  H   H168      1.0  0.38924  0.38745  0.17809  1.0000
  C   C138      1.0  0.38678  0.42294  0.10506  1.0000
  C   C139      1.0  0.40946  0.31994  0.22276  1.0000
  C   C140      1.0  0.41747  0.39948  0.08637  1.0000
  N   N10       1.0  0.43279  0.38927  0.11603  1.0000
  H   H169      1.0  0.44540  0.40014  0.17471  1.0000
  H   H170      1.0  0.43972  0.40891  0.00745  1.0000
  H   H171      1.0  0.43005  0.40929  0.13483  1.0000
  H   H172      1.0  0.42910  0.33293  0.24234  1.0000
  H   H173      1.0  0.43485  0.30197  0.19755  1.0000
  C   C141      1.0  0.23850  0.44622  0.23757  1.0000
  H   H174      1.0  0.43548  0.36632  0.13986  1.0000
  H   H175      1.0  0.48539  0.32549  0.11187  1.0000
  H   H176      1.0  0.45281  0.32416  0.23071  1.0000
  H   H177      1.0  0.41834  0.30771  0.26160  1.0000
  H   H178      1.0  0.40657  0.33344  0.21245  1.0000
  H   H179      1.0  0.42172  0.46306  0.02515  1.0000
  C   C142      1.0  0.44022  0.31230  0.20338  1.0000
  Fe  Fe26      1.0  0.45982  0.35628  0.17480  1.0000
  H   H180      1.0  0.40347  0.30888  0.21866  1.0000
  C   C143      1.0  0.40292  0.43079  0.17014  1.0000
  H   H181      1.0  0.40750  0.45636  0.00029  1.0000
  H   H182      1.0  0.40114  0.32268  0.23676  1.0000
  C   C144      1.0  0.24112  0.44684  0.21772  1.0000
  H   H183      1.0  0.41510  0.44204  0.04017  1.0000
  H   H184      1.0  0.37579  0.42214  0.17210  1.0000
  C   C145      1.0  0.43360  0.29570  0.23662  1.0000
  H   H185      1.0  0.42979  0.47391  0.99142  1.0000
  C   C146      1.0  0.25955  0.44460  0.20669  1.0000
  H   H186      1.0  0.44454  0.36755  0.09866  1.0000
  S   S50       1.0  0.33734  0.45900  0.16294  1.0000
  H   H187      1.0  0.47796  0.31288  0.08586  1.0000
  S   S51       1.0  0.37882  0.46899  0.03126  1.0000
  C   C147      1.0  0.44359  0.46469  0.98889  1.0000
  H   H188      1.0  0.29684  0.46804  0.26335  1.0000
  H   H189      1.0  0.46968  0.42032  0.00158  1.0000
  C   C148      1.0  0.38723  0.42167  0.08634  1.0000
  H   H190      1.0  0.13181  0.45081  0.29877  1.0000
  C   C149      1.0  0.40157  0.41244  0.11458  1.0000
  H   H191      1.0  0.41604  0.43445  0.99160  1.0000
  C   C150      1.0  0.25541  0.44316  0.24554  1.0000
  H   H192      1.0  0.40254  0.40883  0.06258  1.0000
  S   S52       1.0  0.32407  0.47464  0.11033  1.0000
  C   C151      1.0  0.42258  0.42439  0.17084  1.0000
  C   C152      1.0  0.46565  0.43485  0.99470  1.0000
  C   C153      1.0  0.35932  0.47173  0.08658  1.0000
  H   H193      1.0  0.22026  0.42036  0.26230  1.0000
  C   C154      1.0  0.42647  0.29514  0.25626  1.0000
  N   N11       1.0  0.21926  0.44990  0.24949  1.0000
  S   S53       1.0  0.47210  0.37519  0.01545  1.0000
  H   H194      1.0  0.43659  0.34233  0.21818  1.0000
  H   H195      1.0  0.45279  0.39419  0.13179  1.0000
  H   H196      1.0  0.40145  0.43496  0.01451  1.0000
  C   C155      1.0  0.21737  0.43464  0.26643  1.0000
  S   S54       1.0  0.37233  0.45734  0.98305  1.0000
  H   H197      1.0  0.44656  0.41343  0.11302  1.0000
  C   C156      1.0  0.43589  0.41688  0.01948  1.0000
  H   H198      1.0  0.42503  0.27846  0.28443  1.0000
  C   C157      1.0  0.37121  0.47068  0.06890  1.0000
  S   S55       1.0  0.48167  0.37343  0.15729  1.0000
  H   H199      1.0  0.31054  0.47193  0.22897  1.0000
  C   C158      1.0  0.49062  0.26069  0.25462  1.0000
  C   C159      1.0  0.36323  0.47174  0.05281  1.0000
  C   C160      1.0  0.43027  0.40480  0.17402  1.0000
  C   C161      1.0  0.27373  0.44062  0.23442  1.0000
  C   C162      1.0  0.44913  0.37858  0.10425  1.0000
  C   C163      1.0  0.20304  0.45101  0.23955  1.0000
  H   H200      1.0  0.44366  0.24894  0.27373  1.0000
  H   H201      1.0  0.41795  0.36543  0.12611  1.0000
  C   C164      1.0  0.12807  0.46608  0.29452  1.0000
  C   C165      1.0  0.48899  0.28914  0.22981  1.0000
  C   C166      1.0  0.33939  0.47362  0.08831  1.0000
  H   H202      1.0  0.46053  0.37074  0.11258  1.0000
  H   H203      1.0  0.43979  0.44557  0.03569  1.0000
  S   S56       1.0  0.46969  0.33229  0.15824  1.0000
  S   S57       1.0  0.43566  0.38298  0.98003  1.0000
  C   C167      1.0  0.41748  0.40048  0.10549  1.0000
  H   H204      1.0  0.22734  0.43437  0.27613  1.0000
  H   H205      1.0  0.22747  0.46799  0.26497  1.0000
  C   C168      1.0  0.42443  0.37521  0.13161  1.0000
  H   H206      1.0  0.41294  0.38215  0.14191  1.0000
  C   C169      1.0  0.44696  0.26160  0.24427  1.0000
  C   C170      1.0  0.44674  0.44553  0.99858  1.0000
  H   H207      1.0  0.37479  0.43201  0.11228  1.0000
  S   S58       1.0  0.48816  0.25089  0.27911  1.0000
  Fe  Fe27      1.0  0.36854  0.47776  0.00306  1.0000
  C   C171      1.0  0.48765  0.28064  0.24905  1.0000
  C   C172      1.0  0.41336  0.44103  0.00437  1.0000
  S   S59       1.0  0.48363  0.32547  0.04547  1.0000
  H   H208      1.0  0.37560  0.42969  0.07908  1.0000
  N   N12       1.0  0.43108  0.43772  0.01263  1.0000
  C   C173      1.0  0.43751  0.32890  0.22885  1.0000
  C   C174      1.0  0.34327  0.47408  0.05443  1.0000
  S   S60       1.0  0.47796  0.34260  0.19720  1.0000
  C   C175      1.0  0.42680  0.44747  0.02916  1.0000
  H   H209      1.0  0.45607  0.30793  0.20259  1.0000
  H   H210      1.0  0.09746  0.46607  0.29979  1.0000
  H   H211      1.0  0.40031  0.41368  0.12922  1.0000
  H   H212      1.0  0.28640  0.43868  0.24078  1.0000
  Fe  Fe28      1.0  0.33567  0.47888  0.13505  1.0000
  H   H213      1.0  0.29002  0.44041  0.20631  1.0000
  H   H214      1.0  0.25464  0.44342  0.26034  1.0000
  C   C176      1.0  0.27580  0.44155  0.21501  1.0000
  H   H215      1.0  0.44797  0.41325  0.02754  1.0000
  H   H216      1.0  0.48417  0.28957  0.25972  1.0000
  H   H217      1.0  0.20235  0.47223  0.26403  1.0000
  C   C177      1.0  0.28774  0.47535  0.25313  1.0000
  H   H218      1.0  0.22920  0.44942  0.21027  1.0000
  Fe  Fe29      1.0  0.48940  0.31967  0.17960  1.0000
  H   H219      1.0  0.36562  0.47069  0.09892  1.0000
  C   C178      1.0  0.21695  0.46833  0.25578  1.0000
  C   C179      1.0  0.48016  0.44274  0.98151  1.0000
  H   H220      1.0  0.31596  0.47629  0.07346  1.0000
  H   H221      1.0  0.18883  0.45315  0.24917  1.0000
  H   H222      1.0  0.38666  0.46883  0.06771  1.0000
  H   H223      1.0  0.20235  0.46337  0.22768  1.0000
  Fe  Fe30      1.0  0.36418  0.47083  0.16162  1.0000
  C   C180      1.0  0.10863  0.47470  0.29511  1.0000
  S   S61       1.0  0.25861  0.47774  0.28397  1.0000
  H   H224      1.0  0.33702  0.47478  0.04211  1.0000
  C   C181      1.0  0.33139  0.47486  0.07219  1.0000
  C   C182      1.0  0.14266  0.47713  0.28828  1.0000
  C   C183      1.0  0.48384  0.32589  0.08273  1.0000
  C   C184      1.0  0.45817  0.47239  0.97565  1.0000
  C   C185      1.0  0.48799  0.33303  0.09745  1.0000
  C   C186      1.0  0.48764  0.33529  0.06390  1.0000
  Fe  Fe31      1.0  0.48667  0.34477  0.01695  1.0000
  C   C187      1.0  0.29555  0.47755  0.23365  1.0000
  Fe  Fe32      1.0  0.34599  0.47556  0.97291  1.0000
  H   H225      1.0  0.21907  0.48007  0.24348  1.0000
  Fe  Fe33      1.0  0.18596  0.48018  0.29783  1.0000
  Fe  Fe34      1.0  0.02956  0.35636  0.58618  1.0000
  S   S62       1.0  0.01837  0.38568  0.59278  1.0000
  H   H226      1.0  0.00902  0.27643  0.53185  1.0000
  H   H227      1.0  0.01103  0.28236  0.56466  1.0000
  S   S63       1.0  0.06186  0.38548  0.59987  1.0000
  Fe  Fe35      1.0  0.04615  0.39265  0.57550  1.0000
  S   S64       1.0  0.04737  0.41967  0.55434  1.0000
  S   S65       1.0  0.05636  0.36413  0.56708  1.0000
  S   S66       1.0  0.23921  0.36565  0.56517  1.0000
  S   S67       1.0  0.24477  0.34155  0.61626  1.0000
  Fe  Fe36      1.0  0.03489  0.37570  0.61670  1.0000
  H   H228      1.0  0.42985  0.23563  0.34212  1.0000
  C   C188      1.0  0.29314  0.30863  0.54600  1.0000
  Fe  Fe37      1.0  0.02317  0.38734  0.47368  1.0000
  S   S68       1.0  0.02466  0.35922  0.49324  1.0000
  S   S69       1.0  0.01496  0.41619  0.48204  1.0000
  Fe  Fe38      1.0  0.03423  0.36923  0.43863  1.0000
  S   S70       1.0  0.03618  0.33934  0.45520  1.0000
  S   S71       1.0  0.03788  0.37570  0.40688  1.0000
  Fe  Fe39      1.0  0.00901  0.35120  0.47354  1.0000
  H   H229      1.0  0.17090  0.30977  0.60746  1.0000
  Fe  Fe40      1.0  0.05168  0.35011  0.47315  1.0000
  S   S72       1.0  0.07874  0.33419  0.48410  1.0000
  S   S73       1.0  0.00572  0.38007  0.45539  1.0000
  S   S74       1.0  0.05149  0.37917  0.45538  1.0000
  S   S75       1.0  0.06402  0.45484  0.37242  1.0000
  H   H230      1.0  0.02797  0.29037  0.52396  1.0000
  C   C189      1.0  0.23203  0.41383  0.37971  1.0000
  H   H231      1.0  0.26724  0.31118  0.50260  1.0000
  C   C190      1.0  0.40121  0.25729  0.41985  1.0000
  C   C191      1.0  0.25180  0.31388  0.50125  1.0000
  C   C192      1.0  0.32748  0.28319  0.59992  1.0000
  H   H232      1.0  0.21200  0.47843  0.41183  1.0000
  H   H233      1.0  0.02962  0.44542  0.49209  1.0000
  S   S76       1.0  0.32183  0.25333  0.43537  1.0000
  C   C193      1.0  0.28282  0.32351  0.55515  1.0000
  H   H234      1.0  0.07456  0.42829  0.57461  1.0000
  Fe  Fe41      1.0  0.22059  0.36612  0.43419  1.0000
  S   S77       1.0  0.21246  0.34150  0.42571  1.0000
  S   S78       1.0  0.23666  0.38594  0.41103  1.0000
  Fe  Fe42      1.0  0.20196  0.35561  0.47527  1.0000
  S   S79       1.0  0.19214  0.33064  0.46958  1.0000
  S   S80       1.0  0.19008  0.36015  0.50524  1.0000
  Fe  Fe43      1.0  0.22177  0.32420  0.45246  1.0000
  S   S81       1.0  0.23404  0.29241  0.45730  1.0000
  Fe  Fe44      1.0  0.18376  0.34991  0.44355  1.0000
  S   S82       1.0  0.15685  0.35265  0.43139  1.0000
  S   S83       1.0  0.23227  0.34807  0.45992  1.0000
  S   S84       1.0  0.19126  0.37559  0.45036  1.0000
  C   C194      1.0  0.29741  0.26390  0.44206  1.0000
  C   C195      1.0  0.29189  0.28374  0.43690  1.0000
  C   C196      1.0  0.27261  0.29273  0.44157  1.0000
  C   C197      1.0  0.25859  0.28190  0.45134  1.0000
  C   C198      1.0  0.26411  0.26208  0.45665  1.0000
  C   C199      1.0  0.28342  0.25312  0.45210  1.0000
  H   H235      1.0  0.30258  0.29221  0.42911  1.0000
  H   H236      1.0  0.26859  0.30798  0.43738  1.0000
  H   H237      1.0  0.25338  0.25356  0.46421  1.0000
  H   H238      1.0  0.00378  0.32629  0.61220  1.0000
  S   S85       1.0  0.05498  0.46066  0.32037  1.0000
  C   C200      1.0  0.22335  0.40549  0.39770  1.0000
  C   C201      1.0  0.20453  0.41337  0.40506  1.0000
  H   H239      1.0  0.24936  0.29674  0.58578  1.0000
  H   H240      1.0  0.19777  0.40725  0.41894  1.0000
  H   H241      1.0  0.25370  0.25296  0.62012  1.0000
  C   C202      1.0  0.34291  0.27740  0.56900  1.0000
  C   C203      1.0  0.14861  0.35154  0.60351  1.0000
  H   H242      1.0  0.24532  0.32832  0.50455  1.0000
  H   H243      1.0  0.00838  0.47155  0.39942  1.0000
  S   S86       1.0  0.04392  0.34537  0.61174  1.0000
  C   C204      1.0  0.29872  0.30994  0.58210  1.0000
  C   C205      1.0  0.99869  0.41666  0.40426  1.0000
  C   C206      1.0  0.04339  0.43252  0.60783  1.0000
  C   C207      1.0  0.10051  0.33910  0.46937  1.0000
  C   C208      1.0  0.11777  0.33398  0.47658  1.0000
  C   C209      1.0  0.13511  0.33836  0.46520  1.0000
  C   C210      1.0  0.13534  0.34746  0.44638  1.0000
  C   C211      1.0  0.11820  0.35206  0.43903  1.0000
  C   C212      1.0  0.10081  0.34810  0.45052  1.0000
  H   H244      1.0  0.11774  0.32674  0.49104  1.0000
  H   H245      1.0  0.14824  0.33467  0.47099  1.0000
  H   H246      1.0  0.11831  0.35881  0.42440  1.0000
  H   H247      1.0  0.08769  0.35176  0.44469  1.0000
  C   C213      1.0  0.04728  0.39654  0.39624  1.0000
  C   C214      1.0  0.04275  0.40650  0.37878  1.0000
  C   C215      1.0  0.04819  0.42429  0.37116  1.0000
  C   C216      1.0  0.05878  0.43183  0.38068  1.0000
  C   C217      1.0  0.06420  0.42145  0.39763  1.0000
  C   C218      1.0  0.05843  0.40384  0.40541  1.0000
  H   H248      1.0  0.03444  0.40077  0.37143  1.0000
  H   H249      1.0  0.04394  0.43224  0.35805  1.0000
  H   H250      1.0  0.07245  0.42723  0.40500  1.0000
  H   H251      1.0  0.06263  0.39595  0.41846  1.0000
  H   H252      1.0  0.13988  0.31723  0.62439  1.0000
  H   H253      1.0  0.14907  0.46366  0.36891  1.0000
  H   H254      1.0  0.39351  0.28965  0.39493  1.0000
  H   H255      1.0  0.02042  0.32480  0.52928  1.0000
  H   H256      1.0  0.42401  0.26817  0.38545  1.0000
  C   C219      1.0  0.42857  0.25258  0.36314  1.0000
  H   H257      1.0  0.22299  0.45596  0.40443  1.0000
  C   C220      1.0  0.14991  0.44798  0.33887  1.0000
  C   C221      1.0  0.37183  0.25134  0.41416  1.0000
  H   H258      1.0  0.24657  0.40779  0.37391  1.0000
  C   C222      1.0  0.24975  0.28075  0.50655  1.0000
  S   S87       1.0  0.19064  0.45911  0.36506  1.0000
  C   C223      1.0  0.01266  0.29715  0.55755  1.0000
  H   H259      1.0  0.16387  0.34987  0.59797  1.0000
  C   C224      1.0  0.07805  0.42921  0.60319  1.0000
  Fe  Fe45      1.0  0.04868  0.47002  0.34846  1.0000
  C   C225      1.0  0.39969  0.25385  0.38795  1.0000
  H   H260      1.0  0.02044  0.46420  0.41918  1.0000
  H   H261      1.0  0.26560  0.27683  0.50599  1.0000
  S   S88       1.0  0.00297  0.45151  0.31679  1.0000
  C   C226      1.0  0.22549  0.36492  0.54824  1.0000
  C   C227      1.0  0.20610  0.36317  0.55372  1.0000
  C   C228      1.0  0.19548  0.36188  0.54030  1.0000
  C   C229      1.0  0.20410  0.36234  0.52126  1.0000
  C   C230      1.0  0.22346  0.36428  0.51564  1.0000
  C   C231      1.0  0.23413  0.36559  0.52914  1.0000
  H   H262      1.0  0.19917  0.36309  0.56827  1.0000
  H   H263      1.0  0.18047  0.36055  0.54469  1.0000
  H   H264      1.0  0.23013  0.36493  0.50093  1.0000
  H   H265      1.0  0.24908  0.36712  0.52479  1.0000
  C   C232      1.0  0.03741  0.41885  0.53478  1.0000
  C   C233      1.0  0.03710  0.43424  0.51970  1.0000
  C   C234      1.0  0.38154  0.28151  0.40070  1.0000
  C   C235      1.0  0.02330  0.41712  0.50251  1.0000
  C   C236      1.0  0.02348  0.40175  0.51763  1.0000
  C   C237      1.0  0.03025  0.40274  0.53387  1.0000
  H   H266      1.0  0.11690  0.40255  0.62237  1.0000
  C   C238      1.0  0.13372  0.43282  0.36908  1.0000
  H   H267      1.0  0.01829  0.38916  0.51688  1.0000
  H   H268      1.0  0.03005  0.39094  0.54559  1.0000
  H   H269      1.0  0.18030  0.43587  0.40081  1.0000
  C   C239      1.0  0.25474  0.27855  0.62979  1.0000
  H   H270      1.0  0.29984  0.31121  0.59618  1.0000
  H   H271      1.0  0.23159  0.32542  0.56819  1.0000
  C   C240      1.0  0.28058  0.25075  0.62953  1.0000
  H   H272      1.0  0.04384  0.42860  0.59390  1.0000
  N   N13       1.0  0.32401  0.27956  0.58191  1.0000
  C   C241      1.0  0.05851  0.45977  0.59303  1.0000
  C   C242      1.0  0.39255  0.24243  0.37853  1.0000
  S   S89       1.0  0.01664  0.47654  0.35036  1.0000
  C   C243      1.0  0.26576  0.28761  0.63734  1.0000
  H   H273      1.0  0.01572  0.43763  0.44221  1.0000
  H   H274      1.0  0.12338  0.46851  0.37568  1.0000
  H   H275      1.0  0.14955  0.46069  0.32737  1.0000
  H   H276      1.0  0.25443  0.46270  0.40044  1.0000
  H   H277      1.0  0.19392  0.29661  0.61162  1.0000
  C   C244      1.0  0.41785  0.25910  0.37946  1.0000
  C   C245      1.0  0.12762  0.27968  0.42759  1.0000
  C   C246      1.0  0.24774  0.29695  0.57139  1.0000
  H   H278      1.0  0.12568  0.39305  0.59098  1.0000
  H   H279      1.0  0.09362  0.35790  0.62292  1.0000
  H   H280      1.0  0.18398  0.26044  0.63338  1.0000
  C   C247      1.0  0.12970  0.29804  0.42825  1.0000
  S   S90       1.0  0.20758  0.37704  0.61585  1.0000
  H   H281      1.0  0.34827  0.29116  0.56447  1.0000
  C   C248      1.0  0.15101  0.40809  0.39098  1.0000
  C   C249      1.0  0.15039  0.42472  0.37732  1.0000
  H   H282      1.0  0.14972  0.43549  0.33252  1.0000
  C   C250      1.0  0.22194  0.42984  0.36913  1.0000
  C   C251      1.0  0.11757  0.42339  0.37565  1.0000
  C   C252      1.0  0.11835  0.40674  0.38933  1.0000
  C   C253      1.0  0.23769  0.31308  0.56149  1.0000
  H   H283      1.0  0.31427  0.28349  0.61091  1.0000
  H   H284      1.0  0.41245  0.26638  0.41598  1.0000
  H   H285      1.0  0.02791  0.45184  0.39957  1.0000
  C   C254      1.0  0.16205  0.26911  0.42597  1.0000
  H   H286      1.0  0.25119  0.31455  0.48608  1.0000
  C   C255      1.0  0.30988  0.29480  0.57296  1.0000
  H   H287      1.0  0.24538  0.45570  0.37336  1.0000
  H   H288      1.0  0.04536  0.47041  0.59663  1.0000
  S   S91       1.0  0.20506  0.33696  0.60302  1.0000
  C   C256      1.0  0.00495  0.32338  0.53287  1.0000
  C   C257      1.0  0.10890  0.35624  0.61740  1.0000
  C   C258      1.0  0.08365  0.42346  0.58524  1.0000
  H   H289      1.0  0.27711  0.33555  0.58034  1.0000
  N   N14       1.0  0.05953  0.44220  0.60765  1.0000
  C   C259      1.0  0.40326  0.23628  0.36203  1.0000
  N   N15       1.0  0.08968  0.37725  0.51058  1.0000
  C   C260      1.0  0.08793  0.39070  0.52362  1.0000
  C   C261      1.0  0.07066  0.37979  0.50481  1.0000
  C   C262      1.0  0.09384  0.35743  0.52099  1.0000
  C   C263      1.0  0.10555  0.38068  0.49448  1.0000
  C   C264      1.0  0.12473  0.37815  0.49766  1.0000
  C   C265      1.0  0.10259  0.38668  0.47542  1.0000
  C   C266      1.0  0.14001  0.38111  0.48272  1.0000
  C   C267      1.0  0.11797  0.38972  0.46060  1.0000
  C   C268      1.0  0.13662  0.38686  0.46422  1.0000
  H   H290      1.0  0.08552  0.40576  0.51612  1.0000
  H   H291      1.0  0.07555  0.38921  0.53546  1.0000
  H   H292      1.0  0.10094  0.38841  0.53018  1.0000
  H   H293      1.0  0.06582  0.39478  0.49809  1.0000
  H   H294      1.0  0.05928  0.37622  0.51713  1.0000
  H   H295      1.0  0.07096  0.37017  0.49487  1.0000
  H   H296      1.0  0.10685  0.35470  0.52761  1.0000
  H   H297      1.0  0.08182  0.35399  0.53266  1.0000
  H   H298      1.0  0.09600  0.34698  0.51139  1.0000
  H   H299      1.0  0.12813  0.37370  0.51175  1.0000
  H   H300      1.0  0.08860  0.38881  0.47150  1.0000
  H   H301      1.0  0.15460  0.37872  0.48550  1.0000
  H   H302      1.0  0.11550  0.39380  0.44613  1.0000
  H   H303      1.0  0.14850  0.38877  0.45259  1.0000
  H   H304      1.0  0.29077  0.30809  0.53209  1.0000
  C   C269      1.0  0.13610  0.34695  0.59359  1.0000
  C   C270      1.0  0.13530  0.46637  0.36350  1.0000
  H   H305      1.0  0.26383  0.26874  0.57050  1.0000
  C   C271      1.0  0.31684  0.26129  0.58603  1.0000
  C   C272      1.0  0.19466  0.42963  0.39473  1.0000
  C   C273      1.0  0.01206  0.29119  0.52691  1.0000
  H   H306      1.0  0.24267  0.26883  0.51523  1.0000
  H   H307      1.0  0.44267  0.25624  0.35723  1.0000
  H   H308      1.0  0.02455  0.42214  0.42528  1.0000
  N   N16       1.0  0.13348  0.45051  0.35470  1.0000
  N   N17       1.0  0.38870  0.26077  0.40537  1.0000
  S   S92       1.0  0.23143  0.28975  0.62557  1.0000
  H   H309      1.0  0.31608  0.25636  0.57295  1.0000
  H   H310      1.0  0.10411  0.42856  0.37051  1.0000
  H   H311      1.0  0.22665  0.47080  0.36219  1.0000
  C   C274      1.0  0.12145  0.36047  0.62749  1.0000
  H   H312      1.0  0.04251  0.44676  0.52037  1.0000
  H   H313      1.0  0.00150  0.42119  0.44070  1.0000
  C   C275      1.0  0.28548  0.32406  0.57320  1.0000
  N   N18       1.0  0.00177  0.44517  0.41759  1.0000
  C   C276      1.0  0.11700  0.30160  0.63090  1.0000
  H   H314      1.0  0.10591  0.39971  0.39404  1.0000
  C   C277      1.0  0.02983  0.43347  0.50371  1.0000
  H   H315      1.0  0.36064  0.25470  0.40504  1.0000
  C   C278      1.0  0.05663  0.44815  0.62631  1.0000
  H   H316      1.0  0.36429  0.25604  0.42771  1.0000
  H   H317      1.0  0.39287  0.26023  0.43383  1.0000
  Fe  Fe46      1.0  0.20016  0.47394  0.33512  1.0000
  H   H318      1.0  0.37205  0.28462  0.38988  1.0000
  H   H319      1.0  0.20165  0.27032  0.41226  1.0000
  H   H320      1.0  0.35343  0.23723  0.52338  1.0000
  H   H321      1.0  0.10439  0.40614  0.56728  1.0000
  H   H322      1.0  0.05786  0.45691  0.57893  1.0000
  C   C279      1.0  0.10768  0.40866  0.61194  1.0000
  Fe  Fe47      1.0  0.02286  0.46971  0.32110  1.0000
  N   N19       1.0  0.18360  0.29237  0.42672  1.0000
  C   C280      1.0  0.19976  0.27592  0.42559  1.0000
  C   C281      1.0  0.18822  0.30758  0.41036  1.0000
  C   C282      1.0  0.18291  0.29933  0.44440  1.0000
  C   C283      1.0  0.16463  0.28771  0.42670  1.0000
  S   S93       1.0  0.15666  0.36268  0.63412  1.0000
  C   C284      1.0  0.14790  0.30205  0.42768  1.0000
  H   H323      1.0  0.37640  0.23564  0.41745  1.0000
  H   H324      1.0  0.99773  0.33319  0.54294  1.0000
  C   C285      1.0  0.26220  0.26009  0.62588  1.0000
  H   H325      1.0  0.24954  0.47798  0.35832  1.0000
  H   H326      1.0  0.21375  0.27998  0.42586  1.0000
  H   H327      1.0  0.19761  0.26421  0.43791  1.0000
  H   H328      1.0  0.17817  0.32135  0.41140  1.0000
  H   H329      1.0  0.18754  0.30346  0.39683  1.0000
  H   H330      1.0  0.20289  0.31069  0.40928  1.0000
  H   H331      1.0  0.17879  0.28863  0.45710  1.0000
  H   H332      1.0  0.19713  0.30237  0.44521  1.0000
  H   H333      1.0  0.17241  0.31278  0.44558  1.0000
  H   H334      1.0  0.00742  0.29669  0.51296  1.0000
  H   H335      1.0  0.37892  0.23768  0.38382  1.0000
  C   C286      1.0  0.42132  0.24109  0.35451  1.0000
  C   C287      1.0  0.14376  0.26527  0.42638  1.0000
  H   H336      1.0  0.10669  0.31392  0.62601  1.0000
  H   H337      1.0  0.33281  0.29684  0.59784  1.0000
  C   C288      1.0  0.21742  0.47128  0.39931  1.0000
  N   N20       1.0  0.24168  0.29889  0.51373  1.0000
  C   C289      1.0  0.01128  0.43087  0.43198  1.0000
  C   C290      1.0  0.22100  0.30385  0.51195  1.0000
  C   C291      1.0  0.25412  0.28157  0.54403  1.0000
  H   H338      1.0  0.17722  0.28512  0.60514  1.0000
  C   C292      1.0  0.14132  0.35805  0.62064  1.0000
  C   C293      1.0  0.24915  0.47808  0.39531  1.0000
  C   C294      1.0  0.17841  0.29556  0.61368  1.0000
  C   C295      1.0  0.23571  0.31356  0.54289  1.0000
  H   H339      1.0  0.16310  0.43125  0.37331  1.0000
  H   H340      1.0  0.32649  0.24968  0.59378  1.0000
  C   C296      1.0  0.29147  0.25974  0.63737  1.0000
  H   H341      1.0  0.33835  0.27166  0.60622  1.0000
  H   H342      1.0  0.21432  0.31851  0.51456  1.0000
  H   H343      1.0  0.21251  0.29374  0.52208  1.0000
  H   H344      1.0  0.21892  0.30355  0.49743  1.0000
  H   H345      1.0  0.37296  0.28727  0.41339  1.0000
  S   S94       1.0  0.21056  0.46020  0.30952  1.0000
  H   H346      1.0  0.11605  0.46934  0.33530  1.0000
  H   H347      1.0  0.07126  0.46664  0.59141  1.0000
  H   H348      1.0  0.24752  0.28182  0.49182  1.0000
  Fe  Fe48      1.0  0.22354  0.32166  0.62449  1.0000
  H   H349      1.0  0.22785  0.32646  0.53583  1.0000
  H   H350      1.0  0.02836  0.29747  0.55328  1.0000
  H   H351      1.0  0.31379  0.28294  0.54728  1.0000
  C   C297      1.0  0.20331  0.43794  0.37676  1.0000
  H   H352      1.0  0.14182  0.34155  0.58053  1.0000
  H   H353      1.0  0.14205  0.25100  0.42585  1.0000
  H   H354      1.0  0.35404  0.26670  0.57587  1.0000
  H   H355      1.0  0.16397  0.40210  0.39697  1.0000
  C   C298      1.0  0.11558  0.45634  0.34644  1.0000
  C   C299      1.0  0.11623  0.34920  0.60055  1.0000
  C   C300      1.0  0.24378  0.29782  0.53356  1.0000
  H   H356      1.0  0.20478  0.47130  0.39298  1.0000
  H   H357      1.0  0.27247  0.33454  0.54844  1.0000
  C   C301      1.0  0.11266  0.40326  0.59424  1.0000
  Fe  Fe49      1.0  0.22501  0.35876  0.63716  1.0000
  H   H358      1.0  0.26094  0.26893  0.53817  1.0000
  H   H359      1.0  0.34240  0.27199  0.55613  1.0000
  H   H360      1.0  0.05577  0.43577  0.63810  1.0000
  C   C302      1.0  0.10069  0.41068  0.58090  1.0000
  C   C303      1.0  0.30637  0.29438  0.55478  1.0000
  H   H361      1.0  0.00383  0.40644  0.41587  1.0000
  N   N21       1.0  0.00245  0.30349  0.54114  1.0000
  Fe  Fe50      1.0  0.06992  0.35611  0.59302  1.0000
  S   S95       1.0  0.10109  0.34176  0.58878  1.0000
  H   H362      1.0  0.22872  0.43603  0.35524  1.0000
  C   C304      1.0  0.09068  0.42145  0.61645  1.0000
  S   S96       1.0  0.01063  0.34431  0.57281  1.0000
  H   H363      1.0  0.14875  0.31651  0.42814  1.0000
  H   H364      1.0  0.11320  0.44497  0.33967  1.0000
  H   H365      1.0  0.30225  0.26253  0.59491  1.0000
  Fe  Fe51      1.0  0.18883  0.35463  0.62473  1.0000
  H   H366      1.0  0.16411  0.44593  0.34329  1.0000
  Fe  Fe52      1.0  0.22534  0.35783  0.59575  1.0000
  N   N22       1.0  0.17033  0.28976  0.63393  1.0000
  C   C305      1.0  0.13504  0.39908  0.39693  1.0000
  C   C306      1.0  0.25594  0.28123  0.56269  1.0000
  C   C307      1.0  0.99480  0.40910  0.38983  1.0000
  H   H367      1.0  0.13565  0.38614  0.40746  1.0000
  H   H368      1.0  0.28620  0.23652  0.62657  1.0000
  C   C308      1.0  0.99688  0.43666  0.40303  1.0000
  C   C309      1.0  0.01510  0.45879  0.40857  1.0000
  H   H369      1.0  0.10270  0.45987  0.35730  1.0000
  H   H370      1.0  0.00737  0.30675  0.56815  1.0000
  H   H371      1.0  0.23587  0.40350  0.63604  1.0000
  H   H372      1.0  0.17389  0.25728  0.42512  1.0000
  H   H373      1.0  0.28745  0.23784  0.45612  1.0000
  H   H374      1.0  0.08765  0.42476  0.63053  1.0000
  H   H375      1.0  0.13498  0.48003  0.35322  1.0000
  H   H376      1.0  0.99732  0.39375  0.39070  1.0000
  H   H377      1.0  0.04374  0.41914  0.61853  1.0000
  H   H378      1.0  0.02913  0.44166  0.61135  1.0000
  C   C310      1.0  0.13609  0.30336  0.62994  1.0000
  H   H379      1.0  0.40863  0.24215  0.42209  1.0000
  H   H380      1.0  0.11714  0.30929  0.42930  1.0000
  C   C311      1.0  0.23878  0.47090  0.36921  1.0000
  H   H381      1.0  0.99885  0.32869  0.51969  1.0000
  H   H382      1.0  0.04287  0.45828  0.62909  1.0000
  H   H383      1.0  0.11346  0.27665  0.42804  1.0000
  H   H384      1.0  0.06843  0.45534  0.62727  1.0000
  C   C312      1.0  0.15006  0.28752  0.63578  1.0000
  H   H385      1.0  0.16432  0.31917  0.63812  1.0000
  C   C313      1.0  0.11118  0.28406  0.63786  1.0000
  N   N23       1.0  0.23237  0.48076  0.38572  1.0000
  H   H386      1.0  0.09636  0.28278  0.63849  1.0000
  C   C314      1.0  0.42280  0.44492  0.95122  1.0000
  H   H387      1.0  0.27127  0.40731  0.74745  1.0000
  S   S97       1.0  0.09161  0.46981  0.73735  1.0000
  H   H388      1.0  0.28663  0.39543  0.69000  1.0000
  Fe  Fe53      1.0  0.07474  0.46249  0.71834  1.0000
  S   S98       1.0  0.08678  0.46286  0.68764  1.0000
  C   C315      1.0  0.31210  0.41316  0.70355  1.0000
  H   H389      1.0  0.31890  0.40215  0.71436  1.0000
  N   N24       1.0  0.45914  0.38890  0.90705  1.0000
  Fe  Fe54      1.0  0.06787  0.44152  0.68978  1.0000
  S   S99       1.0  0.08121  0.41691  0.67463  1.0000
  H   H390      1.0  0.18821  0.37003  0.67044  1.0000
  S   S100      1.0  0.05813  0.43888  0.72134  1.0000
  H   H391      1.0  0.44543  0.39888  0.87346  1.0000
  H   H392      1.0  0.35221  0.39647  0.89276  1.0000
  H   H393      1.0  0.46267  0.30037  0.76177  1.0000
  H   H394      1.0  0.11573  0.36546  0.64075  1.0000
  H   H395      1.0  0.29007  0.44672  0.69102  1.0000
  H   H396      1.0  0.28354  0.42775  0.68334  1.0000
  S   S101      1.0  0.45783  0.26583  0.75241  1.0000
  H   H397      1.0  0.25261  0.36149  0.73327  1.0000
  S   S102      1.0  0.23219  0.36733  0.66242  1.0000
  H   H398      1.0  0.26745  0.43921  0.70118  1.0000
  H   H399      1.0  0.31364  0.40666  0.69083  1.0000
  C   C316      1.0  0.39907  0.30661  0.82108  1.0000
  C   C317      1.0  0.41819  0.33380  0.78811  1.0000
  H   H400      1.0  0.44675  0.42250  0.92257  1.0000
  C   C318      1.0  0.35639  0.40379  0.90269  1.0000
  N   N25       1.0  0.17389  0.44265  0.67919  1.0000
  C   C319      1.0  0.46993  0.26984  0.76934  1.0000
  H   H401      1.0  0.39563  0.42131  0.90499  1.0000
  S   S103      1.0  0.46942  0.32706  0.89428  1.0000
  Fe  Fe55      1.0  0.45903  0.34940  0.82849  1.0000
  S   S104      1.0  0.45885  0.32096  0.84757  1.0000
  S   S105      1.0  0.42998  0.36368  0.82090  1.0000
  C   C320      1.0  0.30752  0.44984  0.94229  1.0000
  H   H402      1.0  0.45954  0.41231  0.96751  1.0000
  H   H403      1.0  0.34748  0.47033  0.92937  1.0000
  C   C321      1.0  0.47776  0.38496  0.89412  1.0000
  C   C322      1.0  0.33592  0.46371  0.92807  1.0000
  H   H404      1.0  0.13448  0.44764  0.67670  1.0000
  Fe  Fe56      1.0  0.19926  0.44696  0.73753  1.0000
  C   C323      1.0  0.26140  0.38412  0.74206  1.0000
  S   S106      1.0  0.17702  0.42814  0.74234  1.0000
  Fe  Fe57      1.0  0.23787  0.45114  0.74622  1.0000
  C   C324      1.0  0.48895  0.33127  0.94045  1.0000
  S   S107      1.0  0.25649  0.43885  0.76878  1.0000
  Fe  Fe58      1.0  0.23190  0.45469  0.70535  1.0000
  S   S108      1.0  0.24144  0.44805  0.67559  1.0000
  C   C325      1.0  0.14413  0.43745  0.66880  1.0000
  S   S109      1.0  0.22949  0.43161  0.73076  1.0000
  Fe  Fe59      1.0  0.36808  0.46305  0.83262  1.0000
  S   S110      1.0  0.34498  0.44613  0.83451  1.0000
  S   S111      1.0  0.39970  0.44988  0.83112  1.0000
  H   H405      1.0  0.19590  0.46012  0.67333  1.0000
  Fe  Fe60      1.0  0.33073  0.46086  0.85919  1.0000
  C   C326      1.0  0.30087  0.46709  0.78397  1.0000
  C   C327      1.0  0.30637  0.44598  0.92476  1.0000
  C   C328      1.0  0.42219  0.33554  0.75430  1.0000
  H   H406      1.0  0.42827  0.45224  0.90925  1.0000
  C   C329      1.0  0.27328  0.45026  0.77437  1.0000
  C   C330      1.0  0.27990  0.44353  0.79165  1.0000
  C   C331      1.0  0.29353  0.45199  0.79652  1.0000
  Fe  Fe61      1.0  0.33067  0.47213  0.81633  1.0000
  C   C332      1.0  0.41930  0.34452  0.76983  1.0000
  H   H407      1.0  0.29797  0.42153  0.73831  1.0000
  H   H408      1.0  0.27447  0.43168  0.80135  1.0000
  H   H409      1.0  0.29855  0.44666  0.80985  1.0000
  H   H410      1.0  0.38378  0.37728  0.92297  1.0000
  C   C333      1.0  0.16040  0.45689  0.68964  1.0000
  C   C334      1.0  0.42191  0.38787  0.82295  1.0000
  C   C335      1.0  0.43445  0.39911  0.82510  1.0000
  C   C336      1.0  0.42757  0.41827  0.82697  1.0000
  C   C337      1.0  0.40803  0.42622  0.82717  1.0000
  C   C338      1.0  0.39552  0.41497  0.82492  1.0000
  C   C339      1.0  0.40246  0.39590  0.82272  1.0000
  H   H411      1.0  0.44952  0.39316  0.82499  1.0000
  H   H412      1.0  0.43746  0.42698  0.82820  1.0000
  H   H413      1.0  0.38053  0.42094  0.82479  1.0000
  H   H414      1.0  0.39269  0.38731  0.82098  1.0000
  C   C340      1.0  0.47608  0.29252  0.78649  1.0000
  H   H415      1.0  0.34506  0.46402  0.89805  1.0000
  H   H416      1.0  0.41800  0.35989  0.76777  1.0000
  H   H417      1.0  0.27555  0.47075  0.74851  1.0000
  H   H418      1.0  0.47493  0.30710  0.78819  1.0000
  Fe  Fe62      1.0  0.03376  0.46213  0.71316  1.0000
  S   S112      1.0  0.47646  0.35981  0.84480  1.0000
  C   C341      1.0  0.42378  0.31581  0.75702  1.0000
  H   H419      1.0  0.37115  0.41643  0.86663  1.0000
  H   H420      1.0  0.37973  0.40943  0.92382  1.0000
  C   C342      1.0  0.46347  0.38795  0.92615  1.0000
  H   H421      1.0  0.43273  0.29900  0.83527  1.0000
  H   H422      1.0  0.42657  0.42928  0.86090  1.0000
  H   H423      1.0  0.20047  0.37482  0.69751  1.0000
  H   H424      1.0  0.29497  0.43896  0.92370  1.0000
  H   H425      1.0  0.32069  0.42485  0.69920  1.0000
  H   H426      1.0  0.42725  0.32303  0.82393  1.0000
  H   H427      1.0  0.19467  0.41725  0.68648  1.0000
  H   H428      1.0  0.43315  0.37714  0.91634  1.0000
  H   H429      1.0  0.17783  0.38266  0.72637  1.0000
  C   C343      1.0  0.23399  0.39025  0.66534  1.0000
  C   C344      1.0  0.23419  0.39297  0.68360  1.0000
  C   C345      1.0  0.23615  0.41066  0.68682  1.0000
  C   C346      1.0  0.23832  0.42583  0.67178  1.0000
  C   C347      1.0  0.28043  0.46554  0.76190  1.0000
  H   H430      1.0  0.20029  0.44278  0.65863  1.0000
  H   H431      1.0  0.23299  0.38124  0.69535  1.0000
  H   H432      1.0  0.23651  0.41228  0.70093  1.0000
  H   H433      1.0  0.37073  0.43193  0.91083  1.0000
  H   H434      1.0  0.14329  0.38467  0.72863  1.0000
  C   C348      1.0  0.11569  0.45848  0.73700  1.0000
  H   H435      1.0  0.43947  0.27783  0.80358  1.0000
  C   C349      1.0  0.14818  0.45953  0.74057  1.0000
  C   C350      1.0  0.15360  0.44009  0.73995  1.0000
  C   C351      1.0  0.14018  0.42995  0.73738  1.0000
  C   C352      1.0  0.12131  0.43920  0.73559  1.0000
  S   S113      1.0  0.31770  0.44520  0.88720  1.0000
  H   H436      1.0  0.41450  0.27589  0.80579  1.0000
  H   H437      1.0  0.14435  0.41490  0.73705  1.0000
  H   H438      1.0  0.11084  0.43129  0.73406  1.0000
  H   H439      1.0  0.35514  0.39453  0.91684  1.0000
  C   C353      1.0  0.40229  0.38798  0.87591  1.0000
  C   C354      1.0  0.43201  0.30821  0.82116  1.0000
  C   C355      1.0  0.27001  0.37728  0.71039  1.0000
  H   H440      1.0  0.17299  0.42041  0.70369  1.0000
  H   H441      1.0  0.34527  0.41675  0.90431  1.0000
  C   C356      1.0  0.07066  0.39329  0.65607  1.0000
  H   H442      1.0  0.18207  0.46347  0.65480  1.0000
  H   H443      1.0  0.45201  0.44619  0.95237  1.0000
  C   C357      1.0  0.28109  0.40407  0.71763  1.0000
  C   C358      1.0  0.03763  0.39279  0.65425  1.0000
  C   C359      1.0  0.03119  0.40569  0.66683  1.0000
  C   C360      1.0  0.04450  0.41270  0.67371  1.0000
  C   C361      1.0  0.06427  0.40674  0.66806  1.0000
  S   S114      1.0  0.48443  0.33837  0.80766  1.0000
  Fe  Fe63      1.0  0.46410  0.23898  0.73944  1.0000
  H   H444      1.0  0.01592  0.41057  0.67097  1.0000
  H   H445      1.0  0.03945  0.42284  0.68323  1.0000
  C   C362      1.0  0.44274  0.42316  0.90913  1.0000
  C   C363      1.0  0.27152  0.39932  0.73659  1.0000
  S   S115      1.0  0.35434  0.47652  0.85820  1.0000
  C   C364      1.0  0.18861  0.45268  0.66590  1.0000
  C   C365      1.0  0.43110  0.42744  0.87440  1.0000
  H   H446      1.0  0.29694  0.44586  0.95458  1.0000
  C   C366      1.0  0.32224  0.45868  0.94409  1.0000
  H   H447      1.0  0.00652  0.43339  0.71322  1.0000
  H   H448      1.0  0.47962  0.24028  0.78011  1.0000
  N   N26       1.0  0.29169  0.42025  0.71116  1.0000
  H   H449      1.0  0.46351  0.32500  0.93406  1.0000
  S   S116      1.0  0.43242  0.23664  0.68579  1.0000
  H   H450      1.0  0.47239  0.39864  0.92615  1.0000
  S   S117      1.0  0.41630  0.46947  0.94376  1.0000
  C   C367      1.0  0.18357  0.42804  0.69317  1.0000
  N   N27       1.0  0.41911  0.30257  0.81088  1.0000
  C   C368      1.0  0.40508  0.35885  0.90733  1.0000
  H   H451      1.0  0.42444  0.28973  0.77615  1.0000
  S   S118      1.0  0.20133  0.46945  0.71160  1.0000
  C   C369      1.0  0.05737  0.38638  0.64914  1.0000
  H   H452      1.0  0.29967  0.44283  0.72116  1.0000
  C   C370      1.0  0.42030  0.31362  0.79137  1.0000
  H   H453      1.0  0.40107  0.24533  0.66567  1.0000
  S   S119      1.0  0.32242  0.46338  0.96662  1.0000
  H   H454      1.0  0.25388  0.38103  0.75651  1.0000
  C   C371      1.0  0.44805  0.37359  0.90851  1.0000
  Fe  Fe64      1.0  0.48558  0.31065  0.82792  1.0000
  H   H455      1.0  0.42415  0.36880  0.86080  1.0000
  C   C372      1.0  0.41644  0.35626  0.88991  1.0000
  S   S120      1.0  0.31463  0.24878  0.64223  1.0000
  H   H456      1.0  0.39444  0.32199  0.82208  1.0000
  C   C373      1.0  0.37499  0.42259  0.87765  1.0000
  C   C374      1.0  0.44799  0.40744  0.89942  1.0000
  H   H457      1.0  0.45470  0.35979  0.91618  1.0000
  H   H458      1.0  0.14917  0.45028  0.70026  1.0000
  H   H459      1.0  0.48315  0.33053  0.95531  1.0000
  H   H460      1.0  0.15320  0.46884  0.67992  1.0000
  H   H461      1.0  0.40204  0.39860  0.86320  1.0000
  N   N28       1.0  0.37592  0.40861  0.89557  1.0000
  C   C375      1.0  0.39018  0.39095  0.89339  1.0000
  C   C376      1.0  0.28291  0.43402  0.69601  1.0000
  H   H462      1.0  0.38882  0.42785  0.87185  1.0000
  H   H463      1.0  0.41805  0.45600  0.87838  1.0000
  H   H464      1.0  0.36371  0.43540  0.87970  1.0000
  H   H465      1.0  0.42467  0.27371  0.82634  1.0000
  C   C377      1.0  0.16436  0.43332  0.66863  1.0000
  C   C378      1.0  0.41330  0.41403  0.96301  1.0000
  C   C379      1.0  0.42625  0.44256  0.88426  1.0000
  S   S121      1.0  0.47559  0.24274  0.70821  1.0000
  H   H466      1.0  0.44733  0.37079  0.89445  1.0000
  H   H467      1.0  0.27654  0.43740  0.73201  1.0000
  H   H468      1.0  0.16792  0.46333  0.69775  1.0000
  Fe  Fe65      1.0  0.47805  0.33057  0.86255  1.0000
  C   C380      1.0  0.42466  0.28162  0.81160  1.0000
  H   H469      1.0  0.15405  0.37246  0.67150  1.0000
  C   C381      1.0  0.46907  0.28867  0.77154  1.0000
  C   C382      1.0  0.41516  0.37085  0.87430  1.0000
  C   C383      1.0  0.31964  0.45130  0.90864  1.0000
  H   H470      1.0  0.38883  0.30284  0.81369  1.0000
  H   H471      1.0  0.41569  0.34154  0.79965  1.0000
  S   S122      1.0  0.20717  0.46435  0.75553  1.0000
  C   C384      1.0  0.42272  0.30496  0.77524  1.0000
  C   C385      1.0  0.29147  0.43088  0.72635  1.0000
  H   H472      1.0  0.42651  0.34303  0.88856  1.0000
  H   H473      1.0  0.47179  0.37377  0.93148  1.0000
  C   C386      1.0  0.43203  0.44042  0.90159  1.0000
  C   C387      1.0  0.47887  0.25485  0.78165  1.0000
  H   H474      1.0  0.44695  0.30718  0.81308  1.0000
  C   C388      1.0  0.23825  0.42315  0.65341  1.0000
  H   H475      1.0  0.19116  0.43448  0.70122  1.0000
  C   C389      1.0  0.38074  0.41818  0.90938  1.0000
  H   H476      1.0  0.40633  0.34753  0.91952  1.0000
  H   H477      1.0  0.12211  0.38904  0.67238  1.0000
  H   H478      1.0  0.39739  0.29845  0.83581  1.0000
  C   C390      1.0  0.39223  0.37594  0.90914  1.0000
  C   C391      1.0  0.44128  0.43718  0.95518  1.0000
  N   N29       1.0  0.12389  0.38007  0.70200  1.0000
  C   C392      1.0  0.11745  0.36480  0.71743  1.0000
  C   C393      1.0  0.11338  0.39879  0.70664  1.0000
  C   C394      1.0  0.11815  0.37770  0.68451  1.0000
  C   C395      1.0  0.14490  0.37904  0.70027  1.0000
  C   C396      1.0  0.15836  0.37478  0.68389  1.0000
  C   C397      1.0  0.15255  0.38172  0.71559  1.0000
  C   C398      1.0  0.17814  0.37334  0.68304  1.0000
  C   C399      1.0  0.17235  0.38039  0.71452  1.0000
  C   C400      1.0  0.18511  0.37611  0.69829  1.0000
  H   H479      1.0  0.11963  0.36655  0.73144  1.0000
  H   H480      1.0  0.10180  0.36470  0.71878  1.0000
  H   H481      1.0  0.12550  0.35051  0.71481  1.0000
  H   H482      1.0  0.11555  0.40125  0.72036  1.0000
  H   H483      1.0  0.09753  0.40008  0.70780  1.0000
  H   H484      1.0  0.11792  0.41073  0.69552  1.0000
  H   H485      1.0  0.12478  0.36355  0.68053  1.0000
  H   H486      1.0  0.10226  0.37874  0.68621  1.0000
  C   C401      1.0  0.26063  0.37314  0.72900  1.0000
  H   H487      1.0  0.24007  0.43477  0.64162  1.0000
  C   C402      1.0  0.12916  0.46863  0.73941  1.0000
  C   C403      1.0  0.40899  0.43321  0.95467  1.0000
  C   C404      1.0  0.28001  0.39255  0.70471  1.0000
  C   C405      1.0  0.48613  0.25872  0.79650  1.0000
  S   S123      1.0  0.24342  0.47312  0.72001  1.0000
  H   H488      1.0  0.26918  0.36887  0.70017  1.0000
  C   C406      1.0  0.12445  0.26819  0.64389  1.0000
  S   S124      1.0  0.31840  0.47794  0.78907  1.0000
  H   H489      1.0  0.45004  0.39006  0.93676  1.0000
  S   S125      1.0  0.02100  0.38560  0.64418  1.0000
  H   H490      1.0  0.42629  0.30874  0.74491  1.0000
  S   S126      1.0  0.04238  0.46328  0.68174  1.0000
  S   S127      1.0  0.00322  0.46794  0.72868  1.0000
  C   C407      1.0  0.48500  0.32907  0.90896  1.0000
  H   H491      1.0  0.15845  0.46742  0.74261  1.0000
  C   C408      1.0  0.29425  0.47383  0.76666  1.0000
  Fe  Fe66      1.0  0.38790  0.47836  0.96178  1.0000
  C   C409      1.0  0.47787  0.32800  0.92836  1.0000
  H   H492      1.0  0.39480  0.43906  0.95129  1.0000
  H   H493      1.0  0.48625  0.39652  0.89217  1.0000
  C   C410      1.0  0.16680  0.41075  0.64740  1.0000
  H   H494      1.0  0.42324  0.34385  0.74013  1.0000
  C   C411      1.0  0.33449  0.46020  0.91029  1.0000
  H   H495      1.0  0.16425  0.30164  0.65940  1.0000
  C   C412      1.0  0.44186  0.41013  0.88176  1.0000
  S   S128      1.0  0.20527  0.33722  0.64706  1.0000
  C   C413      1.0  0.23581  0.40548  0.65022  1.0000
  C   C414      1.0  0.17132  0.30474  0.64435  1.0000
  H   H496      1.0  0.08592  0.38853  0.65176  1.0000
  H   H497      1.0  0.19082  0.41556  0.65696  1.0000
  H   H498      1.0  0.17783  0.26702  0.65670  1.0000
  C   C415      1.0  0.17540  0.41961  0.65766  1.0000
  C   C416      1.0  0.47641  0.46143  0.97194  1.0000
  C   C417      1.0  0.14365  0.26977  0.64286  1.0000
  H   H499      1.0  0.40237  0.40516  0.96618  1.0000
  H   H500      1.0  0.48769  0.46741  0.96165  1.0000
  C   C418      1.0  0.48436  0.27754  0.79922  1.0000
  H   H501      1.0  0.11983  0.25454  0.64928  1.0000
  H   H502      1.0  0.18651  0.30589  0.64412  1.0000
  C   C419      1.0  0.43140  0.40652  0.96801  1.0000
  C   C420      1.0  0.44554  0.41799  0.96373  1.0000
  C   C421      1.0  0.28394  0.27814  0.64132  1.0000
  H   H503      1.0  0.47585  0.38359  0.87989  1.0000
  C   C422      1.0  0.13569  0.42843  0.65850  1.0000
  H   H504      1.0  0.12023  0.43179  0.65882  1.0000
  H   H505      1.0  0.29222  0.28514  0.64749  1.0000
  C   C423      1.0  0.14702  0.41514  0.64782  1.0000
  H   H506      1.0  0.48675  0.37134  0.89971  1.0000
  H   H507      1.0  0.15315  0.25687  0.64763  1.0000
  C   C424      1.0  0.99157  0.43814  0.71890  1.0000
  H   H508      1.0  0.26010  0.30174  0.64056  1.0000
  H   H509      1.0  0.06242  0.37602  0.63986  1.0000
  H   H510      1.0  0.14050  0.40810  0.63988  1.0000
  H   H511      1.0  0.19797  0.27424  0.64017  1.0000
  C   C425      1.0  0.18294  0.27203  0.64141  1.0000
  H   H512      1.0  0.17551  0.40027  0.63918  1.0000
  Fe  Fe67      1.0  0.37165  0.60522  0.02704  1.0000
  S   S129      1.0  0.34820  0.62662  0.01478  1.0000
  S   S130      1.0  0.37163  0.57371  0.03426  1.0000
  Fe  Fe68      1.0  0.39427  0.63536  0.02834  1.0000
  S   S131      1.0  0.37293  0.65920  0.01584  1.0000
  S   S132      1.0  0.42117  0.63925  0.03677  1.0000
  Fe  Fe69      1.0  0.35095  0.64360  0.03594  1.0000
  S   S133      1.0  0.32485  0.65882  0.05303  1.0000
  Fe  Fe70      1.0  0.37255  0.63988  0.99595  1.0000
  C   C426      1.0  0.38230  0.61021  0.11268  1.0000
  S   S134      1.0  0.37230  0.62112  0.04973  1.0000
  S   S135      1.0  0.39584  0.61717  0.00692  1.0000
  C   C427      1.0  0.33189  0.57905  0.21005  1.0000
  H   H513      1.0  0.39031  0.64419  0.06905  1.0000
  Fe  Fe71      1.0  0.22702  0.48436  0.29746  1.0000
  H   H514      1.0  0.35387  0.72660  0.09589  1.0000
  C   C428      1.0  0.43966  0.68672  0.04009  1.0000
  H   H515      1.0  0.44357  0.71080  0.07642  1.0000
  C   C429      1.0  0.08000  0.59942  0.28084  1.0000
  C   C430      1.0  0.09939  0.56826  0.27961  1.0000
  S   S136      1.0  0.30824  0.65992  0.14103  1.0000
  C   C431      1.0  0.42678  0.68438  0.18093  1.0000
  C   C432      1.0  0.27728  0.66157  0.27008  1.0000
  C   C433      1.0  0.32668  0.57958  0.22929  1.0000
  Fe  Fe72      1.0  0.33098  0.65372  0.15919  1.0000
  S   S137      1.0  0.36257  0.64708  0.14816  1.0000
  H   H516      1.0  0.31244  0.56655  0.25614  1.0000
  C   C434      1.0  0.38093  0.70051  0.22135  1.0000
  S   S138      1.0  0.36850  0.64470  0.19176  1.0000
  Fe  Fe73      1.0  0.36264  0.62508  0.17475  1.0000
  S   S139      1.0  0.37819  0.59470  0.17660  1.0000
  S   S140      1.0  0.33074  0.63031  0.18459  1.0000
  S   S141      1.0  0.23928  0.67909  0.26962  1.0000
  N   N30       1.0  0.36639  0.68804  0.22462  1.0000
  H   H517      1.0  0.40659  0.66741  0.17849  1.0000
  C   C435      1.0  0.34590  0.69305  0.11765  1.0000
  N   N31       1.0  0.31023  0.53667  0.20662  1.0000
  H   H518      1.0  0.22242  0.60912  0.28590  1.0000
  H   H519      1.0  0.03235  0.54616  0.28112  1.0000
  C   C436      1.0  0.43252  0.70228  0.17604  1.0000
  H   H520      1.0  0.35100  0.70465  0.20240  1.0000
  H   H521      1.0  0.42252  0.72005  0.99613  1.0000
  S   S142      1.0  0.34037  0.49401  0.99521  1.0000
  C   C437      1.0  0.35651  0.55241  0.98607  1.0000
  C   C438      1.0  0.38935  0.65275  0.07969  1.0000
  H   H522      1.0  0.28446  0.52703  0.20497  1.0000
  C   C439      1.0  0.42535  0.68540  0.98988  1.0000
  H   H523      1.0  0.30842  0.58933  0.10996  1.0000
  C   C440      1.0  0.31066  0.55260  0.23363  1.0000
  H   H524      1.0  0.37411  0.71325  0.10586  1.0000
  H   H525      1.0  0.39783  0.72576  0.15024  1.0000
  Fe  Fe74      1.0  0.34585  0.51181  0.14849  1.0000
  S   S143      1.0  0.31815  0.50291  0.14878  1.0000
  S   S144      1.0  0.34473  0.54325  0.13690  1.0000
  H   H526      1.0  0.33933  0.68414  0.24294  1.0000
  H   H527      1.0  0.37935  0.66468  0.24408  1.0000
  H   H528      1.0  0.25857  0.68462  0.23098  1.0000
  Fe  Fe75      1.0  0.45397  0.73093  0.02857  1.0000
  H   H529      1.0  0.22239  0.62874  0.26675  1.0000
  C   C441      1.0  0.10376  0.49429  0.28869  1.0000
  C   C442      1.0  0.35671  0.57182  0.98457  1.0000
  H   H530      1.0  0.37465  0.71589  0.08087  1.0000
  S   S145      1.0  0.34869  0.49485  0.17737  1.0000
  C   C443      1.0  0.35859  0.69001  0.20707  1.0000
  C   C444      1.0  0.38717  0.67475  0.10694  1.0000
  C   C445      1.0  0.42188  0.71725  0.16512  1.0000
  C   C446      1.0  0.11836  0.50530  0.28238  1.0000
  H   H531      1.0  0.41319  0.65596  0.11357  1.0000
  H   H532      1.0  0.33319  0.70456  0.11990  1.0000
  H   H533      1.0  0.40546  0.67860  0.22914  1.0000
  H   H534      1.0  0.25090  0.58707  0.29167  1.0000
  H   H535      1.0  0.44116  0.67562  0.12138  1.0000
  C   C447      1.0  0.47807  0.69536  0.09117  1.0000
  H   H536      1.0  0.44385  0.68591  0.08670  1.0000
  C   C448      1.0  0.31612  0.56634  0.24109  1.0000
  H   H537      1.0  0.39133  0.67276  0.03835  1.0000
  C   C449      1.0  0.40584  0.71417  0.15888  1.0000
  H   H538      1.0  0.34788  0.68052  0.20902  1.0000
  S   S146      1.0  0.38108  0.69250  0.15416  1.0000
  H   H539      1.0  0.28403  0.53337  0.22700  1.0000
  H   H540      1.0  0.40968  0.68506  0.99449  1.0000
  C   C450      1.0  0.47086  0.70516  0.12176  1.0000
  C   C451      1.0  0.40556  0.69549  0.03917  1.0000
  Fe  Fe76      1.0  0.36527  0.66747  0.16616  1.0000
  S   S147      1.0  0.47736  0.71361  0.01056  1.0000
  C   C452      1.0  0.40484  0.67658  0.03867  1.0000
  H   H541      1.0  0.33150  0.53654  0.18105  1.0000
  C   C453      1.0  0.46398  0.70166  0.10631  1.0000
  H   H542      1.0  0.46109  0.70963  0.13401  1.0000
  H   H543      1.0  0.45315  0.69056  0.04066  1.0000
  C   C454      1.0  0.36820  0.58033  0.16626  1.0000
  C   C455      1.0  0.37429  0.56050  0.16940  1.0000
  C   C456      1.0  0.36696  0.54890  0.16069  1.0000
  C   C457      1.0  0.35377  0.55718  0.14855  1.0000
  C   C458      1.0  0.34767  0.57698  0.14543  1.0000
  C   C459      1.0  0.35464  0.58852  0.15448  1.0000
  H   H544      1.0  0.38479  0.55412  0.17850  1.0000
  H   H545      1.0  0.37180  0.53362  0.16310  1.0000
  H   H546      1.0  0.33751  0.58347  0.13600  1.0000
  H   H547      1.0  0.34994  0.60381  0.15190  1.0000
  C   C460      1.0  0.26355  0.67197  0.25921  1.0000
  H   H548      1.0  0.43266  0.67172  0.98518  1.0000
  H   H549      1.0  0.27330  0.65828  0.28530  1.0000
  H   H550      1.0  0.28117  0.55175  0.20654  1.0000
  C   C461      1.0  0.06415  0.57142  0.28794  1.0000
  H   H551      1.0  0.30285  0.54235  0.24338  1.0000
  S   S148      1.0  0.29218  0.48869  0.19562  1.0000
  H   H552      1.0  0.37513  0.62494  0.11112  1.0000
  Fe  Fe77      1.0  0.33622  0.65162  0.19981  1.0000
  H   H553      1.0  0.34816  0.63960  0.08260  1.0000
  C   C462      1.0  0.37418  0.66809  0.08179  1.0000
  H   H554      1.0  0.08459  0.54483  0.28575  1.0000
  C   C463      1.0  0.37417  0.66750  0.23037  1.0000
  C   C464      1.0  0.33110  0.64782  0.10860  1.0000
  C   C465      1.0  0.32006  0.51781  0.21524  1.0000
  H   H555      1.0  0.11086  0.59426  0.27368  1.0000
  H   H556      1.0  0.34168  0.64042  0.11728  1.0000
  H   H557      1.0  0.31725  0.50609  0.20930  1.0000
  C   C466      1.0  0.40017  0.69349  0.22442  1.0000
  C   C467      1.0  0.40236  0.65947  0.10460  1.0000
  C   C468      1.0  0.36618  0.56563  0.01545  1.0000
  C   C469      1.0  0.36608  0.54623  0.01686  1.0000
  C   C470      1.0  0.36111  0.53966  0.00229  1.0000
  H   H558      1.0  0.43693  0.69274  0.13650  1.0000
  H   H559      1.0  0.43089  0.68570  0.00278  1.0000
  C   C471      1.0  0.36162  0.57841  0.99921  1.0000
  H   H560      1.0  0.37009  0.53617  0.02906  1.0000
  H   H561      1.0  0.36081  0.52469  0.00369  1.0000
  N   N32       1.0  0.42899  0.70213  0.97490  1.0000
  H   H562      1.0  0.36199  0.59335  0.99779  1.0000
  C   C472      1.0  0.32097  0.65717  0.07779  1.0000
  C   C473      1.0  0.30355  0.66695  0.08628  1.0000
  C   C474      1.0  0.29986  0.66721  0.10568  1.0000
  C   C475      1.0  0.31363  0.65792  0.11690  1.0000
  H   H563      1.0  0.29284  0.67453  0.07775  1.0000
  H   H564      1.0  0.28632  0.67494  0.11197  1.0000
  H   H565      1.0  0.45180  0.65701  0.04003  1.0000
  H   H566      1.0  0.07903  0.61470  0.27957  1.0000
  C   C476      1.0  0.28909  0.53732  0.21156  1.0000
  H   H567      1.0  0.37029  0.68632  0.19523  1.0000
  C   C477      1.0  0.42305  0.70064  0.03946  1.0000
  H   H568      1.0  0.36392  0.67060  0.07238  1.0000
  S   S149      1.0  0.20310  0.50338  0.28359  1.0000
  H   H569      1.0  0.32733  0.59837  0.04990  1.0000
  H   H570      1.0  0.37161  0.60503  0.08998  1.0000
  C   C478      1.0  0.31562  0.53833  0.18574  1.0000
  C   C479      1.0  0.33471  0.64730  0.08902  1.0000
  C   C480      1.0  0.34312  0.69951  0.08489  1.0000
  H   H571      1.0  0.45530  0.70153  0.98475  1.0000
  H   H572      1.0  0.38612  0.66223  0.21936  1.0000
  H   H573      1.0  0.31518  0.51443  0.23077  1.0000
  H   H574      1.0  0.34041  0.67939  0.12087  1.0000
  N   N33       1.0  0.04678  0.56239  0.29324  1.0000
  H   H575      1.0  0.33120  0.56584  0.18741  1.0000
  H   H576      1.0  0.38676  0.68269  0.11786  1.0000
  H   H577      1.0  0.43496  0.67274  0.18939  1.0000
  H   H578      1.0  0.31091  0.52708  0.18057  1.0000
  H   H579      1.0  0.35556  0.69294  0.25309  1.0000
  H   H580      1.0  0.34053  0.58907  0.20098  1.0000
  N   N34       1.0  0.25031  0.61084  0.26840  1.0000
  C   C481      1.0  0.25733  0.59067  0.27644  1.0000
  C   C482      1.0  0.25541  0.62299  0.27969  1.0000
  C   C483      1.0  0.22902  0.61356  0.27085  1.0000
  C   C484      1.0  0.25855  0.61645  0.24819  1.0000
  C   C485      1.0  0.27204  0.60369  0.23756  1.0000
  C   C486      1.0  0.25343  0.63539  0.23865  1.0000
  C   C487      1.0  0.28012  0.60978  0.21870  1.0000
  C   C488      1.0  0.26149  0.64126  0.21978  1.0000
  C   C489      1.0  0.27493  0.62855  0.20987  1.0000
  H   H581      1.0  0.27320  0.58784  0.27579  1.0000
  S   S150      1.0  0.47186  0.73087  0.04996  1.0000
  H   H582      1.0  0.25330  0.58063  0.26914  1.0000
  H   H583      1.0  0.27122  0.62279  0.27692  1.0000
  C   C490      1.0  0.41357  0.70567  0.22091  1.0000
  H   H584      1.0  0.41812  0.72669  0.10852  1.0000
  H   H585      1.0  0.39266  0.70621  0.03885  1.0000
  H   H586      1.0  0.27676  0.58902  0.24352  1.0000
  H   H587      1.0  0.24344  0.64598  0.24585  1.0000
  H   H588      1.0  0.13959  0.62979  0.29978  1.0000
  H   H589      1.0  0.25761  0.65592  0.21293  1.0000
  H   H590      1.0  0.28143  0.63332  0.19534  1.0000
  H   H591      1.0  0.41541  0.63686  0.08880  1.0000
  H   H592      1.0  0.11341  0.55927  0.27716  1.0000
  C   C491      1.0  0.35027  0.69367  0.23975  1.0000
  C   C492      1.0  0.26907  0.67644  0.23948  1.0000
  C   C493      1.0  0.42153  0.66271  0.03873  1.0000
  H   H593      1.0  0.34247  0.70839  0.23576  1.0000
  H   H594      1.0  0.41871  0.69222  0.12375  1.0000
  C   C494      1.0  0.30166  0.65954  0.24151  1.0000
  H   H595      1.0  0.33596  0.51708  0.21258  1.0000
  S   S151      1.0  0.36332  0.48902  0.13273  1.0000
  S   S152      1.0  0.45314  0.70513  0.18377  1.0000
  H   H596      1.0  0.04457  0.56353  0.26430  1.0000
  N   N35       1.0  0.35695  0.69615  0.09811  1.0000
  Fe  Fe78      1.0  0.22668  0.66723  0.29987  1.0000
  H   H597      1.0  0.33106  0.59017  0.23504  1.0000
  C   C495      1.0  0.28800  0.67010  0.23062  1.0000
  C   C496      1.0  0.40023  0.69620  0.16366  1.0000
  C   C497      1.0  0.13774  0.49681  0.28252  1.0000
  H   H598      1.0  0.02573  0.58689  0.28451  1.0000
  S   S153      1.0  0.33333  0.67580  0.17532  1.0000
  H   H599      1.0  0.30679  0.64747  0.26982  1.0000
  C   C498      1.0  0.37266  0.67964  0.09552  1.0000
  H   H600      1.0  0.34131  0.63615  0.97342  1.0000
  C   C499      1.0  0.32645  0.56545  0.20241  1.0000
  H   H601      1.0  0.04981  0.60126  0.28772  1.0000
  C   C500      1.0  0.28371  0.48637  0.22033  1.0000
  C   C501      1.0  0.43887  0.66773  0.03984  1.0000
  C   C502      1.0  0.43457  0.69063  0.12271  1.0000
  H   H602      1.0  0.42222  0.70294  0.08977  1.0000
  H   H603      1.0  0.30889  0.55228  0.17823  1.0000
  S   S154      1.0  0.20545  0.64760  0.30344  1.0000
  S   S155      1.0  0.07967  0.50530  0.28782  1.0000
  C   C503      1.0  0.41064  0.68135  0.17487  1.0000
  C   C504      1.0  0.29626  0.65546  0.26127  1.0000
  C   C505      1.0  0.06325  0.59142  0.28571  1.0000
  H   H604      1.0  0.25096  0.61830  0.29514  1.0000
  H   H605      1.0  0.33571  0.68713  0.08697  1.0000
  C   C506      1.0  0.25656  0.49163  0.24611  1.0000
  H   H606      1.0  0.39490  0.61196  0.13611  1.0000
  H   H607      1.0  0.22452  0.60511  0.26217  1.0000
  H   H608      1.0  0.43492  0.72712  0.12283  1.0000
  H   H609      1.0  0.01585  0.56861  0.30174  1.0000
  Fe  Fe79      1.0  0.32173  0.48427  0.17673  1.0000
  C   C507      1.0  0.04532  0.55306  0.27769  1.0000
  N   N36       1.0  0.38677  0.56678  0.08995  1.0000
  C   C508      1.0  0.39156  0.54604  0.09744  1.0000
  C   C509      1.0  0.36679  0.57052  0.08612  1.0000
  C   C510      1.0  0.40001  0.57118  0.07185  1.0000
  C   C511      1.0  0.38869  0.57889  0.10302  1.0000
  C   C512      1.0  0.40013  0.57200  0.11743  1.0000
  C   C513      1.0  0.38012  0.59850  0.10082  1.0000
  C   C514      1.0  0.40244  0.58394  0.12901  1.0000
  C   C515      1.0  0.39352  0.60297  0.12667  1.0000
  H   H610      1.0  0.38297  0.54227  0.11180  1.0000
  H   H611      1.0  0.38853  0.53720  0.08819  1.0000
  H   H612      1.0  0.40712  0.54137  0.09816  1.0000
  H   H613      1.0  0.35616  0.56932  0.09956  1.0000
  H   H614      1.0  0.36476  0.56043  0.07761  1.0000
  H   H615      1.0  0.36292  0.58472  0.07739  1.0000
  H   H616      1.0  0.39898  0.56260  0.06136  1.0000
  H   H617      1.0  0.39670  0.58641  0.06516  1.0000
  H   H618      1.0  0.41524  0.56835  0.07394  1.0000
  H   H619      1.0  0.40727  0.55738  0.12024  1.0000
  H   H620      1.0  0.24820  0.63806  0.27656  1.0000
  H   H621      1.0  0.41068  0.57829  0.14035  1.0000
  H   H622      1.0  0.31544  0.61126  0.07956  1.0000
  H   H623      1.0  0.29202  0.67347  0.21541  1.0000
  S   S156      1.0  0.32575  0.65166  0.23121  1.0000
  C   C516      1.0  0.36528  0.71370  0.09505  1.0000
  H   H624      1.0  0.36300  0.65846  0.23240  1.0000
  N   N37       1.0  0.32738  0.53508  0.08157  1.0000
  C   C517      1.0  0.30861  0.52859  0.08553  1.0000
  C   C518      1.0  0.33853  0.52904  0.06373  1.0000
  C   C519      1.0  0.33830  0.52504  0.09691  1.0000
  C   C520      1.0  0.32397  0.55600  0.08074  1.0000
  C   C521      1.0  0.32731  0.56909  0.06350  1.0000
  C   C522      1.0  0.31664  0.56395  0.09743  1.0000
  C   C523      1.0  0.32434  0.58873  0.06322  1.0000
  C   C524      1.0  0.31375  0.58363  0.09699  1.0000
  C   C525      1.0  0.31768  0.59599  0.07992  1.0000
  H   H625      1.0  0.29994  0.53169  0.09931  1.0000
  H   H626      1.0  0.29991  0.53570  0.07433  1.0000
  H   H627      1.0  0.31053  0.51288  0.08626  1.0000
  H   H628      1.0  0.33043  0.53423  0.05178  1.0000
  H   H629      1.0  0.34186  0.51323  0.06501  1.0000
  H   H630      1.0  0.35250  0.53422  0.05971  1.0000
  H   H631      1.0  0.34255  0.50949  0.09675  1.0000
  H   H632      1.0  0.35162  0.53084  0.09573  1.0000
  H   H633      1.0  0.32974  0.52603  0.11121  1.0000
  H   H634      1.0  0.33246  0.56457  0.04998  1.0000
  H   H635      1.0  0.31317  0.55502  0.11102  1.0000
  C   C526      1.0  0.26426  0.49355  0.22667  1.0000
  H   H636      1.0  0.35466  0.69253  0.12853  1.0000
  H   H637      1.0  0.35035  0.70237  0.06986  1.0000
  C   C527      1.0  0.31562  0.55176  0.21403  1.0000
  H   H638      1.0  0.05787  0.54159  0.27480  1.0000
  C   C528      1.0  0.08276  0.56011  0.28462  1.0000
  C   C529      1.0  0.40355  0.64861  0.09084  1.0000
  H   H639      1.0  0.40270  0.72015  0.98488  1.0000
  C   C530      1.0  0.43378  0.72395  0.10902  1.0000
  N   N38       1.0  0.44301  0.70418  0.10661  1.0000
  C   C531      1.0  0.09799  0.58789  0.27766  1.0000
  H   H640      1.0  0.29064  0.59999  0.21089  1.0000
  H   H641      1.0  0.24165  0.49746  0.25077  1.0000
  S   S157      1.0  0.38634  0.49735  0.98231  1.0000
  H   H642      1.0  0.47438  0.69223  0.07883  1.0000
  C   C532      1.0  0.43807  0.70077  0.08913  1.0000
  C   C533      1.0  0.41856  0.71954  0.98240  1.0000
  S   S158      1.0  0.42397  0.72463  0.03830  1.0000
  C   C534      1.0  0.02852  0.57599  0.29722  1.0000
  H   H643      1.0  0.33148  0.71198  0.08715  1.0000
  H   H644      1.0  0.11471  0.52043  0.27726  1.0000
  H   H645      1.0  0.25505  0.50054  0.21646  1.0000
  H   H646      1.0  0.14893  0.50538  0.27748  1.0000
  C   C535      1.0  0.26813  0.48207  0.25943  1.0000
  H   H647      1.0  0.42836  0.69997  0.22272  1.0000
  Fe  Fe80      1.0  0.35852  0.51212  0.97312  1.0000
  C   C536      1.0  0.49057  0.70278  0.12187  1.0000
  C   C537      1.0  0.37599  0.72042  0.21486  1.0000
  H   H648      1.0  0.36163  0.72683  0.21234  1.0000
  C   C538      1.0  0.40837  0.72503  0.21413  1.0000
  H   H649      1.0  0.42610  0.73113  0.16140  1.0000
  S   S159      1.0  0.20205  0.64464  0.34924  1.0000
  H   H650      1.0  0.07316  0.53441  0.34182  1.0000
  C   C539      1.0  0.21429  0.55300  0.31815  1.0000
  H   H651      1.0  0.05697  0.70468  0.41274  1.0000
  C   C540      1.0  0.23767  0.71587  0.39082  1.0000
  C   C541      1.0  0.14712  0.64870  0.31480  1.0000
  C   C542      1.0  0.14889  0.70173  0.48946  1.0000
  S   S160      1.0  0.04976  0.61524  0.32361  1.0000
  S   S161      1.0  0.06474  0.62702  0.35854  1.0000
  H   H652      1.0  0.13989  0.54576  0.31745  1.0000
  C   C543      1.0  0.13253  0.56852  0.34778  1.0000
  S   S162      1.0  0.04436  0.66019  0.32728  1.0000
  H   H653      1.0  0.05731  0.71112  0.50972  1.0000
  C   C544      1.0  0.21142  0.71095  0.47320  1.0000
  C   C545      1.0  0.10102  0.52431  0.32652  1.0000
  H   H654      1.0  0.99854  0.57264  0.33805  1.0000
  C   C546      1.0  0.10756  0.65669  0.32895  1.0000
  H   H655      1.0  0.20879  0.68437  0.44161  1.0000
  S   S163      1.0  0.01850  0.63133  0.35850  1.0000
  H   H656      1.0  0.01446  0.67253  0.62472  1.0000
  H   H657      1.0  0.06888  0.66270  0.36524  1.0000
  H   H658      1.0  0.13750  0.70477  0.40039  1.0000
  C   C547      1.0  0.04409  0.69010  0.39757  1.0000
  C   C548      1.0  0.05964  0.69548  0.40242  1.0000
  H   H659      1.0  0.13724  0.58092  0.35089  1.0000
  C   C549      1.0  0.03696  0.54644  0.36884  1.0000
  S   S164      1.0  0.05235  0.50014  0.33670  1.0000
  H   H660      1.0  0.20323  0.55420  0.35989  1.0000
  H   H661      1.0  0.03532  0.54070  0.31494  1.0000
  H   H662      1.0  0.20001  0.71128  0.62142  1.0000
  C   C550      1.0  0.22436  0.50103  0.37920  1.0000
  H   H663      1.0  0.07928  0.65490  0.60294  1.0000
  H   H664      1.0  0.10684  0.60127  0.34569  1.0000
  H   H665      1.0  0.04944  0.55417  0.32257  1.0000
  C   C551      1.0  0.08840  0.64849  0.62999  1.0000
  H   H666      1.0  0.10295  0.70701  0.52296  1.0000
  S   S165      1.0  0.12426  0.69497  0.60593  1.0000
  H   H667      1.0  0.02955  0.69510  0.40425  1.0000
  C   C552      1.0  0.12509  0.54404  0.32261  1.0000
  H   H668      1.0  0.09942  0.67987  0.58951  1.0000
  H   H669      1.0  0.12425  0.70526  0.36087  1.0000
  C   C553      1.0  0.19181  0.71769  0.47879  1.0000
  Fe  Fe81      1.0  0.10134  0.72022  0.59995  1.0000
  H   H670      1.0  0.23276  0.69426  0.45529  1.0000
  H   H671      1.0  0.15956  0.66755  0.62532  1.0000
  Fe  Fe82      1.0  0.22117  0.63010  0.32633  1.0000
  H   H672      1.0  0.21971  0.68482  0.60627  1.0000
  C   C554      1.0  0.01032  0.68017  0.63696  1.0000
  H   H673      1.0  0.18820  0.72700  0.48909  1.0000
  H   H674      1.0  0.12560  0.72576  0.63766  1.0000
  H   H675      1.0  0.12670  0.56002  0.36148  1.0000
  S   S166      1.0  0.17455  0.49253  0.32403  1.0000
  H   H676      1.0  0.09231  0.65991  0.33440  1.0000
  C   C555      1.0  0.23512  0.69801  0.38842  1.0000
  C   C556      1.0  0.15336  0.72364  0.40623  1.0000
  C   C557      1.0  0.20897  0.53952  0.36538  1.0000
  C   C558      1.0  0.20025  0.52484  0.36370  1.0000
  C   C559      1.0  0.20775  0.50589  0.37054  1.0000
  C   C560      1.0  0.08837  0.65808  0.61137  1.0000
  C   C561      1.0  0.11977  0.52765  0.31987  1.0000
  S   S167      1.0  0.07936  0.72471  0.58137  1.0000
  C   C562      1.0  0.10191  0.58830  0.34416  1.0000
  C   C563      1.0  0.19806  0.59077  0.32213  1.0000
  N   N39       1.0  0.19208  0.68378  0.62458  1.0000
  H   H677      1.0  0.01543  0.70246  0.34496  1.0000
  C   C564      1.0  0.15139  0.70609  0.40274  1.0000
  N   N40       1.0  0.15667  0.71841  0.47749  1.0000
  C   C565      1.0  0.18666  0.71151  0.40840  1.0000
  C   C566      1.0  0.20397  0.69364  0.45203  1.0000
  S   S168      1.0  0.21868  0.49657  0.32446  1.0000
  H   H678      1.0  0.05198  0.72527  0.53771  1.0000
  C   C567      1.0  0.17715  0.72215  0.35373  1.0000
  C   C568      1.0  0.21736  0.58388  0.32372  1.0000
  C   C569      1.0  0.00916  0.56534  0.34673  1.0000
  H   H679      1.0  0.12906  0.71474  0.33583  1.0000
  C   C570      1.0  0.04740  0.67807  0.38431  1.0000
  H   H680      1.0  0.15646  0.69582  0.50171  1.0000
  C   C571      1.0  0.22535  0.53530  0.37368  1.0000
  C   C572      1.0  0.12041  0.66600  0.33390  1.0000
  Fe  Fe83      1.0  0.22278  0.66515  0.34251  1.0000
  S   S169      1.0  0.09794  0.69501  0.40059  1.0000
  C   C573      1.0  0.07851  0.68863  0.39421  1.0000
  S   S170      1.0  0.23182  0.59832  0.32838  1.0000
  Fe  Fe84      1.0  0.03884  0.65037  0.35863  1.0000
  C   C574      1.0  0.22545  0.56502  0.32164  1.0000
  H   H681      1.0  0.14577  0.71363  0.45382  1.0000
  C   C575      1.0  0.14022  0.66199  0.32691  1.0000
  C   C576      1.0  0.23262  0.69521  0.37085  1.0000
  H   H682      1.0  0.22064  0.53847  0.31667  1.0000
  H   H683      1.0  0.24038  0.55961  0.32288  1.0000
  S   S171      1.0  0.24440  0.70888  0.61857  1.0000
  H   H684      1.0  0.17797  0.70805  0.63757  1.0000
  Fe  Fe85      1.0  0.04481  0.60895  0.35523  1.0000
  C   C577      1.0  0.11440  0.64362  0.31662  1.0000
  C   C578      1.0  0.21210  0.67485  0.61765  1.0000
  C   C579      1.0  0.18430  0.70002  0.45774  1.0000
  Fe  Fe86      1.0  0.18796  0.66382  0.32600  1.0000
  H   H685      1.0  0.00364  0.61055  0.31633  1.0000
  H   H686      1.0  0.18784  0.52817  0.35669  1.0000
  C   C580      1.0  0.03408  0.56629  0.36378  1.0000
  C   C581      1.0  0.23303  0.51637  0.38052  1.0000
  C   C582      1.0  0.23303  0.71036  0.35554  1.0000
  H   H687      1.0  0.02859  0.52063  0.36632  1.0000
  S   S172      1.0  0.10632  0.72764  0.43074  1.0000
  S   S173      1.0  0.04827  0.57902  0.37094  1.0000
  N   N41       1.0  0.11792  0.57473  0.33525  1.0000
  C   C583      1.0  0.11171  0.55776  0.33205  1.0000
  H   H688      1.0  0.17436  0.69502  0.45168  1.0000
  H   H689      1.0  0.20062  0.49503  0.36860  1.0000
  C   C584      1.0  0.09272  0.55385  0.33881  1.0000
  H   H690      1.0  0.20037  0.71385  0.41036  1.0000
  H   H691      1.0  0.15031  0.69007  0.48143  1.0000
  H   H692      1.0  0.06071  0.53608  0.30854  1.0000
  C   C585      1.0  0.00035  0.70508  0.34393  1.0000
  Fe  Fe87      1.0  0.02092  0.50577  0.33551  1.0000
  S   S174      1.0  0.02792  0.67118  0.37852  1.0000
  S   S175      1.0  0.24350  0.64873  0.32156  1.0000
  C   C586      1.0  0.17760  0.71248  0.47111  1.0000
  C   C587      1.0  0.08182  0.67676  0.38084  1.0000
  C   C588      1.0  0.11156  0.67621  0.61467  1.0000
  S   S176      1.0  0.20760  0.68525  0.32046  1.0000
  H   H693      1.0  0.24584  0.51418  0.38659  1.0000
  C   C589      1.0  0.99530  0.69548  0.33168  1.0000
  H   H694      1.0  0.18208  0.67870  0.60072  1.0000
  H   H695      1.0  0.09041  0.59349  0.33537  1.0000
  C   C590      1.0  0.09549  0.72963  0.50015  1.0000
  H   H696      1.0  0.21241  0.66181  0.61198  1.0000
  H   H697      1.0  0.13333  0.70556  0.49520  1.0000
  H   H698      1.0  0.11498  0.67639  0.34311  1.0000
  H   H699      1.0  0.09535  0.58184  0.35861  1.0000
  H   H700      1.0  0.14575  0.55956  0.34128  1.0000
  C   C591      1.0  0.02625  0.53600  0.36248  1.0000
  H   H701      1.0  0.09638  0.67143  0.37450  1.0000
  C   C592      1.0  0.21749  0.69911  0.45976  1.0000
  H   H702      1.0  0.18943  0.70123  0.59717  1.0000
  H   H703      1.0  0.08156  0.56323  0.34639  1.0000
  C   C593      1.0  0.06625  0.67165  0.37575  1.0000
  H   H704      1.0  0.09692  0.51160  0.32432  1.0000
  C   C594      1.0  0.09976  0.67215  0.60378  1.0000
  Fe  Fe88      1.0  0.02518  0.63971  0.32710  1.0000
  N   N42       1.0  0.16460  0.67214  0.39842  1.0000
  C   C595      1.0  0.18200  0.65706  0.39941  1.0000
  C   C596      1.0  0.14856  0.66492  0.41250  1.0000
  C   C597      1.0  0.15991  0.67481  0.37927  1.0000
  C   C598      1.0  0.16710  0.69061  0.40204  1.0000
  C   C599      1.0  0.15854  0.72148  0.35150  1.0000
  C   C600      1.0  0.18497  0.69396  0.40470  1.0000
  H   H705      1.0  0.19171  0.60531  0.32369  1.0000
  H   H706      1.0  0.01877  0.71149  0.37138  1.0000
  C   C601      1.0  0.13420  0.63970  0.30950  1.0000
  H   H707      1.0  0.18650  0.65428  0.41345  1.0000
  H   H708      1.0  0.17956  0.64330  0.39695  1.0000
  H   H709      1.0  0.19430  0.66093  0.38825  1.0000
  H   H710      1.0  0.15096  0.66371  0.42719  1.0000
  H   H711      1.0  0.14682  0.65067  0.41065  1.0000
  H   H712      1.0  0.13439  0.67428  0.41123  1.0000
  H   H713      1.0  0.17144  0.68050  0.36822  1.0000
  H   H714      1.0  0.15831  0.66118  0.37573  1.0000
  H   H715      1.0  0.14612  0.68470  0.37781  1.0000
  C   C602      1.0  0.12668  0.58541  0.31704  1.0000
  H   H716      1.0  0.19795  0.68336  0.40369  1.0000
  C   C603      1.0  0.12035  0.71758  0.34971  1.0000
  Fe  Fe89      1.0  0.08554  0.71609  0.41992  1.0000
  H   H717      1.0  0.22207  0.71512  0.47916  1.0000
  Fe  Fe90      1.0  0.06842  0.63490  0.32698  1.0000
  C   C604      1.0  0.01244  0.54545  0.35135  1.0000
  S   S177      1.0  0.00055  0.53239  0.34176  1.0000
  S   S178      1.0  0.06637  0.71173  0.44809  1.0000
  C   C605      1.0  0.08760  0.53728  0.33616  1.0000
  S   S179      1.0  0.15585  0.67410  0.33334  1.0000
  H   H718      1.0  0.23225  0.54683  0.37457  1.0000
  H   H719      1.0  0.15717  0.72926  0.50256  1.0000
  H   H720      1.0  0.23509  0.68629  0.40026  1.0000
  C   C606      1.0  0.18215  0.69059  0.60798  1.0000
  C   C607      1.0  0.18682  0.57866  0.31886  1.0000
  H   H721      1.0  0.16698  0.69767  0.61208  1.0000
  H   H722      1.0  0.04765  0.53912  0.37748  1.0000
  H   H723      1.0  0.23962  0.71782  0.40441  1.0000
  S   S180      1.0  0.22892  0.67257  0.36889  1.0000
  C   C608      1.0  0.02021  0.57577  0.35270  1.0000
  H   H724      1.0  0.01792  0.59114  0.34881  1.0000
  H   H725      1.0  0.10515  0.71762  0.34879  1.0000
  S   S181      1.0  0.02933  0.72771  0.61096  1.0000
  H   H726      1.0  0.99611  0.64586  0.39418  1.0000
  S   S182      1.0  0.09689  0.71377  0.48485  1.0000
  H   H727      1.0  0.23129  0.70832  0.34190  1.0000
  Fe  Fe91      1.0  0.08556  0.72649  0.45789  1.0000
  H   H728      1.0  0.13104  0.59849  0.31904  1.0000
  H   H729      1.0  0.10122  0.72870  0.54507  1.0000
  H   H730      1.0  0.13034  0.51741  0.31267  1.0000
  H   H731      1.0  0.24533  0.48518  0.40791  1.0000
  H   H732      1.0  0.18905  0.71088  0.35014  1.0000
  H   H733      1.0  0.11409  0.72906  0.38439  1.0000
  C   C609      1.0  0.19488  0.55972  0.31698  1.0000
  C   C610      1.0  0.09923  0.72226  0.51846  1.0000
  C   C611      1.0  0.11173  0.66653  0.63322  1.0000
  C   C612      1.0  0.04842  0.72512  0.51000  1.0000
  H   H734      1.0  0.15701  0.70952  0.34582  1.0000
  C   C613      1.0  0.14659  0.72527  0.46100  1.0000
  C   C614      1.0  0.16634  0.66292  0.63770  1.0000
  H   H735      1.0  0.02869  0.58337  0.30895  1.0000
  H   H736      1.0  0.26156  0.48363  0.38553  1.0000
  H   H737      1.0  0.04360  0.72841  0.48153  1.0000
  S   S183      1.0  0.09849  0.63210  0.30984  1.0000
  H   H738      1.0  0.99430  0.72016  0.60413  1.0000
  H   H739      1.0  0.00628  0.68617  0.32369  1.0000
  C   C615      1.0  0.17090  0.72628  0.40923  1.0000
  H   H740      1.0  0.11624  0.59019  0.30713  1.0000
  Fe  Fe92      1.0  0.05662  0.49148  0.30855  1.0000
  C   C616      1.0  0.01193  0.72643  0.36665  1.0000
  S   S184      1.0  0.99965  0.65158  0.31244  1.0000
  S   S185      1.0  0.02521  0.49966  0.30626  1.0000
  H   H741      1.0  0.17183  0.58400  0.31788  1.0000
  H   H742      1.0  0.13991  0.57698  0.30997  1.0000
  H   H743      1.0  0.04866  0.67114  0.62788  1.0000
  H   H744      1.0  0.04280  0.69342  0.63594  1.0000
  C   C617      1.0  0.23599  0.72815  0.35784  1.0000
  S   S186      1.0  0.07978  0.72980  0.62432  1.0000
  S   S187      1.0  0.18023  0.54467  0.31371  1.0000
  Fe  Fe93      1.0  0.19374  0.51408  0.31127  1.0000
  H   H745      1.0  0.16233  0.64563  0.30922  1.0000
  H   H746      1.0  0.22100  0.67068  0.62896  1.0000
  H   H747      1.0  0.00985  0.69549  0.63063  1.0000
  C   C618      1.0  0.04820  0.54774  0.31055  1.0000
  C   C619      1.0  0.19270  0.70078  0.63230  1.0000
  C   C620      1.0  0.23812  0.73102  0.37553  1.0000
  S   S188      1.0  0.06224  0.51261  0.66366  1.0000
  C   C621      1.0  0.01291  0.70290  0.66487  1.0000
  S   S189      1.0  0.20013  0.51632  0.73099  1.0000
  C   C622      1.0  0.01458  0.54404  0.73480  1.0000
  S   S190      1.0  0.32725  0.53030  0.84098  1.0000
  S   S191      1.0  0.10243  0.60941  0.68066  1.0000
  S   S192      1.0  0.11587  0.64647  0.70282  1.0000
  C   C623      1.0  0.24168  0.67345  0.66954  1.0000
  S   S193      1.0  0.44158  0.70722  0.85099  1.0000
  C   C624      1.0  0.31604  0.51707  0.93006  1.0000
  Fe  Fe94      1.0  0.35826  0.61861  0.84757  1.0000
  S   S194      1.0  0.32861  0.61738  0.86438  1.0000
  S   S195      1.0  0.37758  0.59090  0.84213  1.0000
  Fe  Fe95      1.0  0.35399  0.66123  0.84572  1.0000
  S   S196      1.0  0.32386  0.66291  0.86229  1.0000
  S   S197      1.0  0.36362  0.68996  0.83701  1.0000
  Fe  Fe96      1.0  0.33587  0.63647  0.88094  1.0000
  S   S198      1.0  0.32733  0.63054  0.91276  1.0000
  Fe  Fe97      1.0  0.31947  0.64370  0.84391  1.0000
  S   S199      1.0  0.29115  0.65019  0.83283  1.0000
  S   S200      1.0  0.36627  0.63590  0.86570  1.0000
  S   S201      1.0  0.34881  0.64391  0.82586  1.0000
  Fe  Fe98      1.0  0.23284  0.64628  0.72034  1.0000
  S   S202      1.0  0.22183  0.64154  0.75183  1.0000
  S   S203      1.0  0.23126  0.67762  0.70712  1.0000
  Fe  Fe99      1.0  0.24229  0.60355  0.71976  1.0000
  S   S204      1.0  0.23226  0.59615  0.75085  1.0000
  S   S205      1.0  0.25372  0.57885  0.70422  1.0000
  Fe  Fe100     1.0  0.20728  0.61971  0.74567  1.0000
  S   S206      1.0  0.17720  0.61352  0.75727  1.0000
  Fe  Fe101     1.0  0.24804  0.61849  0.75366  1.0000
  S   S207      1.0  0.27095  0.60961  0.77255  1.0000
  S   S208      1.0  0.21651  0.62596  0.71423  1.0000
  S   S209      1.0  0.25987  0.62442  0.72248  1.0000
  C   C625      1.0  0.23448  0.68589  0.68245  1.0000
  C   C626      1.0  0.23013  0.70556  0.67567  1.0000
  H   H748      1.0  0.22468  0.71525  0.68561  1.0000
  C   C627      1.0  0.28578  0.63866  0.81613  1.0000
  C   C628      1.0  0.29907  0.62421  0.80830  1.0000
  C   C629      1.0  0.29430  0.61561  0.79490  1.0000
  C   C630      1.0  0.27630  0.62143  0.78905  1.0000
  C   C631      1.0  0.26302  0.63592  0.79682  1.0000
  C   C632      1.0  0.26774  0.64443  0.81033  1.0000
  H   H749      1.0  0.31301  0.61966  0.81260  1.0000
  H   H750      1.0  0.30470  0.60445  0.78898  1.0000
  H   H751      1.0  0.24898  0.64031  0.79276  1.0000
  H   H752      1.0  0.25736  0.65554  0.81637  1.0000
  C   C633      1.0  0.34210  0.63471  0.92713  1.0000
  H   H753      1.0  0.30006  0.52105  0.93289  1.0000
  C   C634      1.0  0.34669  0.63704  0.95842  1.0000
  C   C635      1.0  0.33561  0.63295  0.94671  1.0000
  H   H754      1.0  0.24526  0.65829  0.67462  1.0000
  H   H755      1.0  0.09988  0.64568  0.65542  1.0000
  H   H756      1.0  0.32179  0.62878  0.95282  1.0000
  C   C636      1.0  0.41990  0.70251  0.84702  1.0000
  C   C637      1.0  0.41744  0.68355  0.84901  1.0000
  C   C638      1.0  0.40035  0.67941  0.84581  1.0000
  C   C639      1.0  0.38568  0.69427  0.84043  1.0000
  C   C640      1.0  0.38820  0.71321  0.83838  1.0000
  H   H757      1.0  0.42477  0.72668  0.91150  1.0000
  H   H758      1.0  0.42879  0.67200  0.85303  1.0000
  H   H759      1.0  0.39856  0.66477  0.84741  1.0000
  H   H760      1.0  0.10834  0.72530  0.68862  1.0000
  C   C641      1.0  0.13242  0.63727  0.71846  1.0000
  C   C642      1.0  0.12930  0.62240  0.73368  1.0000
  C   C643      1.0  0.14296  0.61540  0.74574  1.0000
  C   C644      1.0  0.15997  0.62293  0.74239  1.0000
  C   C645      1.0  0.16297  0.63788  0.72723  1.0000
  C   C646      1.0  0.14911  0.64517  0.71551  1.0000
  H   H761      1.0  0.11625  0.61651  0.73635  1.0000
  H   H762      1.0  0.14038  0.60412  0.75769  1.0000
  H   H763      1.0  0.17574  0.64414  0.72485  1.0000
  H   H764      1.0  0.15136  0.65695  0.70409  1.0000
  H   H765      1.0  0.29119  0.68033  0.72138  1.0000
  H   H766      1.0  0.12068  0.68956  0.69214  1.0000
  C   C647      1.0  0.34207  0.54661  0.84053  1.0000
  C   C648      1.0  0.36150  0.54083  0.84215  1.0000
  C   C649      1.0  0.37256  0.55450  0.84231  1.0000
  C   C650      1.0  0.36418  0.57388  0.84079  1.0000
  C   C651      1.0  0.34490  0.57953  0.83874  1.0000
  C   C652      1.0  0.33383  0.56594  0.83884  1.0000
  H   H767      1.0  0.36795  0.52590  0.84336  1.0000
  H   H768      1.0  0.38757  0.55009  0.84360  1.0000
  H   H769      1.0  0.33854  0.59445  0.83672  1.0000
  H   H770      1.0  0.31885  0.57052  0.83745  1.0000
  C   C653      1.0  0.21569  0.53308  0.72367  1.0000
  C   C654      1.0  0.21001  0.55056  0.72997  1.0000
  C   C655      1.0  0.22172  0.56449  0.72413  1.0000
  C   C656      1.0  0.23929  0.56108  0.71195  1.0000
  C   C657      1.0  0.24517  0.54350  0.70575  1.0000
  C   C658      1.0  0.23339  0.52948  0.71163  1.0000
  H   H771      1.0  0.19642  0.55352  0.73929  1.0000
  H   H772      1.0  0.21674  0.57814  0.72859  1.0000
  H   H773      1.0  0.25871  0.54084  0.69621  1.0000
  H   H774      1.0  0.23782  0.51610  0.70654  1.0000
  C   C659      1.0  0.07332  0.52547  0.67463  1.0000
  C   C660      1.0  0.08242  0.51619  0.68995  1.0000
  C   C661      1.0  0.08979  0.52657  0.69984  1.0000
  C   C662      1.0  0.08804  0.54634  0.69453  1.0000
  C   C663      1.0  0.12502  0.71122  0.64611  1.0000
  H   H775      1.0  0.09634  0.51925  0.71199  1.0000
  C   C664      1.0  0.31732  0.54841  0.91028  1.0000
  N   N43       1.0  0.32441  0.52764  0.91153  1.0000
  C   C665      1.0  0.15664  0.70153  0.67877  1.0000
  C   C666      1.0  0.07230  0.54517  0.66877  1.0000
  H   H776      1.0  0.35958  0.72388  0.94685  1.0000
  H   H777      1.0  0.22324  0.51763  0.81389  1.0000
  H   H778      1.0  0.30073  0.60373  0.90711  1.0000
  C   C667      1.0  0.24988  0.55831  0.78540  1.0000
  S   S210      1.0  0.05723  0.60289  0.68983  1.0000
  S   S211      1.0  0.09477  0.55930  0.70887  1.0000
  H   H779      1.0  0.28165  0.53541  0.80356  1.0000
  N   N44       1.0  0.15175  0.56379  0.71717  1.0000
  C   C668      1.0  0.14790  0.54524  0.71494  1.0000
  C   C669      1.0  0.15249  0.56249  0.73741  1.0000
  C   C670      1.0  0.13518  0.57860  0.71212  1.0000
  C   C671      1.0  0.16988  0.56895  0.70537  1.0000
  C   C672      1.0  0.18303  0.55665  0.69402  1.0000
  C   C673      1.0  0.17509  0.58667  0.70536  1.0000
  C   C674      1.0  0.20018  0.56190  0.68333  1.0000
  C   C675      1.0  0.19224  0.59178  0.69458  1.0000
  C   C676      1.0  0.20478  0.57941  0.68361  1.0000
  H   H780      1.0  0.15918  0.53314  0.71963  1.0000
  H   H781      1.0  0.13388  0.54212  0.72359  1.0000
  H   H782      1.0  0.14695  0.54523  0.70003  1.0000
  H   H783      1.0  0.16439  0.55101  0.74184  1.0000
  H   H784      1.0  0.13887  0.55915  0.74671  1.0000
  H   H785      1.0  0.15488  0.57598  0.74050  1.0000
  H   H786      1.0  0.13385  0.57959  0.69712  1.0000
  H   H787      1.0  0.12135  0.57540  0.72108  1.0000
  H   H788      1.0  0.13631  0.59295  0.71399  1.0000
  H   H789      1.0  0.18072  0.54262  0.69361  1.0000
  H   H790      1.0  0.16618  0.59655  0.71406  1.0000
  H   H791      1.0  0.21030  0.55204  0.67529  1.0000
  H   H792      1.0  0.19612  0.60512  0.69524  1.0000
  H   H793      1.0  0.21844  0.58310  0.67588  1.0000
  N   N45       1.0  0.37287  0.57762  0.90739  1.0000
  C   C677      1.0  0.38700  0.59052  0.89932  1.0000
  C   C678      1.0  0.35714  0.58293  0.89611  1.0000
  C   C679      1.0  0.36421  0.58098  0.92690  1.0000
  C   C680      1.0  0.38261  0.55768  0.90660  1.0000
  C   C681      1.0  0.38904  0.55142  0.88894  1.0000
  C   C682      1.0  0.38647  0.54412  0.92301  1.0000
  C   C683      1.0  0.39803  0.53261  0.88785  1.0000
  C   C684      1.0  0.39561  0.52537  0.92174  1.0000
  C   C685      1.0  0.40124  0.51958  0.90424  1.0000
  H   H794      1.0  0.39304  0.58978  0.88418  1.0000
  N   N46       1.0  0.12482  0.71040  0.66646  1.0000
  H   H795      1.0  0.39925  0.58685  0.90718  1.0000
  H   H796      1.0  0.36254  0.58463  0.88067  1.0000
  H   H797      1.0  0.34788  0.59682  0.89840  1.0000
  H   H798      1.0  0.34778  0.57200  0.89975  1.0000
  H   H799      1.0  0.22956  0.72796  0.65108  1.0000
  H   H800      1.0  0.01416  0.71174  0.65097  1.0000
  C   C686      1.0  0.37115  0.64397  0.93110  1.0000
  C   C687      1.0  0.99353  0.52079  0.73781  1.0000
  H   H801      1.0  0.38265  0.54762  0.93702  1.0000
  H   H802      1.0  0.40271  0.52819  0.87417  1.0000
  H   H803      1.0  0.39844  0.51526  0.93444  1.0000
  H   H804      1.0  0.40836  0.50502  0.90343  1.0000
  H   H805      1.0  0.32805  0.65561  0.76695  1.0000
  H   H806      1.0  0.18781  0.64380  0.68367  1.0000
  C   C688      1.0  0.31372  0.66401  0.76941  1.0000
  C   C689      1.0  0.03325  0.56014  0.74821  1.0000
  C   C690      1.0  0.40763  0.68761  0.93779  1.0000
  H   H807      1.0  0.02820  0.55220  0.76251  1.0000
  C   C691      1.0  0.15830  0.64931  0.65193  1.0000
  H   H808      1.0  0.32280  0.54988  0.93809  1.0000
  C   C692      1.0  0.44999  0.70234  0.97139  1.0000
  H   H809      1.0  0.20267  0.66703  0.65900  1.0000
  C   C693      1.0  0.01098  0.68185  0.70149  1.0000
  H   H810      1.0  0.10730  0.68825  0.67483  1.0000
  H   H811      1.0  0.20702  0.51326  0.79005  1.0000
  C   C694      1.0  0.24053  0.70040  0.64322  1.0000
  C   C695      1.0  0.17382  0.70631  0.68066  1.0000
  H   H812      1.0  0.03052  0.64549  0.64222  1.0000
  H   H813      1.0  0.24626  0.50162  0.75099  1.0000
  C   C696      1.0  0.21630  0.51488  0.77585  1.0000
  N   N47       1.0  0.30899  0.54170  0.78787  1.0000
  C   C697      1.0  0.32947  0.53225  0.78613  1.0000
  C   C698      1.0  0.30722  0.55962  0.79514  1.0000
  C   C699      1.0  0.29722  0.52924  0.80227  1.0000
  C   C700      1.0  0.30268  0.54477  0.76937  1.0000
  C   C701      1.0  0.30309  0.52902  0.76074  1.0000
  C   C702      1.0  0.29618  0.56318  0.75932  1.0000
  C   C703      1.0  0.29710  0.53152  0.74334  1.0000
  C   C704      1.0  0.28989  0.56551  0.74211  1.0000
  C   C705      1.0  0.29035  0.54973  0.73412  1.0000
  H   H814      1.0  0.33876  0.54066  0.77482  1.0000
  H   H815      1.0  0.33498  0.53053  0.79957  1.0000
  H   H816      1.0  0.33171  0.51767  0.78281  1.0000
  H   H817      1.0  0.31660  0.56928  0.78557  1.0000
  H   H818      1.0  0.31176  0.55680  0.80920  1.0000
  H   H819      1.0  0.29208  0.56743  0.79705  1.0000
  H   H820      1.0  0.29923  0.51471  0.79896  1.0000
  H   H821      1.0  0.01694  0.61238  0.69719  1.0000
  Fe  Fe102     1.0  0.33888  0.49957  0.83852  1.0000
  H   H822      1.0  0.30826  0.51464  0.76734  1.0000
  H   H823      1.0  0.29572  0.57606  0.76448  1.0000
  H   H824      1.0  0.29780  0.51929  0.73693  1.0000
  H   H825      1.0  0.28462  0.57969  0.73487  1.0000
  H   H826      1.0  0.28555  0.55170  0.72071  1.0000
  N   N48       1.0  0.23689  0.51292  0.77698  1.0000
  C   C706      1.0  0.31129  0.56022  0.89375  1.0000
  H   H827      1.0  0.06359  0.53652  0.73441  1.0000
  H   H828      1.0  0.00229  0.70888  0.71082  1.0000
  C   C707      1.0  0.23925  0.52823  0.78624  1.0000
  C   C708      1.0  0.12127  0.69118  0.67662  1.0000
  C   C709      1.0  0.24859  0.54373  0.77633  1.0000
  H   H829      1.0  0.40006  0.67666  0.93665  1.0000
  C   C710      1.0  0.01647  0.67243  0.68600  1.0000
  H   H830      1.0  0.31954  0.50136  0.93073  1.0000
  C   C711      1.0  0.00724  0.71216  0.68046  1.0000
  C   C712      1.0  0.35889  0.71150  0.90447  1.0000
  H   H831      1.0  0.48144  0.68886  0.84539  1.0000
  H   H832      1.0  0.99690  0.49352  0.66753  1.0000
  H   H833      1.0  0.99549  0.67813  0.64403  1.0000
  H   H834      1.0  0.99889  0.57339  0.73272  1.0000
  C   C713      1.0  0.23260  0.54314  0.81450  1.0000
  H   H835      1.0  0.01068  0.67365  0.71574  1.0000
  C   C714      1.0  0.02597  0.65216  0.65513  1.0000
  H   H836      1.0  0.28443  0.68822  0.80221  1.0000
  H   H837      1.0  0.25469  0.54520  0.76147  1.0000
  H   H838      1.0  0.01421  0.50969  0.68100  1.0000
  C   C715      1.0  0.31142  0.57734  0.92426  1.0000
  C   C716      1.0  0.16600  0.64247  0.66841  1.0000
  H   H839      1.0  0.27970  0.70271  0.72845  1.0000
  H   H840      1.0  0.05304  0.56527  0.71315  1.0000
  S   S212      1.0  0.07743  0.60947  0.72385  1.0000
  H   H841      1.0  0.07891  0.57077  0.67407  1.0000
  H   H842      1.0  0.48013  0.71852  0.82610  1.0000
  C   C717      1.0  0.01310  0.53836  0.68285  1.0000
  H   H843      1.0  0.31127  0.55467  0.88126  1.0000
  C   C718      1.0  0.30770  0.67214  0.78563  1.0000
  H   H844      1.0  0.04663  0.52263  0.74918  1.0000
  H   H845      1.0  0.30001  0.48538  0.75681  1.0000
  H   H846      1.0  0.31176  0.58414  0.93593  1.0000
  C   C719      1.0  0.24193  0.55802  0.80441  1.0000
  H   H847      1.0  0.31719  0.66990  0.79584  1.0000
  H   H848      1.0  0.99757  0.48552  0.69242  1.0000
  C   C720      1.0  0.28917  0.68255  0.78916  1.0000
  H   H849      1.0  0.26220  0.69260  0.78054  1.0000
  C   C721      1.0  0.41275  0.68772  0.95507  1.0000
  S   S213      1.0  0.35107  0.54397  0.96752  1.0000
  H   H850      1.0  0.25839  0.49215  0.79017  1.0000
  H   H851      1.0  0.06554  0.55241  0.65676  1.0000
  H   H852      1.0  0.32160  0.51953  0.94215  1.0000
  H   H853      1.0  0.35244  0.53162  0.89586  1.0000
  H   H854      1.0  0.11184  0.70708  0.64380  1.0000
  C   C722      1.0  0.00346  0.61436  0.70683  1.0000
  C   C723      1.0  0.34261  0.70811  0.87985  1.0000
  H   H855      1.0  0.40830  0.70121  0.90868  1.0000
  C   C724      1.0  0.04944  0.53225  0.73532  1.0000
  C   C725      1.0  0.14314  0.71489  0.66880  1.0000
  C   C726      1.0  0.27646  0.68478  0.77659  1.0000
  H   H856      1.0  0.38027  0.60566  0.89996  1.0000
  C   C727      1.0  0.19016  0.66259  0.65659  1.0000
  H   H857      1.0  0.03997  0.55300  0.70296  1.0000
  C   C728      1.0  0.33814  0.68709  0.90963  1.0000
  C   C729      1.0  0.26686  0.65921  0.74441  1.0000
  Fe  Fe103     1.0  0.05153  0.62317  0.71007  1.0000
  C   C730      1.0  0.28211  0.67657  0.75992  1.0000
  H   H858      1.0  0.24216  0.68187  0.76589  1.0000
  Fe  Fe104     1.0  0.07483  0.62338  0.67064  1.0000
  H   H859      1.0  0.30381  0.52300  0.89635  1.0000
  C   C731      1.0  0.00179  0.62338  0.72220  1.0000
  Fe  Fe105     1.0  0.08421  0.59076  0.70182  1.0000
  C   C732      1.0  0.34564  0.52404  0.90969  1.0000
  H   H860      1.0  0.38730  0.56113  0.87580  1.0000
  C   C733      1.0  0.00183  0.55594  0.68551  1.0000
  H   H861      1.0  0.04777  0.56318  0.74811  1.0000
  H   H862      1.0  0.15423  0.68734  0.68535  1.0000
  C   C734      1.0  0.30121  0.66624  0.75666  1.0000
  C   C735      1.0  0.07972  0.55559  0.67868  1.0000
  Fe  Fe106     1.0  0.09355  0.62943  0.70147  1.0000
  S   S214      1.0  0.37746  0.65050  0.96433  1.0000
  H   H863      1.0  0.26092  0.65109  0.75825  1.0000
  H   H864      1.0  0.26744  0.69047  0.71711  1.0000
  C   C736      1.0  0.27723  0.68842  0.72754  1.0000
  C   C737      1.0  0.36900  0.68402  0.88929  1.0000
  H   H865      1.0  0.23992  0.68991  0.74164  1.0000
  C   C738      1.0  0.36012  0.63980  0.91940  1.0000
  H   H866      1.0  0.36539  0.64089  0.90441  1.0000
  H   H867      1.0  0.24972  0.70398  0.75304  1.0000
  C   C739      1.0  0.24939  0.68906  0.75208  1.0000
  N   N49       1.0  0.26905  0.67839  0.74635  1.0000
  H   H868      1.0  0.01218  0.64770  0.66281  1.0000
  C   C740      1.0  0.23294  0.71279  0.65613  1.0000
  H   H869      1.0  0.22618  0.54310  0.82925  1.0000
  H   H870      1.0  0.28065  0.65043  0.73892  1.0000
  H   H871      1.0  0.25694  0.66020  0.73444  1.0000
  C   C741      1.0  0.24489  0.68072  0.65000  1.0000
  S   S215      1.0  0.06700  0.64498  0.68971  1.0000
  H   H872      1.0  0.20101  0.69727  0.64405  1.0000
  H   H873      1.0  0.21088  0.52912  0.76784  1.0000
  C   C742      1.0  0.42663  0.71599  0.94087  1.0000
  C   C743      1.0  0.36432  0.64294  0.95057  1.0000
  N   N50       1.0  0.02408  0.67326  0.65039  1.0000
  H   H874      1.0  0.38497  0.64816  0.92507  1.0000
  H   H875      1.0  0.18385  0.69600  0.68851  1.0000
  Fe  Fe107     1.0  0.06047  0.48439  0.68262  1.0000
  H   H876      1.0  0.34458  0.67786  0.92163  1.0000
  H   H877      1.0  0.05158  0.52389  0.72380  1.0000
  C   C744      1.0  0.41218  0.70143  0.92207  1.0000
  H   H878      1.0  0.36486  0.67396  0.88205  1.0000
  H   H879      1.0  0.35366  0.57141  0.93382  1.0000
  H   H880      1.0  0.25679  0.57017  0.77755  1.0000
  C   C745      1.0  0.42151  0.71571  0.92366  1.0000
  H   H881      1.0  0.15961  0.63197  0.67939  1.0000
  H   H882      1.0  0.13247  0.67960  0.67125  1.0000
  H   H883      1.0  0.24277  0.56955  0.81122  1.0000
  H   H884      1.0  0.35276  0.71428  0.86764  1.0000
  C   C746      1.0  0.42278  0.70180  0.95703  1.0000
  H   H885      1.0  0.37620  0.67559  0.90113  1.0000
  H   H886      1.0  0.03737  0.64569  0.66383  1.0000
  H   H887      1.0  0.37526  0.57899  0.93596  1.0000
  H   H888      1.0  0.24326  0.52680  0.74790  1.0000
  H   H889      1.0  0.35172  0.50857  0.91057  1.0000
  N   N51       1.0  0.03373  0.54907  0.73332  1.0000
  S   S216      1.0  0.02157  0.63143  0.72651  1.0000
  H   H890      1.0  0.35624  0.59581  0.92703  1.0000
  H   H891      1.0  0.02019  0.65708  0.68925  1.0000
  C   C747      1.0  0.04317  0.67785  0.64070  1.0000
  H   H892      1.0  0.37442  0.72493  0.87772  1.0000
  H   H893      1.0  0.43368  0.72746  0.94138  1.0000
  C   C748      1.0  0.40517  0.71733  0.84179  1.0000
  C   C749      1.0  0.03887  0.56095  0.71459  1.0000
  S   S217      1.0  0.35510  0.48809  0.81261  1.0000
  H   H894      1.0  0.02352  0.51297  0.73697  1.0000
  H   H895      1.0  0.26377  0.51202  0.75741  1.0000
  H   H896      1.0  0.00402  0.72762  0.67830  1.0000
  H   H897      1.0  0.33634  0.69835  0.87406  1.0000
  S   S218      1.0  0.36188  0.49511  0.95026  1.0000
  C   C750      1.0  0.01752  0.68270  0.66714  1.0000
  C   C751      1.0  0.31754  0.55766  0.92539  1.0000
  C   C752      1.0  0.30521  0.58842  0.90802  1.0000
  H   H898      1.0  0.12478  0.48352  0.74063  1.0000
  C   C753      1.0  0.99795  0.55852  0.73426  1.0000
  H   H899      1.0  0.37693  0.72477  0.83417  1.0000
  H   H900      1.0  0.30122  0.52715  0.81650  1.0000
  C   C754      1.0  0.31956  0.51964  0.89650  1.0000
  H   H901      1.0  0.33311  0.67722  0.90281  1.0000
  H   H902      1.0  0.02825  0.57432  0.71219  1.0000
  H   H903      1.0  0.30652  0.65951  0.74438  1.0000
  C   C755      1.0  0.24812  0.51343  0.75749  1.0000
  C   C756      1.0  0.23114  0.52852  0.80558  1.0000
  H   H904      1.0  0.08370  0.50098  0.69441  1.0000
  C   C757      1.0  0.00629  0.70166  0.69875  1.0000
  H   H905      1.0  0.32731  0.52501  0.88218  1.0000
  H   H906      1.0  0.35027  0.52904  0.92101  1.0000
  H   H907      1.0  0.30061  0.58862  0.88007  1.0000
  H   H908      1.0  0.02368  0.57429  0.74631  1.0000
  Fe  Fe108     1.0  0.21224  0.48556  0.72866  1.0000
  C   C758      1.0  0.01182  0.52498  0.73652  1.0000
  H   H909      1.0  0.33082  0.71982  0.88398  1.0000
  C   C759      1.0  0.30520  0.57988  0.89280  1.0000
  H   H910      1.0  0.21386  0.50398  0.76848  1.0000
  H   H911      1.0  0.13755  0.70130  0.63993  1.0000
  H   H912      1.0  0.38003  0.69117  0.87900  1.0000
  H   H913      1.0  0.32380  0.50382  0.89852  1.0000
  H   H914      1.0  0.32515  0.69681  0.91541  1.0000
  C   C760      1.0  0.18186  0.64915  0.67078  1.0000
  N   N52       1.0  0.35215  0.69791  0.89611  1.0000
  S   S219      1.0  0.04947  0.48536  0.71309  1.0000
  C   C761      1.0  0.00450  0.52285  0.68310  1.0000
  H   H915      1.0  0.02867  0.53670  0.68046  1.0000
  H   H916      1.0  0.45522  0.48692  0.96815  1.0000
  C   C762      1.0  0.17812  0.72435  0.67266  1.0000
  H   H917      1.0  0.34727  0.70171  0.93438  1.0000
  C   C763      1.0  0.24324  0.49386  0.78807  1.0000
  C   C764      1.0  0.18267  0.66992  0.63958  1.0000
  H   H918      1.0  0.05406  0.67261  0.65017  1.0000
  H   H919      1.0  0.19137  0.72805  0.67425  1.0000
  S   S220      1.0  0.31396  0.48482  0.84140  1.0000
  C   C765      1.0  0.37038  0.72460  0.89281  1.0000
  H   H920      1.0  0.00858  0.56790  0.68525  1.0000
  H   H921      1.0  0.14600  0.64391  0.65020  1.0000
  H   H922      1.0  0.40867  0.67656  0.96662  1.0000
  C   C766      1.0  0.10005  0.65276  0.64093  1.0000
  H   H923      1.0  0.09428  0.72104  0.67296  1.0000
  H   H924      1.0  0.12030  0.67014  0.64185  1.0000
  H   H925      1.0  0.45386  0.71562  0.96205  1.0000
  C   C767      1.0  0.10834  0.72460  0.67364  1.0000
  S   S221      1.0  0.07288  0.63220  0.64002  1.0000
  C   C768      1.0  0.35533  0.71150  0.92427  1.0000
  H   H926      1.0  0.23412  0.49108  0.80220  1.0000
  H   H927      1.0  0.45833  0.69007  0.96470  1.0000
  C   C769      1.0  0.36239  0.72420  0.93170  1.0000
  H   H928      1.0  0.25103  0.67106  0.64012  1.0000
  H   H929      1.0  0.35319  0.58178  0.97207  1.0000
  H   H930      1.0  0.99182  0.50609  0.73924  1.0000
  H   H931      1.0  0.24246  0.48212  0.78087  1.0000
  H   H932      1.0  0.49132  0.69752  0.86146  1.0000
  Fe  Fe109     1.0  0.47926  0.75776  0.03143  1.0000
  C   C770      1.0  0.47146  0.80217  0.07167  1.0000
  H   H933      1.0  0.38567  0.74749  0.20576  1.0000
  H   H934      1.0  0.42636  0.79330  0.27663  1.0000
  C   C771      1.0  0.43369  0.82044  0.27876  1.0000
  H   H935      1.0  0.44116  0.85521  0.23958  1.0000
  H   H936      1.0  0.47507  0.78404  0.25684  1.0000
  H   H937      1.0  0.43260  0.83186  0.22433  1.0000
  H   H938      1.0  0.44275  0.84815  0.27310  1.0000
  S   S222      1.0  0.48358  0.74207  0.15030  1.0000
  H   H939      1.0  0.48985  0.97933  0.30037  1.0000
  S   S223      1.0  0.46634  0.87162  0.28561  1.0000
  Fe  Fe110     1.0  0.46486  0.73277  0.17795  1.0000
  S   S224      1.0  0.44758  0.76193  0.18047  1.0000
  H   H940      1.0  0.47942  0.75381  0.07764  1.0000
  C   C772      1.0  0.42905  0.80725  0.26946  1.0000
  H   H941      1.0  0.46420  0.80014  0.29295  1.0000
  Fe  Fe111     1.0  0.47040  0.76551  0.19565  1.0000
  S   S225      1.0  0.46557  0.77509  0.22415  1.0000
  Fe  Fe112     1.0  0.46777  0.77131  0.15367  1.0000
  S   S226      1.0  0.45867  0.79261  0.12866  1.0000
  S   S227      1.0  0.45919  0.75937  0.01128  1.0000
  C   C773      1.0  0.43244  0.82891  0.23945  1.0000
  S   S228      1.0  0.48608  0.73538  0.19531  1.0000
  Fe  Fe113     1.0  0.48398  0.74201  0.99471  1.0000
  H   H942      1.0  0.48249  0.83909  0.20486  1.0000
  H   H943      1.0  0.44056  0.73456  0.09769  1.0000
  S   S229      1.0  0.48877  0.77776  0.16906  1.0000
  C   C774      1.0  0.47551  0.76791  0.08123  1.0000
  C   C775      1.0  0.43719  0.84206  0.24808  1.0000
  H   H944      1.0  0.47196  0.81467  0.06068  1.0000
  C   C776      1.0  0.47424  0.79492  0.22731  1.0000
  C   C777      1.0  0.47684  0.81035  0.21260  1.0000
  C   C778      1.0  0.48142  0.82691  0.21614  1.0000
  C   C779      1.0  0.48390  0.82806  0.23428  1.0000
  C   C780      1.0  0.48216  0.81233  0.24881  1.0000
  C   C781      1.0  0.48401  0.95356  0.29446  1.0000
  H   H945      1.0  0.47442  0.80984  0.19870  1.0000
  C   C782      1.0  0.42845  0.81153  0.25009  1.0000
  S   S230      1.0  0.48399  0.78252  0.04260  1.0000
  C   C783      1.0  0.43801  0.83787  0.26738  1.0000
  S   S231      1.0  0.47628  0.92095  0.28740  1.0000
  C   C784      1.0  0.46545  0.78845  0.10512  1.0000
  C   C785      1.0  0.47036  0.77011  0.10044  1.0000
  C   C786      1.0  0.46590  0.80436  0.09062  1.0000
  C   C787      1.0  0.47613  0.78404  0.06680  1.0000
  H   H946      1.0  0.42567  0.80099  0.24307  1.0000
  Fe  Fe114     1.0  0.48738  0.88964  0.28722  1.0000
  H   H947      1.0  0.47001  0.75772  0.11153  1.0000
  H   H948      1.0  0.46208  0.81853  0.09408  1.0000
  C   C788      1.0  0.45620  0.81206  0.30032  1.0000
  C   C789      1.0  0.47712  0.79591  0.24538  1.0000
  H   H949      1.0  0.48423  0.81301  0.26275  1.0000
  H   H950      1.0  0.41907  0.73421  0.21083  1.0000
  H   H951      1.0  0.43527  0.78566  0.30477  1.0000
  C   C790      1.0  0.38959  0.73242  0.21118  1.0000
  H   H952      1.0  0.46991  0.96015  0.29117  1.0000
  H   H953      1.0  0.43321  0.84476  0.30395  1.0000
  H   H954      1.0  0.46307  0.82474  0.29383  1.0000
  N   N53       1.0  0.43551  0.81596  0.29901  1.0000
  S   S232      1.0  0.48902  0.84949  0.23804  1.0000
  Fe  Fe115     1.0  0.49045  0.85633  0.26640  1.0000
  C   C791      1.0  0.49098  0.93428  0.29333  1.0000
  H   H955      1.0  0.42179  0.73280  0.97256  1.0000
  Fe  Fe116     1.0  0.08808  0.75833  0.61154  1.0000
  H   H956      1.0  0.41176  0.80070  0.30824  1.0000
  H   H957      1.0  0.00591  0.77209  0.56309  1.0000
  Fe  Fe117     1.0  0.08662  0.75403  0.57193  1.0000
  H   H958      1.0  0.41915  0.89981  0.34358  1.0000
  Fe  Fe118     1.0  0.32194  0.90574  0.60861  1.0000
  S   S233      1.0  0.34754  0.91102  0.58667  1.0000
  H   H959      1.0  0.03749  0.75782  0.57102  1.0000
  Fe  Fe119     1.0  0.32910  0.86322  0.60677  1.0000
  S   S234      1.0  0.35614  0.86533  0.58494  1.0000
  C   C792      1.0  0.24068  0.74232  0.49401  1.0000
  Fe  Fe120     1.0  0.36278  0.88424  0.60255  1.0000
  S   S235      1.0  0.39226  0.88747  0.60639  1.0000
  Fe  Fe121     1.0  0.33845  0.89189  0.57148  1.0000
  S   S236      1.0  0.33466  0.90212  0.54120  1.0000
  H   H960      1.0  0.37005  0.98044  0.39844  1.0000
  S   S237      1.0  0.31117  0.88883  0.59219  1.0000
  Fe  Fe122     1.0  0.20489  0.77470  0.61095  1.0000
  C   C793      1.0  0.24128  0.86877  0.63485  1.0000
  H   H961      1.0  0.38654  0.90267  0.56284  1.0000
  Fe  Fe123     1.0  0.24518  0.78015  0.58983  1.0000
  S   S238      1.0  0.24944  0.75354  0.57723  1.0000
  S   S239      1.0  0.26330  0.80373  0.57917  1.0000
  Fe  Fe124     1.0  0.21903  0.76332  0.57221  1.0000
  C   C794      1.0  0.21035  0.75566  0.51184  1.0000
  C   C795      1.0  0.36362  0.94090  0.36705  1.0000
  S   S240      1.0  0.21556  0.79072  0.58254  1.0000
  S   S241      1.0  0.23411  0.76593  0.61943  1.0000
  C   C796      1.0  0.47967  0.91904  0.34493  1.0000
  S   S242      1.0  0.06909  0.75594  0.45025  1.0000
  H   H962      1.0  0.01764  0.76911  0.60565  1.0000
  H   H963      1.0  0.48531  0.93066  0.33417  1.0000
  C   C797      1.0  0.32204  0.82061  0.36718  1.0000
  C   C798      1.0  0.39414  0.94551  0.48453  1.0000
  Fe  Fe125     1.0  0.08851  0.75589  0.42188  1.0000
  S   S243      1.0  0.10801  0.77584  0.40462  1.0000
  C   C799      1.0  0.41711  0.95010  0.61675  1.0000
  C   C800      1.0  0.09100  0.74936  0.49435  1.0000
  C   C801      1.0  0.39803  0.88444  0.62919  1.0000
  H   H964      1.0  0.39077  0.94540  0.47047  1.0000
  C   C802      1.0  0.11903  0.77859  0.62940  1.0000
  Fe  Fe126     1.0  0.23536  0.76141  0.40716  1.0000
  S   S244      1.0  0.21628  0.78986  0.40979  1.0000
  H   H965      1.0  0.23021  0.82769  0.60343  1.0000
  Fe  Fe127     1.0  0.24073  0.75382  0.44815  1.0000
  S   S245      1.0  0.22225  0.78151  0.45352  1.0000
  H   H966      1.0  0.36969  0.94775  0.40938  1.0000
  Fe  Fe128     1.0  0.20257  0.77432  0.43742  1.0000
  S   S246      1.0  0.17162  0.77607  0.45183  1.0000
  Fe  Fe129     1.0  0.23804  0.79416  0.42566  1.0000
  S   S247      1.0  0.24715  0.82268  0.42320  1.0000
  H   H967      1.0  0.19511  0.76095  0.51268  1.0000
  S   S248      1.0  0.25807  0.76685  0.42119  1.0000
  Fe  Fe130     1.0  0.37545  0.88240  0.40658  1.0000
  S   S249      1.0  0.39550  0.89360  0.38009  1.0000
  Fe  Fe131     1.0  0.36807  0.86838  0.44933  1.0000
  S   S250      1.0  0.33622  0.87143  0.45104  1.0000
  S   S251      1.0  0.38094  0.85801  0.47583  1.0000
  Fe  Fe132     1.0  0.34398  0.85821  0.42492  1.0000
  S   S252      1.0  0.33303  0.83201  0.42220  1.0000
  S   S253      1.0  0.37603  0.85323  0.42447  1.0000
  H   H968      1.0  0.35925  0.93755  0.48746  1.0000
  C   C803      1.0  0.27100  0.82493  0.42355  1.0000
  C   C804      1.0  0.28628  0.80961  0.42198  1.0000
  C   C805      1.0  0.30512  0.81200  0.42187  1.0000
  C   C806      1.0  0.30890  0.82969  0.42335  1.0000
  C   C807      1.0  0.29358  0.84494  0.42525  1.0000
  C   C808      1.0  0.27471  0.84256  0.42529  1.0000
  H   H969      1.0  0.28367  0.79601  0.42052  1.0000
  H   H970      1.0  0.31692  0.80017  0.42030  1.0000
  H   H971      1.0  0.29632  0.85863  0.42638  1.0000
  H   H972      1.0  0.26297  0.85451  0.42649  1.0000
  C   C809      1.0  0.44140  0.85340  0.34679  1.0000
  C   C810      1.0  0.43706  0.87282  0.33936  1.0000
  C   C811      1.0  0.42249  0.88484  0.34945  1.0000
  C   C812      1.0  0.41239  0.87763  0.36717  1.0000
  C   C813      1.0  0.41649  0.85815  0.37445  1.0000
  C   C814      1.0  0.43089  0.84607  0.36423  1.0000
  H   H973      1.0  0.40878  0.85242  0.38808  1.0000
  S   S254      1.0  0.01868  0.74422  0.44898  1.0000
  H   H974      1.0  0.35806  0.93056  0.40442  1.0000
  C   C815      1.0  0.42077  0.98082  0.62169  1.0000
  H   H975      1.0  0.46693  0.95939  0.33570  1.0000
  C   C816      1.0  0.99279  0.73542  0.60293  1.0000
  C   C817      1.0  0.00170  0.75070  0.43365  1.0000
  S   S255      1.0  0.31775  0.92615  0.43462  1.0000
  C   C818      1.0  0.00604  0.76296  0.60361  1.0000
  H   H976      1.0  0.31816  0.79581  0.35873  1.0000
  S   S256      1.0  0.31835  0.83500  0.61790  1.0000
  C   C819      1.0  0.12568  0.77649  0.41752  1.0000
  C   C820      1.0  0.12166  0.77313  0.43729  1.0000
  C   C821      1.0  0.13571  0.77365  0.44760  1.0000
  C   C822      1.0  0.15415  0.77664  0.43825  1.0000
  C   C823      1.0  0.15833  0.77971  0.41848  1.0000
  C   C824      1.0  0.14397  0.77996  0.40812  1.0000
  H   H977      1.0  0.10755  0.77056  0.44464  1.0000
  H   H978      1.0  0.13234  0.77143  0.46289  1.0000
  H   H979      1.0  0.17250  0.78218  0.41119  1.0000
  H   H980      1.0  0.14705  0.78274  0.39284  1.0000
  C   C825      1.0  0.31233  0.97989  0.55250  1.0000
  C   C826      1.0  0.32166  0.97606  0.51282  1.0000
  H   H981      1.0  0.05626  0.74782  0.55395  1.0000
  H   H982      1.0  0.41009  0.94254  0.48329  1.0000
  H   H983      1.0  0.29047  0.75921  0.54470  1.0000
  C   C827      1.0  0.21934  0.75506  0.52711  1.0000
  S   S257      1.0  0.20553  0.76440  0.54692  1.0000
  C   C828      1.0  0.22099  0.74950  0.49531  1.0000
  H   H984      1.0  0.03559  0.73633  0.56452  1.0000
  C   C829      1.0  0.39161  0.96552  0.35663  1.0000
  H   H985      1.0  0.45676  0.89364  0.35709  1.0000
  H   H986      1.0  0.00409  0.75071  0.55579  1.0000
  S   S258      1.0  0.33733  0.87989  0.62560  1.0000
  H   H987      1.0  0.29787  0.96373  0.42568  1.0000
  H   H988      1.0  0.43661  0.90823  0.36869  1.0000
  C   C830      1.0  0.34719  0.88891  0.52369  1.0000
  C   C831      1.0  0.34280  0.89474  0.50545  1.0000
  C   C832      1.0  0.35320  0.88533  0.49074  1.0000
  C   C833      1.0  0.36811  0.87004  0.49417  1.0000
  C   C834      1.0  0.37256  0.86414  0.51243  1.0000
  C   C835      1.0  0.36202  0.87350  0.52725  1.0000
  H   H989      1.0  0.33139  0.90669  0.50262  1.0000
  H   H990      1.0  0.34975  0.89007  0.47669  1.0000
  H   H991      1.0  0.38420  0.85237  0.51506  1.0000
  H   H992      1.0  0.36563  0.86907  0.54126  1.0000
  C   C836      1.0  0.30248  0.82677  0.60737  1.0000
  C   C837      1.0  0.29398  0.83815  0.59240  1.0000
  C   C838      1.0  0.28152  0.83106  0.58436  1.0000
  C   C839      1.0  0.27737  0.81258  0.59120  1.0000
  C   C840      1.0  0.28554  0.80134  0.60642  1.0000
  C   C841      1.0  0.29807  0.80840  0.61441  1.0000
  H   H993      1.0  0.29703  0.85239  0.58701  1.0000
  H   H994      1.0  0.27523  0.83990  0.57262  1.0000
  H   H995      1.0  0.35060  0.82060  0.55648  1.0000
  H   H996      1.0  0.48378  0.90613  0.33815  1.0000
  H   H997      1.0  0.38862  0.91324  0.47904  1.0000
  H   H998      1.0  0.37736  0.96096  0.63032  1.0000
  C   C842      1.0  0.16551  0.75199  0.36483  1.0000
  H   H999      1.0  0.12740  0.74952  0.32510  1.0000
  H   H1000     1.0  0.10250  0.75166  0.33640  1.0000
  C   C843      1.0  0.30921  0.94654  0.52200  1.0000
  N   N54       1.0  0.36418  0.95290  0.38082  1.0000
  S   S259      1.0  0.20579  0.74814  0.60022  1.0000
  H   H1001     1.0  0.24099  0.80690  0.61789  1.0000
  C   C844      1.0  0.04039  0.75029  0.55878  1.0000
  Fe  Fe133     1.0  0.05831  0.73738  0.60455  1.0000
  C   C845      1.0  0.41997  0.94213  0.63514  1.0000
  H   H1002     1.0  0.42763  0.79671  0.32500  1.0000
  H   H1003     1.0  0.99444  0.74759  0.48310  1.0000
  H   H1004     1.0  0.39211  0.95562  0.34747  1.0000
  H   H1005     1.0  0.43215  0.95698  0.40176  1.0000
  C   C846      1.0  0.15354  0.77342  0.61702  1.0000
  C   C847      1.0  0.13484  0.77038  0.61719  1.0000
  S   S260      1.0  0.22003  0.74558  0.43379  1.0000
  H   H1006     1.0  0.23650  0.73975  0.34589  1.0000
  H   H1007     1.0  0.16563  0.76715  0.60753  1.0000
  H   H1008     1.0  0.13275  0.76161  0.60802  1.0000
  H   H1009     1.0  0.43414  0.83105  0.37005  1.0000
  H   H1010     1.0  0.35908  0.82939  0.53241  1.0000
  H   H1011     1.0  0.30042  0.77295  0.36822  1.0000
  H   H1012     1.0  0.30314  0.93569  0.49921  1.0000
  H   H1013     1.0  0.08584  0.77688  0.50263  1.0000
  H   H1014     1.0  0.21713  0.80851  0.61388  1.0000
  H   H1015     1.0  0.35292  0.97284  0.63591  1.0000
  H   H1016     1.0  0.35732  0.80463  0.53964  1.0000
  C   C848      1.0  0.35010  0.81929  0.54176  1.0000
  S   S261      1.0  0.08946  0.76951  0.54186  1.0000
  H   H1017     1.0  0.28821  0.77892  0.39069  1.0000
  C   C849      1.0  0.00938  0.76452  0.55085  1.0000
  N   N55       1.0  0.14332  0.78871  0.55218  1.0000
  C   C850      1.0  0.15611  0.79955  0.55730  1.0000
  C   C851      1.0  0.12382  0.79359  0.56346  1.0000
  C   C852      1.0  0.15030  0.76806  0.55791  1.0000
  C   C853      1.0  0.14365  0.79288  0.53149  1.0000
  C   C854      1.0  0.12660  0.79768  0.52345  1.0000
  C   C855      1.0  0.16143  0.79096  0.51870  1.0000
  C   C856      1.0  0.12743  0.80017  0.50391  1.0000
  C   C857      1.0  0.16210  0.79351  0.49917  1.0000
  C   C858      1.0  0.14512  0.79811  0.49181  1.0000
  H   H1018     1.0  0.15244  0.81505  0.55170  1.0000
  H   H1019     1.0  0.15501  0.79770  0.57292  1.0000
  H   H1020     1.0  0.17159  0.79471  0.55186  1.0000
  H   H1021     1.0  0.11761  0.80891  0.55949  1.0000
  H   H1022     1.0  0.12405  0.79081  0.57893  1.0000
  H   H1023     1.0  0.11370  0.78485  0.56159  1.0000
  H   H1024     1.0  0.16531  0.76354  0.55076  1.0000
  H   H1025     1.0  0.15032  0.76412  0.57340  1.0000
  H   H1026     1.0  0.14114  0.75941  0.55419  1.0000
  H   H1027     1.0  0.11238  0.79930  0.53192  1.0000
  H   H1028     1.0  0.17496  0.78710  0.52377  1.0000
  H   H1029     1.0  0.11424  0.80348  0.49814  1.0000
  H   H1030     1.0  0.17582  0.79165  0.48964  1.0000
  H   H1031     1.0  0.14568  0.79995  0.47667  1.0000
  N   N56       1.0  0.27874  0.79873  0.36686  1.0000
  H   H1032     1.0  0.10722  0.75370  0.37469  1.0000
  C   C859      1.0  0.28633  0.77911  0.37601  1.0000
  C   C860      1.0  0.25808  0.80326  0.37541  1.0000
  H   H1033     1.0  0.31065  0.93276  0.56049  1.0000
  H   H1034     1.0  0.34800  0.96182  0.53924  1.0000
  C   C861      1.0  0.29034  0.81234  0.36905  1.0000
  H   H1035     1.0  0.31146  0.97941  0.56790  1.0000
  H   H1036     1.0  0.43819  0.92851  0.38785  1.0000
  C   C862      1.0  0.04525  0.73352  0.52604  1.0000
  Fe  Fe134     1.0  0.23584  0.74017  0.60641  1.0000
  H   H1037     1.0  0.05201  0.77867  0.53031  1.0000
  H   H1038     1.0  0.19504  0.73778  0.36211  1.0000
  C   C863      1.0  0.32838  0.97675  0.60095  1.0000
  H   H1039     1.0  0.34053  0.97455  0.37272  1.0000
  H   H1040     1.0  0.25634  0.80387  0.39068  1.0000
  H   H1041     1.0  0.25078  0.81706  0.36817  1.0000
  H   H1042     1.0  0.17242  0.73994  0.41177  1.0000
  H   H1043     1.0  0.35905  0.96892  0.44298  1.0000
  H   H1044     1.0  0.35271  0.93139  0.37273  1.0000
  H   H1045     1.0  0.28670  0.85480  0.38378  1.0000
  H   H1046     1.0  0.29487  0.79470  0.33927  1.0000
  C   C864      1.0  0.08961  0.76164  0.50707  1.0000
  H   H1047     1.0  0.27417  0.81336  0.33911  1.0000
  S   S262      1.0  0.34402  0.88642  0.40510  1.0000
  H   H1048     1.0  0.33762  0.81702  0.36422  1.0000
  H   H1049     1.0  0.40262  0.92688  0.56867  1.0000
  Fe  Fe135     1.0  0.47906  0.85188  0.30937  1.0000
  H   H1050     1.0  0.38872  0.96036  0.48706  1.0000
  C   C865      1.0  0.44612  0.97382  0.37718  1.0000
  N   N57       1.0  0.38505  0.93147  0.49970  1.0000
  C   C866      1.0  0.36390  0.93704  0.50108  1.0000
  C   C867      1.0  0.39012  0.93043  0.51846  1.0000
  C   C868      1.0  0.38516  0.91573  0.53376  1.0000
  C   C869      1.0  0.39936  0.94416  0.52236  1.0000
  C   C870      1.0  0.38997  0.91435  0.55150  1.0000
  C   C871      1.0  0.40362  0.94295  0.54032  1.0000
  C   C872      1.0  0.39911  0.92796  0.55481  1.0000
  H   H1051     1.0  0.35879  0.95136  0.50508  1.0000
  H   H1052     1.0  0.35610  0.92697  0.51197  1.0000
  H   H1053     1.0  0.38322  0.90167  0.50264  1.0000
  H   H1054     1.0  0.37741  0.90521  0.53223  1.0000
  H   H1055     1.0  0.40320  0.95619  0.51187  1.0000
  C   C873      1.0  0.03412  0.75209  0.52651  1.0000
  S   S263      1.0  0.06858  0.74439  0.40930  1.0000
  C   C874      1.0  0.11735  0.75131  0.33864  1.0000
  N   N58       1.0  0.33004  0.82334  0.53809  1.0000
  C   C875      1.0  0.32181  0.84358  0.53931  1.0000
  C   C876      1.0  0.31878  0.81127  0.55353  1.0000
  C   C877      1.0  0.32985  0.81999  0.51895  1.0000
  C   C878      1.0  0.34150  0.82895  0.50288  1.0000
  C   C879      1.0  0.31797  0.80826  0.51556  1.0000
  C   C880      1.0  0.34168  0.82605  0.48467  1.0000
  C   C881      1.0  0.31816  0.80555  0.49722  1.0000
  C   C882      1.0  0.32998  0.81445  0.48180  1.0000
  H   H1056     1.0  0.33009  0.85354  0.52870  1.0000
  H   H1057     1.0  0.32179  0.84679  0.55348  1.0000
  H   H1058     1.0  0.30669  0.84724  0.53678  1.0000
  H   H1059     1.0  0.32413  0.79583  0.55328  1.0000
  H   H1060     1.0  0.31977  0.81360  0.56776  1.0000
  H   H1061     1.0  0.30316  0.81456  0.55272  1.0000
  H   H1062     1.0  0.35061  0.83836  0.50419  1.0000
  H   H1063     1.0  0.30843  0.80100  0.52681  1.0000
  H   H1064     1.0  0.35101  0.83288  0.47269  1.0000
  H   H1065     1.0  0.30918  0.79643  0.49495  1.0000
  H   H1066     1.0  0.33014  0.81241  0.46756  1.0000
  N   N59       1.0  0.26100  0.79695  0.48259  1.0000
  C   C883      1.0  0.23969  0.79947  0.48766  1.0000
  C   C884      1.0  0.26667  0.81600  0.47632  1.0000
  C   C885      1.0  0.26688  0.78689  0.46618  1.0000
  C   C886      1.0  0.26972  0.78662  0.49924  1.0000
  C   C887      1.0  0.26484  0.79395  0.51636  1.0000
  C   C888      1.0  0.28301  0.76912  0.49914  1.0000
  C   C889      1.0  0.27229  0.78414  0.53249  1.0000
  C   C890      1.0  0.29050  0.75951  0.51535  1.0000
  C   C891      1.0  0.28504  0.76693  0.53202  1.0000
  H   H1067     1.0  0.23372  0.80830  0.49882  1.0000
  H   H1068     1.0  0.23266  0.80674  0.47528  1.0000
  H   H1069     1.0  0.23491  0.78544  0.49292  1.0000
  H   H1070     1.0  0.28258  0.81478  0.47204  1.0000
  H   H1071     1.0  0.26192  0.82495  0.48749  1.0000
  H   H1072     1.0  0.26016  0.82416  0.46387  1.0000
  H   H1073     1.0  0.28264  0.78542  0.46076  1.0000
  H   H1074     1.0  0.26280  0.77253  0.46981  1.0000
  H   H1075     1.0  0.25964  0.79471  0.45415  1.0000
  H   H1076     1.0  0.25491  0.80719  0.51755  1.0000
  H   H1077     1.0  0.28747  0.76225  0.48690  1.0000
  H   H1078     1.0  0.26788  0.78976  0.54554  1.0000
  H   H1079     1.0  0.30022  0.74596  0.51510  1.0000
  H   H1080     1.0  0.28263  0.78703  0.61171  1.0000
  S   S264      1.0  0.37055  0.89711  0.43161  1.0000
  C   C892      1.0  0.30823  0.94703  0.50309  1.0000
  C   C893      1.0  0.31122  0.96472  0.42955  1.0000
  H   H1081     1.0  0.33342  0.95458  0.39006  1.0000
  C   C894      1.0  0.39124  0.91264  0.49356  1.0000
  H   H1082     1.0  0.30455  0.79953  0.62603  1.0000
  H   H1083     1.0  0.40684  0.90724  0.49374  1.0000
  C   C895      1.0  0.24957  0.74086  0.50958  1.0000
  S   S265      1.0  0.06442  0.76713  0.59408  1.0000
  C   C896      1.0  0.31337  0.83723  0.37421  1.0000
  H   H1084     1.0  0.44492  0.87859  0.32584  1.0000
  C   C897      1.0  0.36903  0.93990  0.39825  1.0000
  S   S266      1.0  0.30257  0.92993  0.62140  1.0000
  C   C898      1.0  0.27983  0.79889  0.34649  1.0000
  C   C899      1.0  0.32064  0.97640  0.49396  1.0000
  N   N60       1.0  0.45855  0.92363  0.35132  1.0000
  Fe  Fe136     1.0  0.33931  0.89922  0.43134  1.0000
  H   H1085     1.0  0.33714  0.94627  0.60225  1.0000
  H   H1086     1.0  0.35986  0.94976  0.35358  1.0000
  H   H1087     1.0  0.41059  0.83706  0.30626  1.0000
  C   C900      1.0  0.45376  0.94079  0.36032  1.0000
  C   C901      1.0  0.09799  0.73452  0.53110  1.0000
  C   C902      1.0  0.31075  0.80845  0.36435  1.0000
  S   S267      1.0  0.09524  0.77538  0.63043  1.0000
  H   H1088     1.0  0.30494  0.93438  0.53201  1.0000
  C   C903      1.0  0.40472  0.97815  0.35057  1.0000
  C   C904      1.0  0.42711  0.79902  0.30962  1.0000
  H   H1089     1.0  0.24602  0.74680  0.53781  1.0000
  H   H1090     1.0  0.27124  0.78876  0.34432  1.0000
  Fe  Fe137     1.0  0.05083  0.74131  0.43858  1.0000
  S   S268      1.0  0.45974  0.83801  0.33452  1.0000
  C   C905      1.0  0.29339  0.84194  0.37811  1.0000
  C   C906      1.0  0.37833  0.96595  0.37395  1.0000
  C   C907      1.0  0.30721  0.95343  0.61451  1.0000
  H   H1091     1.0  0.30603  0.94898  0.57621  1.0000
  H   H1092     1.0  0.24985  0.79233  0.37438  1.0000
  H   H1093     1.0  0.43302  0.93119  0.33878  1.0000
  C   C908      1.0  0.45942  0.95818  0.35018  1.0000
  H   H1094     1.0  0.35088  0.93679  0.44499  1.0000
  H   H1095     1.0  0.45195  0.91461  0.32766  1.0000
  C   C909      1.0  0.32538  0.95766  0.60547  1.0000
  N   N61       1.0  0.31777  0.96056  0.54734  1.0000
  C   C910      1.0  0.09277  0.75419  0.52558  1.0000
  H   H1096     1.0  0.16832  0.76385  0.36990  1.0000
  H   H1097     1.0  0.29027  0.95213  0.55951  1.0000
  C   C911      1.0  0.31385  0.96195  0.48911  1.0000
  H   H1098     1.0  0.38326  0.93049  0.39537  1.0000
  C   C912      1.0  0.00504  0.76269  0.41614  1.0000
  H   H1099     1.0  0.45389  0.93906  0.32357  1.0000
  C   C913      1.0  0.29212  0.96829  0.61867  1.0000
  H   H1100     1.0  0.01872  0.76747  0.41129  1.0000
  C   C914      1.0  0.32398  0.94812  0.43507  1.0000
  C   C915      1.0  0.34110  0.94959  0.44038  1.0000
  H   H1101     1.0  0.26658  0.83402  0.37965  1.0000
  C   C916      1.0  0.23898  0.74749  0.52604  1.0000
  H   H1102     1.0  0.03587  0.78692  0.55021  1.0000
  H   H1103     1.0  0.45845  0.80821  0.31530  1.0000
  C   C917      1.0  0.00811  0.74320  0.60532  1.0000
  H   H1104     1.0  0.41041  0.95378  0.54300  1.0000
  S   S269      1.0  0.24179  0.75352  0.37799  1.0000
  N   N62       1.0  0.12279  0.73577  0.35420  1.0000
  C   C918      1.0  0.45569  0.97438  0.35857  1.0000
  H   H1105     1.0  0.13560  0.76310  0.36659  1.0000
  H   H1106     1.0  0.01802  0.77571  0.50927  1.0000
  H   H1107     1.0  0.45942  0.90261  0.37693  1.0000
  C   C919      1.0  0.30560  0.94811  0.56136  1.0000
  H   H1108     1.0  0.34056  0.95276  0.56378  1.0000
  C   C920      1.0  0.02655  0.76158  0.50998  1.0000
  H   H1109     1.0  0.26474  0.73498  0.50875  1.0000
  C   C921      1.0  0.44348  0.94088  0.37913  1.0000
  C   C922      1.0  0.14681  0.75136  0.36291  1.0000
  C   C923      1.0  0.31576  0.96123  0.52753  1.0000
  C   C924      1.0  0.28194  0.82973  0.37566  1.0000
  H   H1110     1.0  0.15389  0.73598  0.45037  1.0000
  H   H1111     1.0  0.21387  0.75023  0.48359  1.0000
  C   C925      1.0  0.45254  0.90637  0.36413  1.0000
  H   H1112     1.0  0.02793  0.79070  0.52817  1.0000
  H   H1113     1.0  0.37758  0.93114  0.36396  1.0000
  C   C926      1.0  0.03674  0.78024  0.53770  1.0000
  S   S270      1.0  0.11066  0.74821  0.58828  1.0000
  H   H1114     1.0  0.31302  0.96229  0.47448  1.0000
  H   H1115     1.0  0.27656  0.76892  0.37677  1.0000
  H   H1116     1.0  0.08858  0.75518  0.48012  1.0000
  C   C927      1.0  0.18061  0.73734  0.36040  1.0000
  H   H1117     1.0  0.14135  0.73548  0.40623  1.0000
  H   H1118     1.0  0.13132  0.73206  0.46518  1.0000
  C   C928      1.0  0.41499  0.88979  0.63117  1.0000
  H   H1119     1.0  0.41466  0.97772  0.33728  1.0000
  H   H1120     1.0  0.42458  0.89526  0.61869  1.0000
  H   H1121     1.0  0.15846  0.74658  0.48082  1.0000
  C   C929      1.0  0.43983  0.95719  0.38735  1.0000
  H   H1122     1.0  0.48751  0.91649  0.35698  1.0000
  C   C930      1.0  0.44891  0.92732  0.33467  1.0000
  H   H1123     1.0  0.35880  0.95648  0.62003  1.0000
  C   C931      1.0  0.33812  0.95303  0.54927  1.0000
  H   H1124     1.0  0.34265  0.93826  0.54625  1.0000
  H   H1125     1.0  0.42546  0.82867  0.32421  1.0000
  H   H1126     1.0  0.41466  0.94129  0.60766  1.0000
  N   N63       1.0  0.03032  0.76149  0.54323  1.0000
  H   H1127     1.0  0.27806  0.96517  0.62564  1.0000
  C   C932      1.0  0.22721  0.81689  0.61642  1.0000
  C   C933      1.0  0.41735  0.96944  0.61011  1.0000
  H   H1128     1.0  0.00076  0.77326  0.54022  1.0000
  C   C934      1.0  0.37940  0.97942  0.38492  1.0000
  C   C935      1.0  0.34564  0.96775  0.43941  1.0000
  C   C936      1.0  0.15646  0.78452  0.62921  1.0000
  H   H1129     1.0  0.32214  0.84634  0.37698  1.0000
  C   C937      1.0  0.34449  0.96399  0.38524  1.0000
  H   H1130     1.0  0.34232  0.98009  0.59387  1.0000
  H   H1131     1.0  0.11772  0.76557  0.34156  1.0000
  S   S271      1.0  0.25426  0.73617  0.47262  1.0000
  H   H1132     1.0  0.41500  0.97570  0.59580  1.0000
  H   H1133     1.0  0.34295  0.97194  0.39690  1.0000
  C   C938      1.0  0.42572  0.83230  0.30865  1.0000
  C   C939      1.0  0.14269  0.73595  0.35638  1.0000
  H   H1134     1.0  0.13624  0.73897  0.49237  1.0000
  C   C940      1.0  0.36208  0.95901  0.63327  1.0000
  H   H1135     1.0  0.38236  0.92326  0.63743  1.0000
  C   C941      1.0  0.10913  0.73895  0.37192  1.0000
  S   S272      1.0  0.17955  0.78840  0.63006  1.0000
  H   H1136     1.0  0.01497  0.73490  0.37627  1.0000
  H   H1137     1.0  0.09447  0.73659  0.37166  1.0000
  H   H1138     1.0  0.20026  0.84767  0.61757  1.0000
  H   H1139     1.0  0.36014  0.92409  0.62996  1.0000
  H   H1140     1.0  0.18987  0.82743  0.62978  1.0000
  H   H1141     1.0  0.02465  0.76081  0.48123  1.0000
  C   C942      1.0  0.03008  0.75315  0.49393  1.0000
  C   C943      1.0  0.15207  0.73396  0.48878  1.0000
  N   N64       1.0  0.21918  0.82598  0.63326  1.0000
  C   C944      1.0  0.19971  0.83691  0.63084  1.0000
  H   H1142     1.0  0.99272  0.77891  0.39202  1.0000
  C   C945      1.0  0.23265  0.83782  0.63533  1.0000
  C   C946      1.0  0.22793  0.85803  0.63336  1.0000
  H   H1143     1.0  0.21411  0.86593  0.63050  1.0000
  C   C947      1.0  0.04086  0.73489  0.49401  1.0000
  H   H1144     1.0  0.99367  0.73338  0.50626  1.0000
  H   H1145     1.0  0.01934  0.73157  0.35213  1.0000
  H   H1146     1.0  0.23752  0.88418  0.63313  1.0000
  C   C948      1.0  0.25955  0.85981  0.63837  1.0000
  C   C949      1.0  0.25144  0.82921  0.63883  1.0000
  H   H1147     1.0  0.11001  0.79594  0.65104  1.0000
  Fe  Fe138     1.0  0.47423  0.76256  0.84478  1.0000
  S   S273      1.0  0.45336  0.78686  0.85586  1.0000
  H   H1148     1.0  0.45011  0.83040  0.71638  1.0000
  S   S274      1.0  0.42036  0.75987  0.86290  1.0000
  Fe  Fe139     1.0  0.43376  0.78065  0.83894  1.0000
  S   S275      1.0  0.41633  0.80404  0.82070  1.0000
  Fe  Fe140     1.0  0.44210  0.76409  0.87874  1.0000
  S   S276      1.0  0.43304  0.76679  0.90953  1.0000
  S   S277      1.0  0.45541  0.75786  0.82619  1.0000
  Fe  Fe141     1.0  0.43522  0.88984  0.69768  1.0000
  S   S278      1.0  0.42507  0.89967  0.72579  1.0000
  S   S279      1.0  0.41210  0.87883  0.68845  1.0000
  Fe  Fe142     1.0  0.47601  0.89679  0.69561  1.0000
  S   S280      1.0  0.46845  0.90713  0.72323  1.0000
  H   H1149     1.0  0.45811  0.79417  0.77342  1.0000
  Fe  Fe143     1.0  0.45281  0.88235  0.73377  1.0000
  S   S281      1.0  0.46196  0.86209  0.75972  1.0000
  Fe  Fe144     1.0  0.44181  0.92335  0.71237  1.0000
  S   S282      1.0  0.42870  0.95419  0.71378  1.0000
  S   S283      1.0  0.46194  0.87097  0.70661  1.0000
  S   S284      1.0  0.45021  0.91462  0.68384  1.0000
  H   H1150     1.0  0.45395  0.75865  0.97025  1.0000
  H   H1151     1.0  0.40012  0.84330  0.71067  1.0000
  N   N65       1.0  0.42024  0.83053  0.72976  1.0000
  H   H1152     1.0  0.44789  0.96167  0.66721  1.0000
  C   C950      1.0  0.43616  0.82887  0.71333  1.0000
  H   H1153     1.0  0.41562  0.86122  0.72512  1.0000
  H   H1154     1.0  0.36696  0.97807  0.69245  1.0000
  N   N66       1.0  0.35861  0.94318  0.64934  1.0000
  H   H1155     1.0  0.40175  0.81810  0.71826  1.0000
  H   H1156     1.0  0.33026  0.95800  0.65977  1.0000
  H   H1157     1.0  0.47385  0.79144  0.89481  1.0000
  C   C951      1.0  0.40201  0.83152  0.72299  1.0000
  C   C952      1.0  0.26455  0.84008  0.64050  1.0000
  H   H1158     1.0  0.43334  0.84026  0.70094  1.0000
  H   H1159     1.0  0.39750  0.92050  0.69608  1.0000
  H   H1160     1.0  0.43316  0.77491  0.78963  1.0000
  C   C953      1.0  0.40740  0.88089  0.66538  1.0000
  H   H1161     1.0  0.45232  0.81961  0.74670  1.0000
  C   C954      1.0  0.44139  0.81086  0.75258  1.0000
  C   C955      1.0  0.39055  0.87540  0.66338  1.0000
  C   C956      1.0  0.47604  0.97959  0.69947  1.0000
  H   H1162     1.0  0.38100  0.86980  0.67581  1.0000
  H   H1163     1.0  0.14276  0.80103  0.65096  1.0000
  C   C957      1.0  0.42891  0.82065  0.80433  1.0000
  C   C958      1.0  0.41880  0.83592  0.79305  1.0000
  C   C959      1.0  0.42864  0.84900  0.77955  1.0000
  C   C960      1.0  0.44870  0.84662  0.77695  1.0000
  C   C961      1.0  0.45876  0.83156  0.78845  1.0000
  C   C962      1.0  0.44892  0.81865  0.80211  1.0000
  H   H1164     1.0  0.40329  0.83767  0.79489  1.0000
  H   H1165     1.0  0.42071  0.86106  0.77139  1.0000
  H   H1166     1.0  0.47426  0.82974  0.78670  1.0000
  H   H1167     1.0  0.45684  0.80698  0.81075  1.0000
  C   C963      1.0  0.45053  0.76060  0.92424  1.0000
  C   C964      1.0  0.44487  0.76217  0.94339  1.0000
  C   C965      1.0  0.45844  0.75726  0.95554  1.0000
  C   C966      1.0  0.47782  0.75103  0.94850  1.0000
  C   C967      1.0  0.14813  0.73306  0.66066  1.0000
  C   C968      1.0  0.46986  0.75400  0.91728  1.0000
  H   H1168     1.0  0.48289  0.80151  0.91042  1.0000
  H   H1169     1.0  0.40239  0.78049  0.77817  1.0000
  C   C969      1.0  0.42385  0.81455  0.74556  1.0000
  H   H1170     1.0  0.47427  0.75250  0.90260  1.0000
  C   C970      1.0  0.38781  0.93226  0.68938  1.0000
  C   C971      1.0  0.46410  0.96577  0.70379  1.0000
  H   H1171     1.0  0.37877  0.74692  0.92560  1.0000
  Fe  Fe145     1.0  0.44383  0.73754  0.85154  1.0000
  H   H1172     1.0  0.38919  0.83455  0.73408  1.0000
  H   H1173     1.0  0.35301  0.97457  0.66622  1.0000
  H   H1174     1.0  0.47029  0.95099  0.70331  1.0000
  C   C972      1.0  0.38000  0.92996  0.67434  1.0000
  H   H1175     1.0  0.33052  0.94219  0.64420  1.0000
  H   H1176     1.0  0.33436  0.93271  0.66799  1.0000
  H   H1177     1.0  0.43300  0.84984  0.73978  1.0000
  C   C973      1.0  0.40989  0.80302  0.75510  1.0000
  C   C974      1.0  0.16535  0.73767  0.66262  1.0000
  C   C975      1.0  0.37322  0.73716  0.91979  1.0000
  S   S285      1.0  0.46469  0.74027  0.86914  1.0000
  C   C976      1.0  0.37057  0.96460  0.68739  1.0000
  C   C977      1.0  0.14066  0.79251  0.64144  1.0000
  C   C978      1.0  0.48244  0.80232  0.89522  1.0000
  H   H1178     1.0  0.45897  0.97495  0.64560  1.0000
  C   C979      1.0  0.38587  0.87719  0.64539  1.0000
  C   C980      1.0  0.41967  0.88804  0.64921  1.0000
  C   C981      1.0  0.41340  0.78877  0.77069  1.0000
  C   C982      1.0  0.36724  0.94509  0.66526  1.0000
  H   H1179     1.0  0.37286  0.87287  0.64408  1.0000
  H   H1180     1.0  0.25632  0.81401  0.63993  1.0000
  H   H1181     1.0  0.39598  0.80495  0.75111  1.0000
  H   H1182     1.0  0.40782  0.85011  0.74892  1.0000
  H   H1183     1.0  0.21168  0.81699  0.66333  1.0000
  H   H1184     1.0  0.23016  0.80040  0.65180  1.0000
  H   H1185     1.0  0.43281  0.89207  0.65057  1.0000
  H   H1186     1.0  0.38917  0.95118  0.70764  1.0000
  H   H1187     1.0  0.47409  0.81638  0.88975  1.0000
  H   H1188     1.0  0.42566  0.94648  0.66094  1.0000
  H   H1189     1.0  0.20589  0.80221  0.64937  1.0000
  H   H1190     1.0  0.42993  0.76730  0.94883  1.0000
  H   H1191     1.0  0.38417  0.91615  0.67018  1.0000
  C   C983      1.0  0.38307  0.94951  0.69593  1.0000
  H   H1192     1.0  0.43818  0.81487  0.70880  1.0000
  C   C984      1.0  0.36649  0.92498  0.64223  1.0000
  C   C985      1.0  0.43080  0.78550  0.77713  1.0000
  H   H1193     1.0  0.27888  0.83321  0.64308  1.0000
  H   H1194     1.0  0.13871  0.74391  0.65275  1.0000
  C   C986      1.0  0.44483  0.79639  0.76798  1.0000
  C   C987      1.0  0.41916  0.84869  0.73617  1.0000
  H   H1195     1.0  0.36313  0.91246  0.65319  1.0000
  C   C988      1.0  0.21666  0.81080  0.65018  1.0000
  C   C989      1.0  0.36272  0.96247  0.67231  1.0000
  H   H1196     1.0  0.48880  0.88476  0.76472  1.0000
  H   H1197     1.0  0.41403  0.96936  0.67900  1.0000
  C   C990      1.0  0.42417  0.97300  0.64041  1.0000
  C   C991      1.0  0.12209  0.78959  0.64152  1.0000
  C   C992      1.0  0.44416  0.97109  0.70876  1.0000
  H   H1198     1.0  0.16876  0.75171  0.65640  1.0000
  C   C993      1.0  0.48350  0.74937  0.92937  1.0000
  C   C994      1.0  0.42343  0.95334  0.64682  1.0000
  C   C995      1.0  0.33756  0.94409  0.65560  1.0000
  H   H1199     1.0  0.10849  0.73922  0.66522  1.0000
  C   C996      1.0  0.37725  0.73731  0.90039  1.0000
  C   C997      1.0  0.44756  0.97612  0.65834  1.0000
  H   H1200     1.0  0.19278  0.84413  0.64309  1.0000
  H   H1201     1.0  0.40694  0.73199  0.84012  1.0000
  H   H1202     1.0  0.41971  0.92712  0.64035  1.0000
  H   H1203     1.0  0.38592  0.74723  0.89118  1.0000
  H   H1204     1.0  0.26998  0.86816  0.63928  1.0000
  H   H1205     1.0  0.49124  0.78782  0.86394  1.0000
  C   C998      1.0  0.51532  0.12960  0.27867  1.0000
  C   C999      1.0  0.51953  0.08947  0.28364  1.0000
  H   H1206     1.0  0.68632  0.12980  0.28601  1.0000
  H   H1207     1.0  0.62444  0.21299  0.26105  1.0000
  C   C1000     1.0  0.52475  0.10028  0.26583  1.0000
  Fe  Fe146     1.0  0.65868  0.22423  0.28809  1.0000
  Fe  Fe147     1.0  0.50198  0.17647  0.29297  1.0000
  H   H1208     1.0  0.56944  0.11162  0.29448  1.0000
  C   C1001     1.0  0.56620  0.02937  0.27525  1.0000
  C   C1002     1.0  0.58172  0.01782  0.28376  1.0000
  N   N67       1.0  0.59477  0.22678  0.26773  1.0000
  H   H1209     1.0  0.60924  0.21093  0.24553  1.0000
  H   H1210     1.0  0.60434  0.05262  0.29003  1.0000
  C   C1003     1.0  0.59071  0.20952  0.28178  1.0000
  C   C1004     1.0  0.58258  0.99777  0.28699  1.0000
  H   H1211     1.0  0.57978  0.21291  0.29426  1.0000
  H   H1212     1.0  0.53024  0.09331  0.25369  1.0000
  S   S286      1.0  0.49427  0.02209  0.30526  1.0000
  S   S287      1.0  0.52020  0.19865  0.29052  1.0000
  C   C1005     1.0  0.55229  0.14637  0.30218  1.0000
  H   H1213     1.0  0.57902  0.05329  0.29361  1.0000
  N   N68       1.0  0.59622  0.02589  0.28962  1.0000
  S   S288      1.0  0.52208  0.06459  0.28476  1.0000
  S   S289      1.0  0.68299  0.09050  0.30058  1.0000
  H   H1214     1.0  0.58544  0.19958  0.27533  1.0000
  C   C1006     1.0  0.55242  0.02125  0.27048  1.0000
  C   C1007     1.0  0.56859  0.98984  0.28234  1.0000
  S   S290      1.0  0.68152  0.20793  0.30517  1.0000
  S   S291      1.0  0.64998  0.05471  0.29980  1.0000
  Fe  Fe148     1.0  0.49238  0.21957  0.29338  1.0000
  C   C1008     1.0  0.55353  0.00156  0.27412  1.0000
  C   C1009     1.0  0.51037  0.11891  0.29679  1.0000
  H   H1215     1.0  0.59357  0.05279  0.27029  1.0000
  S   S292      1.0  0.51214  0.15482  0.27352  1.0000
  C   C1010     1.0  0.51247  0.09877  0.29928  1.0000
  H   H1216     1.0  0.53754  0.14369  0.30275  1.0000
  H   H1217     1.0  0.62708  0.02447  0.28389  1.0000
  H   H1218     1.0  0.60372  0.20161  0.28769  1.0000
  H   H1219     1.0  0.54042  0.03041  0.26452  1.0000
  H   H1220     1.0  0.54242  0.99539  0.27102  1.0000
  C   C1011     1.0  0.52264  0.12009  0.26338  1.0000
  H   H1221     1.0  0.56397  0.04476  0.27260  1.0000
  H   H1222     1.0  0.61969  0.00319  0.28231  1.0000
  C   C1012     1.0  0.59306  0.04706  0.28564  1.0000
  C   C1013     1.0  0.61573  0.01896  0.27953  1.0000
  H   H1223     1.0  0.52649  0.12815  0.24937  1.0000
  C   C1014     1.0  0.61211  0.22072  0.25389  1.0000
  H   H1224     1.0  0.61676  0.02351  0.26395  1.0000
  H   H1225     1.0  0.59389  0.98807  0.29348  1.0000
  H   H1226     1.0  0.67785  0.15859  0.30121  1.0000
  S   S293      1.0  0.67528  0.00123  0.29517  1.0000
  C   C1015     1.0  0.67984  0.12865  0.30082  1.0000
  H   H1227     1.0  0.55953  0.14781  0.28711  1.0000
  S   S294      1.0  0.63667  0.20656  0.30481  1.0000
  C   C1016     1.0  0.66094  0.98391  0.29754  1.0000
  H   H1228     1.0  0.63085  0.11215  0.30441  1.0000
  Fe  Fe149     1.0  0.76165  0.09381  0.58327  1.0000
  S   S295      1.0  0.73802  0.11573  0.57240  1.0000
  S   S296      1.0  0.79090  0.10147  0.57971  1.0000
  H   H1229     1.0  0.82387  0.11906  0.56841  1.0000
  S   S297      1.0  0.69528  0.12127  0.61395  1.0000
  Fe  Fe150     1.0  0.73323  0.09287  0.55887  1.0000
  S   S298      1.0  0.72555  0.10181  0.52981  1.0000
  C   C1017     1.0  0.66476  0.17531  0.38327  1.0000
  Fe  Fe151     1.0  0.78159  0.20945  0.58539  1.0000
  S   S299      1.0  0.75028  0.20789  0.59391  1.0000
  S   S300      1.0  0.80433  0.18557  0.57566  1.0000
  H   H1230     1.0  0.73175  0.03246  0.50392  1.0000
  C   C1018     1.0  0.73882  0.99521  0.60185  1.0000
  Fe  Fe152     1.0  0.51458  0.19214  0.32215  1.0000
  H   H1231     1.0  0.75841  0.20918  0.55001  1.0000
  H   H1232     1.0  0.60026  0.03602  0.35743  1.0000
  C   C1019     1.0  0.70958  0.14064  0.35707  1.0000
  C   C1020     1.0  0.72930  0.12157  0.37928  1.0000
  H   H1233     1.0  0.57502  0.16300  0.31841  1.0000
  H   H1234     1.0  0.70058  0.20720  0.56887  1.0000
  C   C1021     1.0  0.73592  0.04766  0.35208  1.0000
  S   S301      1.0  0.54012  0.18436  0.33713  1.0000
  H   H1235     1.0  0.68816  0.18215  0.60584  1.0000
  H   H1236     1.0  0.83562  0.20268  0.37670  1.0000
  H   H1237     1.0  0.82976  0.21812  0.42314  1.0000
  H   H1238     1.0  0.75899  0.07009  0.35063  1.0000
  C   C1022     1.0  0.56341  0.05804  0.33399  1.0000
  H   H1239     1.0  0.67657  0.18471  0.58578  1.0000
  Fe  Fe153     1.0  0.77938  0.19728  0.41981  1.0000
  S   S302      1.0  0.80154  0.17883  0.40187  1.0000
  S   S303      1.0  0.66146  0.16301  0.34024  1.0000
  Fe  Fe154     1.0  0.73764  0.21614  0.42593  1.0000
  S   S304      1.0  0.75342  0.18795  0.43889  1.0000
  S   S305      1.0  0.76350  0.22464  0.40555  1.0000
  Fe  Fe155     1.0  0.73191  0.06895  0.41569  1.0000
  S   S306      1.0  0.75519  0.06529  0.39068  1.0000
  S   S307      1.0  0.70232  0.08098  0.40914  1.0000
  Fe  Fe156     1.0  0.75968  0.05624  0.44307  1.0000
  S   S308      1.0  0.78524  0.05223  0.42001  1.0000
  S   S309      1.0  0.76557  0.04610  0.47267  1.0000
  Fe  Fe157     1.0  0.77115  0.07993  0.40459  1.0000
  S   S310      1.0  0.78660  0.10220  0.38477  1.0000
  Fe  Fe158     1.0  0.76678  0.03802  0.40846  1.0000
  S   S311      1.0  0.74710  0.08534  0.42865  1.0000
  S   S312      1.0  0.74200  0.04032  0.43256  1.0000
  H   H1240     1.0  0.72632  0.12787  0.31295  1.0000
  H   H1241     1.0  0.69901  0.14175  0.34821  1.0000
  H   H1242     1.0  0.69745  0.14385  0.57609  1.0000
  H   H1243     1.0  0.72427  0.04314  0.32223  1.0000
  H   H1244     1.0  0.67123  0.22212  0.36817  1.0000
  C   C1023     1.0  0.58178  0.05391  0.33871  1.0000
  Fe  Fe159     1.0  0.62814  0.22937  0.32245  1.0000
  H   H1245     1.0  0.72033  0.13866  0.43791  1.0000
  H   H1246     1.0  0.74074  0.00764  0.40647  1.0000
  C   C1024     1.0  0.69755  0.03243  0.39378  1.0000
  C   C1025     1.0  0.70429  0.04574  0.40073  1.0000
  C   C1026     1.0  0.69380  0.06424  0.40065  1.0000
  C   C1027     1.0  0.67669  0.06951  0.39329  1.0000
  H   H1247     1.0  0.70566  0.01811  0.39399  1.0000
  H   H1248     1.0  0.71757  0.04162  0.40621  1.0000
  C   C1028     1.0  0.66362  0.12564  0.33911  1.0000
  C   C1029     1.0  0.79680  0.15718  0.39846  1.0000
  C   C1030     1.0  0.80821  0.14905  0.38333  1.0000
  C   C1031     1.0  0.80500  0.13207  0.37966  1.0000
  C   C1032     1.0  0.79068  0.12264  0.39136  1.0000
  C   C1033     1.0  0.77934  0.13048  0.40683  1.0000
  C   C1034     1.0  0.78223  0.14793  0.41021  1.0000
  H   H1249     1.0  0.81950  0.15602  0.37422  1.0000
  H   H1250     1.0  0.81376  0.12615  0.36768  1.0000
  H   H1251     1.0  0.76816  0.12332  0.41588  1.0000
  H   H1252     1.0  0.77334  0.15407  0.42195  1.0000
  H   H1253     1.0  0.71427  0.09819  0.31763  1.0000
  Fe  Fe160     1.0  0.62971  0.05308  0.32755  1.0000
  H   H1254     1.0  0.57866  0.17939  0.34361  1.0000
  C   C1035     1.0  0.75109  0.08231  0.34268  1.0000
  H   H1255     1.0  0.70826  0.15133  0.51593  1.0000
  H   H1256     1.0  0.72127  0.06726  0.31011  1.0000
  H   H1257     1.0  0.79534  0.99613  0.46933  1.0000
  C   C1036     1.0  0.73705  0.13747  0.37959  1.0000
  H   H1258     1.0  0.80576  0.21815  0.39270  1.0000
  C   C1037     1.0  0.55388  0.13068  0.33436  1.0000
  C   C1038     1.0  0.76291  0.98210  0.57730  1.0000
  C   C1039     1.0  0.65844  0.14343  0.38981  1.0000
  C   C1040     1.0  0.75949  0.01538  0.58017  1.0000
  H   H1259     1.0  0.76978  0.00544  0.47434  1.0000
  H   H1260     1.0  0.77000  0.10007  0.34612  1.0000
  C   C1041     1.0  0.66804  0.10953  0.33049  1.0000
  C   C1042     1.0  0.71550  0.12317  0.36815  1.0000
  C   C1043     1.0  0.71727  0.15665  0.35722  1.0000
  S   S313      1.0  0.67306  0.02130  0.37647  1.0000
  S   S314      1.0  0.64775  0.21446  0.34309  1.0000
  H   H1261     1.0  0.73017  0.00270  0.56089  1.0000
  Fe  Fe161     1.0  0.51513  0.99787  0.31823  1.0000
  S   S315      1.0  0.64713  0.06557  0.34194  1.0000
  H   H1262     1.0  0.65697  0.06044  0.38024  1.0000
  H   H1263     1.0  0.72008  0.14934  0.59359  1.0000
  H   H1264     1.0  0.71025  0.20176  0.59026  1.0000
  C   C1044     1.0  0.73705  0.08656  0.51379  1.0000
  C   C1045     1.0  0.73181  0.08993  0.49594  1.0000
  C   C1046     1.0  0.74069  0.07768  0.48306  1.0000
  C   C1047     1.0  0.75501  0.06226  0.48793  1.0000
  C   C1048     1.0  0.76051  0.05913  0.50560  1.0000
  C   C1049     1.0  0.75139  0.07113  0.51859  1.0000
  H   H1265     1.0  0.72069  0.10185  0.49218  1.0000
  H   H1266     1.0  0.73621  0.08004  0.46953  1.0000
  H   H1267     1.0  0.77182  0.04737  0.50927  1.0000
  H   H1268     1.0  0.75558  0.06845  0.53221  1.0000
  C   C1050     1.0  0.79334  0.12530  0.57836  1.0000
  C   C1051     1.0  0.77771  0.13952  0.58336  1.0000
  C   C1052     1.0  0.78070  0.15823  0.58258  1.0000
  C   C1053     1.0  0.79928  0.16269  0.57664  1.0000
  C   C1054     1.0  0.81466  0.14850  0.57130  1.0000
  C   C1055     1.0  0.81173  0.12995  0.57224  1.0000
  H   H1269     1.0  0.76352  0.13593  0.58836  1.0000
  H   H1270     1.0  0.76878  0.16906  0.58683  1.0000
  H   H1271     1.0  0.82903  0.15179  0.56674  1.0000
  H   H1272     1.0  0.73439  0.05186  0.36609  1.0000
  H   H1273     1.0  0.74768  0.13541  0.38850  1.0000
  N   N69       1.0  0.72678  0.06346  0.33858  1.0000
  Fe  Fe162     1.0  0.65821  0.19302  0.32370  1.0000
  H   H1274     1.0  0.70257  0.17195  0.43363  1.0000
  N   N70       1.0  0.73983  0.17212  0.36917  1.0000
  C   C1056     1.0  0.73552  0.17614  0.38872  1.0000
  C   C1057     1.0  0.76104  0.16783  0.36323  1.0000
  C   C1058     1.0  0.73254  0.18985  0.35661  1.0000
  C   C1059     1.0  0.73128  0.15554  0.36860  1.0000
  S   S316      1.0  0.53538  0.01698  0.31896  1.0000
  H   H1275     1.0  0.58092  0.02384  0.31827  1.0000
  C   C1060     1.0  0.70509  0.22219  0.39432  1.0000
  C   C1061     1.0  0.71115  0.19685  0.57672  1.0000
  N   N71       1.0  0.70744  0.17705  0.57984  1.0000
  H   H1276     1.0  0.74168  0.16404  0.39897  1.0000
  N   N72       1.0  0.56340  0.13088  0.31437  1.0000
  H   H1277     1.0  0.73018  0.22312  0.49155  1.0000
  H   H1278     1.0  0.76791  0.15563  0.37286  1.0000
  H   H1279     1.0  0.76797  0.18008  0.36324  1.0000
  H   H1280     1.0  0.76496  0.16420  0.34880  1.0000
  H   H1281     1.0  0.71673  0.19442  0.36075  1.0000
  H   H1282     1.0  0.73925  0.20201  0.35737  1.0000
  H   H1283     1.0  0.73575  0.18817  0.34151  1.0000
  H   H1284     1.0  0.79622  0.98796  0.43155  1.0000
  S   S317      1.0  0.49819  0.16854  0.32436  1.0000
  C   C1062     1.0  0.72307  0.01405  0.55066  1.0000
  Fe  Fe163     1.0  0.66831  0.06540  0.31486  1.0000
  H   H1285     1.0  0.75145  0.04298  0.34663  1.0000
  N   N73       1.0  0.77687  0.12932  0.51673  1.0000
  C   C1063     1.0  0.79081  0.14062  0.51904  1.0000
  C   C1064     1.0  0.75721  0.14058  0.52016  1.0000
  C   C1065     1.0  0.77787  0.11200  0.53166  1.0000
  C   C1066     1.0  0.78094  0.12498  0.49732  1.0000
  C   C1067     1.0  0.78332  0.13971  0.48134  1.0000
  C   C1068     1.0  0.78167  0.10645  0.49364  1.0000
  C   C1069     1.0  0.78676  0.13605  0.46290  1.0000
  C   C1070     1.0  0.78488  0.10297  0.47514  1.0000
  C   C1071     1.0  0.78754  0.11770  0.45980  1.0000
  H   H1286     1.0  0.78890  0.15529  0.51062  1.0000
  H   H1287     1.0  0.78910  0.14256  0.53400  1.0000
  H   H1288     1.0  0.80590  0.13345  0.51485  1.0000
  H   H1289     1.0  0.75563  0.15429  0.51008  1.0000
  H   H1290     1.0  0.75333  0.14405  0.53468  1.0000
  H   H1291     1.0  0.74632  0.13263  0.51848  1.0000
  H   H1292     1.0  0.79216  0.10252  0.52959  1.0000
  H   H1293     1.0  0.77574  0.11567  0.54597  1.0000
  H   H1294     1.0  0.76636  0.10379  0.53229  1.0000
  H   H1295     1.0  0.78230  0.15426  0.48295  1.0000
  H   H1296     1.0  0.77964  0.09441  0.50480  1.0000
  H   H1297     1.0  0.78869  0.14755  0.45095  1.0000
  H   H1298     1.0  0.78519  0.08874  0.47270  1.0000
  H   H1299     1.0  0.79012  0.11491  0.44549  1.0000
  N   N74       1.0  0.73202  0.01290  0.53065  1.0000
  C   C1072     1.0  0.68826  0.21890  0.38988  1.0000
  C   C1073     1.0  0.75304  0.01194  0.52851  1.0000
  C   C1074     1.0  0.72408  0.03094  0.51885  1.0000
  C   C1075     1.0  0.72857  0.99560  0.52532  1.0000
  C   C1076     1.0  0.59986  0.11995  0.30826  1.0000
  C   C1077     1.0  0.72285  0.99588  0.50788  1.0000
  H   H1300     1.0  0.69149  0.03023  0.63086  1.0000
  H   H1301     1.0  0.56004  0.06924  0.32231  1.0000
  H   H1302     1.0  0.72589  0.19805  0.56875  1.0000
  H   H1303     1.0  0.85818  0.20887  0.37705  1.0000
  H   H1304     1.0  0.68900  0.99506  0.35063  1.0000
  H   H1305     1.0  0.72727  0.99334  0.61377  1.0000
  H   H1306     1.0  0.82682  0.19933  0.41233  1.0000
  H   H1307     1.0  0.75637  0.02374  0.53398  1.0000
  H   H1308     1.0  0.76016  0.01288  0.51341  1.0000
  H   H1309     1.0  0.71971  0.17939  0.39376  1.0000
  H   H1310     1.0  0.72574  0.04372  0.52396  1.0000
  C   C1078     1.0  0.73323  0.11515  0.32134  1.0000
  C   C1079     1.0  0.71327  0.18101  0.54386  1.0000
  H   H1311     1.0  0.72048  0.00879  0.49765  1.0000
  S   S318      1.0  0.78251  0.22435  0.60888  1.0000
  H   H1312     1.0  0.74690  0.99318  0.46098  1.0000
  H   H1313     1.0  0.50852  0.09053  0.31315  1.0000
  H   H1314     1.0  0.54713  0.11071  0.31056  1.0000
  C   C1080     1.0  0.67794  0.15304  0.40903  1.0000
  H   H1315     1.0  0.72427  0.02762  0.55461  1.0000
  H   H1316     1.0  0.60564  0.02634  0.31549  1.0000
  C   C1081     1.0  0.68592  0.10735  0.63504  1.0000
  H   H1317     1.0  0.68582  0.16160  0.59807  1.0000
  C   C1082     1.0  0.62128  0.14073  0.30986  1.0000
  H   H1318     1.0  0.64645  0.14839  0.38157  1.0000
  C   C1083     1.0  0.70783  0.15678  0.52864  1.0000
  C   C1084     1.0  0.56229  0.11254  0.30932  1.0000
  C   C1085     1.0  0.55559  0.20086  0.33394  1.0000
  C   C1086     1.0  0.58338  0.13416  0.31218  1.0000
  C   C1087     1.0  0.57417  0.19433  0.33820  1.0000
  Fe  Fe164     1.0  0.75040  0.22525  0.61572  1.0000
  C   C1088     1.0  0.72629  0.09809  0.32425  1.0000
  H   H1319     1.0  0.84193  0.22477  0.36293  1.0000
  C   C1089     1.0  0.54971  0.22029  0.32745  1.0000
  C   C1090     1.0  0.58095  0.22653  0.32965  1.0000
  H   H1320     1.0  0.53875  0.12834  0.33669  1.0000
  C   C1091     1.0  0.61848  0.12329  0.30714  1.0000
  H   H1321     1.0  0.76003  0.99835  0.53640  1.0000
  H   H1322     1.0  0.87091  0.22332  0.39639  1.0000
  H   H1323     1.0  0.69785  0.13250  0.54721  1.0000
  C   C1092     1.0  0.72944  0.05686  0.32034  1.0000
  C   C1093     1.0  0.83519  0.21095  0.41066  1.0000
  C   C1094     1.0  0.84274  0.21486  0.37666  1.0000
  C   C1095     1.0  0.70590  0.06717  0.34642  1.0000
  H   H1324     1.0  0.72420  0.16893  0.60228  1.0000
  H   H1325     1.0  0.71196  0.16969  0.34828  1.0000
  Fe  Fe165     1.0  0.71921  0.10272  0.59803  1.0000
  H   H1326     1.0  0.55325  0.14437  0.33899  1.0000
  H   H1327     1.0  0.66855  0.08381  0.39317  1.0000
  C   C1096     1.0  0.74888  0.11588  0.32927  1.0000
  N   N75       1.0  0.66156  0.15880  0.39863  1.0000
  H   H1328     1.0  0.76082  0.00083  0.43831  1.0000
  C   C1097     1.0  0.67019  0.05633  0.38589  1.0000
  H   H1329     1.0  0.68521  0.12273  0.40636  1.0000
  H   H1330     1.0  0.69969  0.05386  0.35057  1.0000
  H   H1331     1.0  0.73400  0.10792  0.38779  1.0000
  H   H1332     1.0  0.66537  0.18824  0.38861  1.0000
  C   C1098     1.0  0.75211  0.21223  0.53737  1.0000
  S   S319      1.0  0.75850  0.07157  0.56772  1.0000
  H   H1333     1.0  0.75411  0.12916  0.32721  1.0000
  H   H1334     1.0  0.67587  0.18099  0.41633  1.0000
  C   C1099     1.0  0.75927  0.20079  0.52345  1.0000
  H   H1335     1.0  0.56095  0.11781  0.62429  1.0000
  S   S320      1.0  0.71202  0.08190  0.58353  1.0000
  S   S321      1.0  0.74321  0.08235  0.61031  1.0000
  H   H1336     1.0  0.65462  0.13093  0.40057  1.0000
  H   H1337     1.0  0.70754  0.01303  0.55333  1.0000
  C   C1100     1.0  0.75165  0.20491  0.50673  1.0000
  H   H1338     1.0  0.64097  0.15257  0.42391  1.0000
  S   S322      1.0  0.78137  0.01077  0.39772  1.0000
  H   H1339     1.0  0.78054  0.00170  0.55946  1.0000
  S   S323      1.0  0.59930  0.06661  0.32476  1.0000
  H   H1340     1.0  0.74488  0.05474  0.31356  1.0000
  C   C1101     1.0  0.54948  0.04721  0.34389  1.0000
  H   H1341     1.0  0.55008  0.16043  0.30658  1.0000
  C   C1102     1.0  0.74926  0.99363  0.40558  1.0000
  H   H1342     1.0  0.74149  0.18872  0.38969  1.0000
  S   S324      1.0  0.53651  0.01798  0.36975  1.0000
  C   C1103     1.0  0.68057  0.03775  0.38625  1.0000
  S   S325      1.0  0.64184  0.02259  0.33839  1.0000
  H   H1343     1.0  0.53547  0.05035  0.33992  1.0000
  H   H1344     1.0  0.70315  0.07395  0.35915  1.0000
  S   S326      1.0  0.49798  0.04567  0.33788  1.0000
  S   S327      1.0  0.73243  0.03225  0.60703  1.0000
  C   C1104     1.0  0.76879  0.99987  0.57121  1.0000
  C   C1105     1.0  0.70162  0.15292  0.56278  1.0000
  C   C1106     1.0  0.70865  0.14267  0.42990  1.0000
  H   H1345     1.0  0.70951  0.11077  0.36804  1.0000
  C   C1107     1.0  0.75781  0.09949  0.33990  1.0000
  C   C1108     1.0  0.69863  0.16133  0.42752  1.0000
  Fe  Fe166     1.0  0.73760  0.06214  0.59367  1.0000
  C   C1109     1.0  0.76935  0.99134  0.40125  1.0000
  C   C1110     1.0  0.70190  0.14621  0.54629  1.0000
  H   H1346     1.0  0.77103  0.18898  0.52550  1.0000
  C   C1111     1.0  0.68344  0.16645  0.41736  1.0000
  H   H1347     1.0  0.65647  0.11716  0.63115  1.0000
  C   C1112     1.0  0.66696  0.14339  0.32858  1.0000
  H   H1348     1.0  0.53532  0.22545  0.32434  1.0000
  S   S328      1.0  0.68433  0.03603  0.32385  1.0000
  H   H1349     1.0  0.65295  0.17953  0.37481  1.0000
  H   H1350     1.0  0.67140  0.13858  0.37959  1.0000
  C   C1113     1.0  0.58609  0.03917  0.35368  1.0000
  C   C1114     1.0  0.64363  0.16443  0.41186  1.0000
  C   C1115     1.0  0.59567  0.01974  0.31028  1.0000
  C   C1116     1.0  0.67507  0.14494  0.30938  1.0000
  H   H1351     1.0  0.63084  0.16838  0.40469  1.0000
  C   C1117     1.0  0.74448  0.01309  0.59553  1.0000
  H   H1352     1.0  0.65744  0.12433  0.35399  1.0000
  H   H1353     1.0  0.64419  0.17700  0.41789  1.0000
  H   H1354     1.0  0.57525  0.01697  0.37532  1.0000
  H   H1355     1.0  0.71800  0.19446  0.54184  1.0000
  N   N76       1.0  0.83348  0.22476  0.39278  1.0000
  C   C1118     1.0  0.71355  0.17413  0.52742  1.0000
  H   H1356     1.0  0.69736  0.07663  0.33608  1.0000
  Fe  Fe167     1.0  0.75955  0.20404  0.45909  1.0000
  C   C1119     1.0  0.58696  0.20705  0.33569  1.0000
  H   H1357     1.0  0.66551  0.09598  0.33888  1.0000
  C   C1120     1.0  0.67617  0.11092  0.31132  1.0000
  S   S329      1.0  0.78728  0.21091  0.44103  1.0000
  C   C1121     1.0  0.55369  0.03238  0.35877  1.0000
  C   C1122     1.0  0.57194  0.02848  0.36384  1.0000
  C   C1123     1.0  0.78164  0.99944  0.46370  1.0000
  S   S330      1.0  0.76124  0.19057  0.48943  1.0000
  C   C1124     1.0  0.68869  0.17637  0.59286  1.0000
  H   H1358     1.0  0.59880  0.10601  0.30627  1.0000
  Fe  Fe168     1.0  0.66163  0.03529  0.34986  1.0000
  H   H1359     1.0  0.63770  0.99620  0.31738  1.0000
  C   C1125     1.0  0.73475  0.08122  0.33535  1.0000
  H   H1360     1.0  0.60126  0.20186  0.33901  1.0000
  H   H1361     1.0  0.72907  0.03479  0.35479  1.0000
  Fe  Fe169     1.0  0.51869  0.01971  0.34783  1.0000
  H   H1362     1.0  0.70844  0.03199  0.51910  1.0000
  H   H1363     1.0  0.85024  0.20372  0.41145  1.0000
  H   H1364     1.0  0.71843  0.18224  0.51365  1.0000
  C   C1126     1.0  0.70343  0.12907  0.42220  1.0000
  H   H1365     1.0  0.76413  0.02900  0.57538  1.0000
  H   H1366     1.0  0.56178  0.11921  0.34401  1.0000
  H   H1367     1.0  0.52690  0.11868  0.62281  1.0000
  C   C1127     1.0  0.70717  0.17061  0.56212  1.0000
  C   C1128     1.0  0.60550  0.15493  0.31375  1.0000
  H   H1368     1.0  0.67837  0.17188  0.37326  1.0000
  C   C1129     1.0  0.68838  0.13408  0.41186  1.0000
  H   H1369     1.0  0.71100  0.11445  0.42428  1.0000
  C   C1130     1.0  0.70079  0.98307  0.34968  1.0000
  C   C1131     1.0  0.72284  0.16423  0.58926  1.0000
  H   H1370     1.0  0.73705  0.16378  0.57964  1.0000
  Fe  Fe170     1.0  0.66367  0.02522  0.31173  1.0000
  S   S331      1.0  0.50004  0.99872  0.34812  1.0000
  C   C1132     1.0  0.75947  0.98863  0.45024  1.0000
  C   C1133     1.0  0.64299  0.98479  0.30942  1.0000
  C   C1134     1.0  0.58682  0.15174  0.31491  1.0000
  N   N77       1.0  0.77734  0.98245  0.45843  1.0000
  H   H1371     1.0  0.67804  0.21229  0.40090  1.0000
  C   C1135     1.0  0.73637  0.22011  0.50425  1.0000
  S   S332      1.0  0.70972  0.21401  0.41764  1.0000
  Fe  Fe171     1.0  0.67018  0.23000  0.32391  1.0000
  H   H1372     1.0  0.60774  0.16835  0.31625  1.0000
  H   H1373     1.0  0.63572  0.14315  0.30916  1.0000
  C   C1136     1.0  0.73679  0.22741  0.53493  1.0000
  H   H1374     1.0  0.78330  0.01123  0.45130  1.0000
  H   H1375     1.0  0.54595  0.98552  0.35255  1.0000
  C   C1137     1.0  0.68432  0.22457  0.37136  1.0000
  H   H1376     1.0  0.59988  0.00412  0.31439  1.0000
  H   H1377     1.0  0.71423  0.14323  0.63741  1.0000
  Fe  Fe172     1.0  0.51318  0.04146  0.30887  1.0000
  C   C1138     1.0  0.53247  0.11164  0.63555  1.0000
  C   C1139     1.0  0.55174  0.11112  0.63639  1.0000
  H   H1378     1.0  0.71212  0.98801  0.37263  1.0000
  H   H1379     1.0  0.56901  0.10014  0.31895  1.0000
  H   H1380     1.0  0.50454  0.12616  0.30870  1.0000
  C   C1140     1.0  0.81266  0.23063  0.39183  1.0000
  H   H1381     1.0  0.82723  0.23090  0.51751  1.0000
  C   C1141     1.0  0.72872  0.23111  0.51851  1.0000
  S   S333      1.0  0.58287  0.10343  0.65358  1.0000
  S   S334      1.0  0.58302  0.13534  0.72748  1.0000
  S   S335      1.0  0.61252  0.11004  0.68814  1.0000
  H   H1382     1.0  0.64308  0.09812  0.66125  1.0000
  C   C1142     1.0  0.53500  0.16263  0.67024  1.0000
  Fe  Fe173     1.0  0.63479  0.21373  0.73837  1.0000
  H   H1383     1.0  0.70954  0.02146  0.64585  1.0000
  S   S336      1.0  0.64282  0.18176  0.73996  1.0000
  S   S337      1.0  0.49622  0.10477  0.64960  1.0000
  H   H1384     1.0  0.54683  0.13994  0.70081  1.0000
  H   H1385     1.0  0.67821  0.21638  0.66487  1.0000
  H   H1386     1.0  0.66681  0.05749  0.65324  1.0000
  H   H1387     1.0  0.54142  0.03160  0.73663  1.0000
  H   H1388     1.0  0.55608  0.12661  0.68175  1.0000
  C   C1143     1.0  0.68663  0.14923  0.65504  1.0000
  H   H1389     1.0  0.69221  0.04500  0.67488  1.0000
  C   C1144     1.0  0.56296  0.03813  0.68953  1.0000
  S   S338      1.0  0.52603  0.20788  0.70515  1.0000
  Fe  Fe174     1.0  0.59461  0.10736  0.71699  1.0000
  C   C1145     1.0  0.71079  0.16910  0.64846  1.0000
  H   H1390     1.0  0.56462  0.14343  0.64931  1.0000
  C   C1146     1.0  0.67682  0.19102  0.69757  1.0000
  C   C1147     1.0  0.52044  0.10310  0.65109  1.0000
  S   S339      1.0  0.73701  0.21717  0.64649  1.0000
  H   H1391     1.0  0.68210  0.13655  0.65340  1.0000
  C   C1148     1.0  0.54708  0.09366  0.66849  1.0000
  H   H1392     1.0  0.56650  0.20663  0.70284  1.0000
  H   H1393     1.0  0.65759  0.21163  0.65810  1.0000
  C   C1149     1.0  0.56879  0.22879  0.71706  1.0000
  H   H1394     1.0  0.52985  0.15788  0.78117  1.0000
  C   C1150     1.0  0.50235  0.01261  0.73779  1.0000
  H   H1395     1.0  0.51262  0.17927  0.77815  1.0000
  H   H1396     1.0  0.58430  0.22545  0.71518  1.0000
  H   H1397     1.0  0.52349  0.02218  0.68601  1.0000
  H   H1398     1.0  0.60133  0.18970  0.77711  1.0000
  C   C1151     1.0  0.66319  0.04291  0.65754  1.0000
  H   H1399     1.0  0.52594  0.18269  0.74356  1.0000
  H   H1400     1.0  0.69960  0.01968  0.68108  1.0000
  H   H1401     1.0  0.64117  0.99524  0.73008  1.0000
  H   H1402     1.0  0.62082  0.02743  0.72843  1.0000
  H   H1403     1.0  0.53308  0.13482  0.66502  1.0000
  S   S340      1.0  0.57936  0.03967  0.73222  1.0000
  H   H1404     1.0  0.56117  0.14549  0.76985  1.0000
  H   H1405     1.0  0.55063  0.18467  0.73537  1.0000
  C   C1152     1.0  0.52631  0.03111  0.73813  1.0000
  H   H1406     1.0  0.65663  0.04035  0.64612  1.0000
  H   H1407     1.0  0.56193  0.18520  0.67139  1.0000
  C   C1153     1.0  0.57624  0.02119  0.69005  1.0000
  H   H1408     1.0  0.56934  0.20287  0.77018  1.0000
  C   C1154     1.0  0.55906  0.10228  0.65285  1.0000
  H   H1409     1.0  0.52236  0.07411  0.71286  1.0000
  C   C1155     1.0  0.53852  0.22222  0.71271  1.0000
  C   C1156     1.0  0.50547  0.18616  0.66666  1.0000
  C   C1157     1.0  0.52773  0.09404  0.66758  1.0000
  C   C1158     1.0  0.57081  0.00429  0.68876  1.0000
  C   C1159     1.0  0.66072  0.00380  0.67999  1.0000
  C   C1160     1.0  0.60055  0.14837  0.72881  1.0000
  C   C1161     1.0  0.59585  0.16827  0.72715  1.0000
  C   C1162     1.0  0.60881  0.17874  0.73019  1.0000
  C   C1163     1.0  0.62658  0.16930  0.73499  1.0000
  C   C1164     1.0  0.63162  0.14950  0.73585  1.0000
  C   C1165     1.0  0.61869  0.13906  0.73268  1.0000
  H   H1410     1.0  0.58209  0.17562  0.72372  1.0000
  H   H1411     1.0  0.60484  0.19401  0.72935  1.0000
  H   H1412     1.0  0.64543  0.14213  0.73935  1.0000
  H   H1413     1.0  0.62252  0.12373  0.73390  1.0000
  H   H1414     1.0  0.70003  0.07728  0.67385  1.0000
  H   H1415     1.0  0.69576  0.99751  0.64116  1.0000
  C   C1166     1.0  0.67056  0.08685  0.66989  1.0000
  H   H1416     1.0  0.66065  0.15738  0.67314  1.0000
  S   S341      1.0  0.61257  0.07969  0.72856  1.0000
  N   N78       1.0  0.51749  0.06518  0.74303  1.0000
  C   C1167     1.0  0.69051  0.08575  0.66445  1.0000
  H   H1417     1.0  0.52003  0.05563  0.77231  1.0000
  C   C1168     1.0  0.50677  0.15396  0.66267  1.0000
  C   C1169     1.0  0.58772  0.14844  0.77589  1.0000
  C   C1170     1.0  0.56919  0.15559  0.77187  1.0000
  H   H1418     1.0  0.67870  0.17658  0.70654  1.0000
  H   H1419     1.0  0.65531  0.22122  0.67925  1.0000
  C   C1171     1.0  0.56152  0.17540  0.76973  1.0000
  C   C1172     1.0  0.53592  0.20354  0.76394  1.0000
  C   C1173     1.0  0.54063  0.17773  0.74715  1.0000
  H   H1420     1.0  0.56735  0.16788  0.64509  1.0000
  H   H1421     1.0  0.52876  0.17604  0.79462  1.0000
  C   C1174     1.0  0.55868  0.21816  0.71007  1.0000
  H   H1422     1.0  0.51915  0.99155  0.70488  1.0000
  H   H1423     1.0  0.55150  0.17460  0.69488  1.0000
  C   C1175     1.0  0.59209  0.18021  0.77603  1.0000
  C   C1176     1.0  0.69865  0.18143  0.65988  1.0000
  C   C1177     1.0  0.52979  0.07223  0.72508  1.0000
  H   H1424     1.0  0.54577  0.21120  0.75254  1.0000
  S   S342      1.0  0.61276  0.22819  0.75962  1.0000
  H   H1425     1.0  0.65193  0.04344  0.67045  1.0000
  H   H1426     1.0  0.50536  0.09393  0.74788  1.0000
  H   H1427     1.0  0.70417  0.19350  0.66159  1.0000
  C   C1178     1.0  0.52769  0.17353  0.78050  1.0000
  C   C1179     1.0  0.59914  0.16072  0.77796  1.0000
  H   H1428     1.0  0.66805  0.20107  0.70691  1.0000
  C   C1180     1.0  0.56821  0.15445  0.65569  1.0000
  C   C1181     1.0  0.52571  0.14916  0.66601  1.0000
  S   S343      1.0  0.61098  0.06500  0.68912  1.0000
  C   C1182     1.0  0.52154  0.01408  0.73639  1.0000
  C   C1183     1.0  0.59754  0.98265  0.73446  1.0000
  H   H1429     1.0  0.54436  0.16218  0.74701  1.0000
  C   C1184     1.0  0.62578  0.99677  0.73100  1.0000
  H   H1430     1.0  0.64921  0.17189  0.69862  1.0000
  C   C1185     1.0  0.58596  0.00084  0.73417  1.0000
  H   H1431     1.0  0.52141  0.00001  0.67058  1.0000
  H   H1432     1.0  0.71359  0.09517  0.64298  1.0000
  H   H1433     1.0  0.64010  0.18626  0.67796  1.0000
  C   C1186     1.0  0.67530  0.00899  0.66453  1.0000
  C   C1187     1.0  0.70478  0.15300  0.64604  1.0000
  C   C1188     1.0  0.53843  0.02140  0.68679  1.0000
  H   H1434     1.0  0.50005  0.14329  0.65957  1.0000
  H   H1435     1.0  0.65315  0.01371  0.68926  1.0000
  C   C1189     1.0  0.66454  0.21089  0.67042  1.0000
  Fe  Fe175     1.0  0.62892  0.08139  0.69868  1.0000
  H   H1436     1.0  0.55269  0.08680  0.68122  1.0000
  H   H1437     1.0  0.57053  0.00232  0.73562  1.0000
  N   N79       1.0  0.68041  0.02822  0.66085  1.0000
  H   H1438     1.0  0.49763  0.20060  0.66686  1.0000
  H   H1439     1.0  0.57206  0.13540  0.69136  1.0000
  H   H1440     1.0  0.51839  0.08763  0.67964  1.0000
  Fe  Fe176     1.0  0.59328  0.06527  0.71806  1.0000
  S   S344      1.0  0.66112  0.07385  0.69165  1.0000
  H   H1441     1.0  0.54231  0.05155  0.75616  1.0000
  C   C1190     1.0  0.68730  0.03106  0.67749  1.0000
  S   S345      1.0  0.57361  0.09274  0.70945  1.0000
  H   H1442     1.0  0.53046  0.19290  0.67228  1.0000
  H   H1443     1.0  0.58347  0.14960  0.65772  1.0000
  H   H1444     1.0  0.59083  0.02115  0.69170  1.0000
  H   H1445     1.0  0.59354  0.13336  0.77669  1.0000
  H   H1446     1.0  0.53352  0.08621  0.72527  1.0000
  C   C1191     1.0  0.56132  0.17157  0.68157  1.0000
  C   C1192     1.0  0.55746  0.13903  0.68749  1.0000
  H   H1447     1.0  0.53251  0.07501  0.76051  1.0000
  C   C1193     1.0  0.55174  0.00398  0.68668  1.0000
  H   H1448     1.0  0.63916  0.19632  0.69834  1.0000
  N   N80       1.0  0.54184  0.18257  0.76541  1.0000
  C   C1194     1.0  0.66600  0.10841  0.64042  1.0000
  H   H1449     1.0  0.69122  0.19516  0.69299  1.0000
  H   H1450     1.0  0.56736  0.05113  0.69052  1.0000
  Fe  Fe177     1.0  0.59294  0.09350  0.68137  1.0000
  C   C1195     1.0  0.65837  0.09787  0.65764  1.0000
  C   C1196     1.0  0.51194  0.04720  0.74162  1.0000
  C   C1197     1.0  0.61428  0.01501  0.73005  1.0000
  C   C1198     1.0  0.49660  0.17242  0.66315  1.0000
  H   H1451     1.0  0.53369  0.05138  0.68761  1.0000
  C   C1199     1.0  0.59428  0.01707  0.73201  1.0000
  C   C1200     1.0  0.52443  0.18147  0.66997  1.0000
  H   H1452     1.0  0.57603  0.16657  0.68516  1.0000
  C   C1201     1.0  0.57360  0.18758  0.77192  1.0000
  C   C1202     1.0  0.64817  0.18614  0.68929  1.0000
  H   H1453     1.0  0.53285  0.00204  0.73381  1.0000
  N   N81       1.0  0.66750  0.19121  0.68139  1.0000
  C   C1203     1.0  0.67999  0.17805  0.66919  1.0000
  C   C1204     1.0  0.67435  0.16146  0.66645  1.0000
  H   H1454     1.0  0.61376  0.15524  0.78040  1.0000
  N   N82       1.0  0.55510  0.15716  0.67374  1.0000
  H   H1455     1.0  0.53564  0.20820  0.77746  1.0000
  H   H1456     1.0  0.67583  0.03123  0.69026  1.0000
  C   C1205     1.0  0.54406  0.03822  0.68797  1.0000
  H   H1457     1.0  0.49860  0.99954  0.73607  1.0000
  H   H1458     1.0  0.71842  0.21446  0.68512  1.0000
  C   C1206     1.0  0.65567  0.98570  0.68385  1.0000
  C   C1207     1.0  0.52852  0.06169  0.75868  1.0000
  C   C1208     1.0  0.50081  0.08067  0.74664  1.0000
  C   C1209     1.0  0.68449  0.99493  0.65319  1.0000
  Fe  Fe178     1.0  0.49410  0.21428  0.71535  1.0000
  H   H1459     1.0  0.54367  0.06234  0.72225  1.0000
  H   H1460     1.0  0.52128  0.20863  0.76025  1.0000
  H   H1461     1.0  0.54449  0.99660  0.65533  1.0000
  N   N83       1.0  0.54552  0.98646  0.68491  1.0000
  H   H1462     1.0  0.72507  0.17192  0.64177  1.0000
  C   C1210     1.0  0.53549  0.99022  0.66846  1.0000
  C   C1211     1.0  0.69820  0.09583  0.64696  1.0000
  H   H1463     1.0  0.64455  0.98201  0.69579  1.0000
  H   H1464     1.0  0.69932  0.04610  0.64171  1.0000
  C   C1212     1.0  0.69580  0.03151  0.64413  1.0000
  H   H1465     1.0  0.58184  0.99169  0.68951  1.0000
  C   C1213     1.0  0.71016  0.22633  0.67699  1.0000
  C   C1214     1.0  0.49247  0.04508  0.74338  1.0000
  H   H1466     1.0  0.49246  0.08469  0.73485  1.0000
  H   H1467     1.0  0.69951  0.35484  0.28990  1.0000
  H   H1468     1.0  0.62519  0.29826  0.21245  1.0000
  C   C1215     1.0  0.85961  0.42072  0.28223  1.0000
  Fe  Fe179     1.0  0.63063  0.37040  0.02496  1.0000
  S   S346      1.0  0.62776  0.39961  0.00670  1.0000
  S   S347      1.0  0.61792  0.36526  0.05624  1.0000
  H   H1469     1.0  0.52920  0.25244  0.27169  1.0000
  C   C1216     1.0  0.82795  0.41287  0.23114  1.0000
  Fe  Fe180     1.0  0.65821  0.38940  0.99337  1.0000
  H   H1470     1.0  0.52971  0.30351  0.03942  1.0000
  S   S348      1.0  0.61953  0.35708  0.00546  1.0000
  S   S349      1.0  0.66174  0.36112  0.01283  1.0000
  Fe  Fe181     1.0  0.76121  0.47015  0.04025  1.0000
  S   S350      1.0  0.73531  0.46202  0.06066  1.0000
  C   C1217     1.0  0.57866  0.24185  0.23910  1.0000
  Fe  Fe182     1.0  0.73128  0.44778  0.03798  1.0000
  S   S351      1.0  0.72081  0.41976  0.04635  1.0000
  S   S352      1.0  0.75887  0.45345  0.01862  1.0000
  Fe  Fe183     1.0  0.63122  0.33955  0.17532  1.0000
  S   S353      1.0  0.65588  0.31718  0.16584  1.0000
  S   S354      1.0  0.60448  0.32643  0.18356  1.0000
  Fe  Fe184     1.0  0.65793  0.36826  0.17184  1.0000
  S   S355      1.0  0.68402  0.34750  0.16260  1.0000
  S   S356      1.0  0.66113  0.39781  0.17455  1.0000
  Fe  Fe185     1.0  0.66586  0.34137  0.14405  1.0000
  S   S357      1.0  0.67755  0.34198  0.11289  1.0000
  Fe  Fe186     1.0  0.67081  0.32587  0.18552  1.0000
  S   S358      1.0  0.68604  0.30796  0.20895  1.0000
  S   S359      1.0  0.64017  0.36324  0.15215  1.0000
  S   S360      1.0  0.64573  0.34710  0.19607  1.0000
  H   H1471     1.0  0.88554  0.42840  0.25162  1.0000
  C   C1218     1.0  0.55939  0.24048  0.27051  1.0000
  H   H1472     1.0  0.89703  0.41174  0.26906  1.0000
  H   H1473     1.0  0.69944  0.39837  0.07918  1.0000
  H   H1474     1.0  0.61447  0.29227  0.27794  1.0000
  C   C1219     1.0  0.56225  0.25104  0.23136  1.0000
  N   N84       1.0  0.55858  0.35586  0.03794  1.0000
  Fe  Fe187     1.0  0.77472  0.45998  0.19889  1.0000
  S   S361      1.0  0.74304  0.45975  0.20199  1.0000
  S   S362      1.0  0.78604  0.45186  0.22668  1.0000
  Fe  Fe188     1.0  0.75073  0.44526  0.17669  1.0000
  S   S363      1.0  0.74312  0.41750  0.17343  1.0000
  S   S364      1.0  0.78259  0.44337  0.17506  1.0000
  C   C1220     1.0  0.79140  0.47145  0.07125  1.0000
  C   C1221     1.0  0.54451  0.25480  0.24308  1.0000
  H   H1475     1.0  0.75048  0.45287  0.97913  1.0000
  H   H1476     1.0  0.65890  0.38936  0.09850  1.0000
  H   H1477     1.0  0.68547  0.43020  0.07286  1.0000
  C   C1222     1.0  0.81206  0.47089  0.09353  1.0000
  C   C1223     1.0  0.69523  0.32928  0.28263  1.0000
  C   C1224     1.0  0.68864  0.45367  0.08399  1.0000
  C   C1225     1.0  0.68303  0.42288  0.10361  1.0000
  H   H1478     1.0  0.58385  0.36766  0.03715  1.0000
  S   S365      1.0  0.51297  0.40323  0.00588  1.0000
  H   H1479     1.0  0.69471  0.37719  0.09536  1.0000
  C   C1226     1.0  0.49639  0.25780  0.22142  1.0000
  S   S366      1.0  0.51368  0.33384  0.16176  1.0000
  S   S367      1.0  0.52008  0.37364  0.18654  1.0000
  H   H1480     1.0  0.55753  0.23708  0.28575  1.0000
  H   H1481     1.0  0.63656  0.29085  0.24991  1.0000
  C   C1227     1.0  0.80987  0.45515  0.24973  1.0000
  C   C1228     1.0  0.54286  0.39394  0.97788  1.0000
  S   S368      1.0  0.50327  0.35810  0.11090  1.0000
  C   C1229     1.0  0.83639  0.40423  0.26236  1.0000
  C   C1230     1.0  0.69665  0.39213  0.09448  1.0000
  C   C1231     1.0  0.78420  0.42266  0.08359  1.0000
  C   C1232     1.0  0.61184  0.32496  0.97444  1.0000
  H   H1482     1.0  0.61973  0.32416  0.98566  1.0000
  H   H1483     1.0  0.83183  0.39925  0.27726  1.0000
  H   H1484     1.0  0.49759  0.23393  0.24474  1.0000
  H   H1485     1.0  0.54600  0.32947  0.02242  1.0000
  H   H1486     1.0  0.72099  0.29188  0.03700  1.0000
  H   H1487     1.0  0.54918  0.34328  0.07625  1.0000
  C   C1233     1.0  0.67631  0.39273  0.12474  1.0000
  H   H1488     1.0  0.61222  0.33153  0.21987  1.0000
  H   H1489     1.0  0.65947  0.31516  0.02290  1.0000
  H   H1490     1.0  0.49827  0.35939  0.04546  1.0000
  C   C1234     1.0  0.57655  0.35551  0.04487  1.0000
  C   C1235     1.0  0.80704  0.45774  0.23096  1.0000
  C   C1236     1.0  0.82128  0.46404  0.21623  1.0000
  C   C1237     1.0  0.49612  0.34952  0.09332  1.0000
  C   C1238     1.0  0.75087  0.41049  0.08111  1.0000
  Fe  Fe189     1.0  0.89975  0.47776  0.29154  1.0000
  H   H1491     1.0  0.82639  0.46867  0.09679  1.0000
  C   C1239     1.0  0.68566  0.43502  0.08572  1.0000
  H   H1492     1.0  0.62705  0.31714  0.04062  1.0000
  H   H1493     1.0  0.57345  0.34439  0.01294  1.0000
  S   S369      1.0  0.74765  0.47271  0.15576  1.0000
  C   C1240     1.0  0.58125  0.34005  0.18510  1.0000
  C   C1241     1.0  0.56567  0.33055  0.18804  1.0000
  C   C1242     1.0  0.54687  0.34081  0.18888  1.0000
  C   C1243     1.0  0.54350  0.36064  0.18700  1.0000
  C   C1244     1.0  0.55904  0.37017  0.18453  1.0000
  C   C1245     1.0  0.57798  0.35988  0.18344  1.0000
  H   H1494     1.0  0.56814  0.31520  0.18940  1.0000
  H   H1495     1.0  0.53494  0.33334  0.19118  1.0000
  H   H1496     1.0  0.55644  0.38553  0.18314  1.0000
  H   H1497     1.0  0.58997  0.36726  0.18132  1.0000
  C   C1246     1.0  0.67751  0.28724  0.22226  1.0000
  C   C1247     1.0  0.66635  0.27791  0.21513  1.0000
  C   C1248     1.0  0.66032  0.26108  0.22582  1.0000
  C   C1249     1.0  0.66498  0.25373  0.24389  1.0000
  C   C1250     1.0  0.67570  0.26334  0.25121  1.0000
  C   C1251     1.0  0.68215  0.27989  0.24032  1.0000
  H   H1498     1.0  0.66288  0.28331  0.20114  1.0000
  H   H1499     1.0  0.65222  0.25361  0.21997  1.0000
  C   C1252     1.0  0.85484  0.40936  0.25534  1.0000
  H   H1500     1.0  0.69094  0.28687  0.24587  1.0000
  C   C1253     1.0  0.72015  0.41314  0.17277  1.0000
  C   C1254     1.0  0.70325  0.42628  0.17656  1.0000
  C   C1255     1.0  0.68523  0.42156  0.17679  1.0000
  C   C1256     1.0  0.68401  0.40373  0.17322  1.0000
  C   C1257     1.0  0.70100  0.39087  0.16894  1.0000
  C   C1258     1.0  0.71893  0.39552  0.16878  1.0000
  H   H1501     1.0  0.70401  0.43992  0.17966  1.0000
  H   H1502     1.0  0.67219  0.43168  0.18003  1.0000
  H   H1503     1.0  0.70041  0.37720  0.16603  1.0000
  H   H1504     1.0  0.73193  0.38526  0.16584  1.0000
  S   S370      1.0  0.80016  0.47837  0.12915  1.0000
  C   C1259     1.0  0.66254  0.40382  0.09662  1.0000
  H   H1505     1.0  0.87250  0.42139  0.22899  1.0000
  H   H1506     1.0  0.82862  0.45678  0.26832  1.0000
  C   C1260     1.0  0.63895  0.31509  0.04809  1.0000
  S   S371      1.0  0.68039  0.40838  0.98246  1.0000
  C   C1261     1.0  0.83847  0.46710  0.22028  1.0000
  C   C1262     1.0  0.49946  0.35916  0.07459  1.0000
  C   C1263     1.0  0.84591  0.41801  0.22376  1.0000
  C   C1264     1.0  0.54993  0.33889  0.04760  1.0000
  N   N85       1.0  0.86831  0.40786  0.26843  1.0000
  C   C1265     1.0  0.61411  0.29339  0.22460  1.0000
  C   C1266     1.0  0.80976  0.46864  0.07577  1.0000
  C   C1267     1.0  0.53668  0.40255  0.99387  1.0000
  C   C1268     1.0  0.54971  0.40986  0.00075  1.0000
  C   C1269     1.0  0.56917  0.40770  0.99218  1.0000
  H   H1507     1.0  0.76134  0.41413  0.05113  1.0000
  H   H1508     1.0  0.66479  0.40928  0.08113  1.0000
  H   H1509     1.0  0.54483  0.41683  0.01294  1.0000
  H   H1510     1.0  0.57935  0.41296  0.99773  1.0000
  C   C1270     1.0  0.63438  0.36006  0.07207  1.0000
  C   C1271     1.0  0.65394  0.36070  0.06553  1.0000
  C   C1272     1.0  0.66701  0.35529  0.07820  1.0000
  C   C1273     1.0  0.66060  0.34948  0.09756  1.0000
  C   C1274     1.0  0.64094  0.34946  0.10426  1.0000
  C   C1275     1.0  0.62788  0.35466  0.09153  1.0000
  H   H1511     1.0  0.65903  0.36527  0.05070  1.0000
  H   H1512     1.0  0.68214  0.35562  0.07296  1.0000
  H   H1513     1.0  0.63588  0.34491  0.11916  1.0000
  H   H1514     1.0  0.61280  0.35408  0.09671  1.0000
  C   C1276     1.0  0.69147  0.41141  0.00041  1.0000
  C   C1277     1.0  0.68790  0.40088  0.01870  1.0000
  C   C1278     1.0  0.69714  0.40324  0.03280  1.0000
  C   C1279     1.0  0.70966  0.41641  0.02868  1.0000
  C   C1280     1.0  0.71309  0.42703  0.01046  1.0000
  C   C1281     1.0  0.70409  0.42446  0.99634  1.0000
  H   H1515     1.0  0.67805  0.39092  0.02201  1.0000
  H   H1516     1.0  0.69442  0.39503  0.04689  1.0000
  H   H1517     1.0  0.72290  0.43706  0.00715  1.0000
  H   H1518     1.0  0.60228  0.25377  0.26744  1.0000
  H   H1519     1.0  0.59045  0.28109  0.30396  1.0000
  H   H1520     1.0  0.70987  0.39151  0.10020  1.0000
  C   C1282     1.0  0.53489  0.31181  0.04726  1.0000
  H   H1521     1.0  0.58835  0.37465  0.12097  1.0000
  H   H1522     1.0  0.60113  0.29428  0.21840  1.0000
  H   H1523     1.0  0.68060  0.30973  0.07539  1.0000
  C   C1283     1.0  0.94988  0.46098  0.30275  1.0000
  C   C1284     1.0  0.54412  0.32702  0.03764  1.0000
  H   H1524     1.0  0.58878  0.32582  0.22613  1.0000
  H   H1525     1.0  0.89472  0.40399  0.24824  1.0000
  H   H1526     1.0  0.57400  0.35676  0.06000  1.0000
  C   C1285     1.0  0.59656  0.29746  0.25593  1.0000
  C   C1286     1.0  0.57802  0.29585  0.25348  1.0000
  C   C1287     1.0  0.60073  0.29184  0.27461  1.0000
  C   C1288     1.0  0.56445  0.28924  0.26876  1.0000
  C   C1289     1.0  0.58699  0.28534  0.28980  1.0000
  H   H1527     1.0  0.49444  0.43427  0.97875  1.0000
  C   C1290     1.0  0.84140  0.46427  0.23906  1.0000
  H   H1528     1.0  0.63941  0.31109  0.23169  1.0000
  H   H1529     1.0  0.67385  0.37807  0.12527  1.0000
  H   H1530     1.0  0.53181  0.26182  0.23702  1.0000
  H   H1531     1.0  0.69116  0.30589  0.27137  1.0000
  H   H1532     1.0  0.53345  0.31640  0.09245  1.0000
  H   H1533     1.0  0.70694  0.43268  0.98233  1.0000
  S   S372      1.0  0.89530  0.45096  0.28415  1.0000
  H   H1534     1.0  0.82233  0.46483  0.06539  1.0000
  H   H1535     1.0  0.62780  0.31478  0.25490  1.0000
  Fe  Fe190     1.0  0.65033  0.35042  0.99171  1.0000
  N   N86       1.0  0.67968  0.40324  0.10500  1.0000
  H   H1536     1.0  0.61275  0.23460  0.28375  1.0000
  C   C1291     1.0  0.59957  0.24047  0.27744  1.0000
  H   H1537     1.0  0.79713  0.42794  0.08335  1.0000
  H   H1538     1.0  0.52355  0.29646  0.07427  1.0000
  H   H1539     1.0  0.64769  0.31117  0.09241  1.0000
  C   C1292     1.0  0.65056  0.31165  0.07724  1.0000
  H   H1540     1.0  0.67950  0.25772  0.26506  1.0000
  H   H1541     1.0  0.59193  0.23940  0.22921  1.0000
  C   C1293     1.0  0.87210  0.38804  0.27892  1.0000
  H   H1542     1.0  0.62069  0.31519  0.07533  1.0000
  H   H1543     1.0  0.69053  0.29998  0.01334  1.0000
  C   C1294     1.0  0.65779  0.31404  0.03802  1.0000
  H   H1544     1.0  0.59834  0.33415  0.24288  1.0000
  N   N87       1.0  0.77401  0.41973  0.11935  1.0000
  C   C1295     1.0  0.75888  0.43500  0.12648  1.0000
  C   C1296     1.0  0.77262  0.40156  0.13288  1.0000
  C   C1297     1.0  0.79303  0.42459  0.11910  1.0000
  C   C1298     1.0  0.77108  0.41789  0.10056  1.0000
  H   H1545     1.0  0.68746  0.45473  0.13012  1.0000
  C   C1299     1.0  0.75416  0.41201  0.09873  1.0000
  C   C1300     1.0  0.85919  0.41642  0.23559  1.0000
  H   H1546     1.0  0.55053  0.35990  0.01045  1.0000
  C   C1301     1.0  0.63534  0.31391  0.06764  1.0000
  H   H1547     1.0  0.76162  0.43824  0.13966  1.0000
  H   H1548     1.0  0.75814  0.44840  0.11589  1.0000
  H   H1549     1.0  0.74432  0.43105  0.12996  1.0000
  H   H1550     1.0  0.75787  0.39813  0.13617  1.0000
  H   H1551     1.0  0.77600  0.40222  0.14681  1.0000
  H   H1552     1.0  0.78274  0.38943  0.12731  1.0000
  H   H1553     1.0  0.79463  0.43865  0.11017  1.0000
  H   H1554     1.0  0.79488  0.42576  0.13346  1.0000
  H   H1555     1.0  0.80508  0.41365  0.11382  1.0000
  H   H1556     1.0  0.88271  0.38640  0.28844  1.0000
  H   H1557     1.0  0.74318  0.40891  0.11090  1.0000
  S   S373      1.0  0.66304  0.32255  0.98190  1.0000
  Fe  Fe191     1.0  0.50087  0.35762  0.17796  1.0000
  C   C1302     1.0  0.56890  0.28410  0.28690  1.0000
  N   N88       1.0  0.69708  0.36056  0.22540  1.0000
  C   C1303     1.0  0.70031  0.38048  0.22286  1.0000
  C   C1304     1.0  0.71283  0.35047  0.21260  1.0000
  C   C1305     1.0  0.67856  0.36138  0.21937  1.0000
  C   C1306     1.0  0.69653  0.35011  0.24511  1.0000
  C   C1307     1.0  0.69381  0.33084  0.24975  1.0000
  C   C1308     1.0  0.69857  0.35853  0.26017  1.0000
  C   C1309     1.0  0.69318  0.32063  0.26822  1.0000
  C   C1310     1.0  0.69791  0.34818  0.27862  1.0000
  H   H1558     1.0  0.69477  0.32129  0.29693  1.0000
  H   H1559     1.0  0.71440  0.38098  0.22644  1.0000
  H   H1560     1.0  0.70057  0.38796  0.20797  1.0000
  H   H1561     1.0  0.68855  0.38918  0.23149  1.0000
  H   H1562     1.0  0.71423  0.35839  0.19778  1.0000
  H   H1563     1.0  0.71038  0.33608  0.21198  1.0000
  H   H1564     1.0  0.72692  0.34863  0.21723  1.0000
  H   H1565     1.0  0.67824  0.36953  0.20474  1.0000
  H   H1566     1.0  0.67583  0.34698  0.21927  1.0000
  H   H1567     1.0  0.66622  0.36841  0.22888  1.0000
  H   H1568     1.0  0.69218  0.32346  0.23908  1.0000
  H   H1569     1.0  0.70071  0.37308  0.25812  1.0000
  H   H1570     1.0  0.53113  0.37428  0.03662  1.0000
  H   H1571     1.0  0.79887  0.45034  0.26118  1.0000
  H   H1572     1.0  0.66336  0.40002  0.13339  1.0000
  S   S374      1.0  0.51527  0.35114  0.00066  1.0000
  H   H1573     1.0  0.85662  0.43570  0.27484  1.0000
  C   C1311     1.0  0.54468  0.37323  0.04206  1.0000
  Fe  Fe192     1.0  0.86935  0.46824  0.27239  1.0000
  Fe  Fe193     1.0  0.61972  0.38532  0.98609  1.0000
  C   C1312     1.0  0.68699  0.44916  0.11771  1.0000
  H   H1574     1.0  0.85895  0.38361  0.28823  1.0000
  C   C1313     1.0  0.68381  0.43052  0.11964  1.0000
  H   H1575     1.0  0.68892  0.39100  0.13178  1.0000
  C   C1314     1.0  0.53697  0.31907  0.07714  1.0000
  S   S375      1.0  0.78983  0.46929  0.04823  1.0000
  H   H1576     1.0  0.58700  0.34213  0.04302  1.0000
  H   H1577     1.0  0.79061  0.42542  0.05322  1.0000
  Fe  Fe194     1.0  0.50007  0.38147  0.99782  1.0000
  N   N89       1.0  0.56006  0.36791  0.12379  1.0000
  C   C1315     1.0  0.56000  0.37345  0.10317  1.0000
  C   C1316     1.0  0.54049  0.37423  0.13412  1.0000
  C   C1317     1.0  0.56540  0.34693  0.12886  1.0000
  C   C1318     1.0  0.55417  0.33487  0.12509  1.0000
  C   C1319     1.0  0.58137  0.33788  0.13794  1.0000
  C   C1320     1.0  0.55843  0.31506  0.13035  1.0000
  C   C1321     1.0  0.58554  0.31805  0.14307  1.0000
  C   C1322     1.0  0.57407  0.30667  0.13937  1.0000
  H   H1578     1.0  0.57423  0.36809  0.09490  1.0000
  H   H1579     1.0  0.54874  0.36786  0.09883  1.0000
  H   H1580     1.0  0.55685  0.38922  0.09876  1.0000
  H   H1581     1.0  0.52919  0.36868  0.12987  1.0000
  H   H1582     1.0  0.53625  0.39003  0.13181  1.0000
  H   H1583     1.0  0.53964  0.36916  0.14959  1.0000
  H   H1584     1.0  0.59065  0.34573  0.14171  1.0000
  H   H1585     1.0  0.54926  0.30621  0.12783  1.0000
  H   H1586     1.0  0.59750  0.31154  0.15044  1.0000
  H   H1587     1.0  0.57713  0.29134  0.14377  1.0000
  N   N90       1.0  0.69378  0.31126  0.03718  1.0000
  C   C1323     1.0  0.70136  0.32766  0.03991  1.0000
  C   C1324     1.0  0.70590  0.29330  0.04484  1.0000
  C   C1325     1.0  0.69589  0.31198  0.01648  1.0000
  C   C1326     1.0  0.67365  0.31197  0.04736  1.0000
  H   H1588     1.0  0.70678  0.29241  0.05992  1.0000
  C   C1327     1.0  0.66942  0.31083  0.06730  1.0000
  C   C1328     1.0  0.53136  0.30782  0.06694  1.0000
  C   C1329     1.0  0.78066  0.42123  0.06603  1.0000
  C   C1330     1.0  0.62930  0.30545  0.24435  1.0000
  H   H1589     1.0  0.70203  0.32716  0.05499  1.0000
  H   H1590     1.0  0.71619  0.32819  0.03180  1.0000
  H   H1591     1.0  0.69206  0.34141  0.03519  1.0000
  H   H1592     1.0  0.57377  0.29998  0.23972  1.0000
  H   H1593     1.0  0.70004  0.28067  0.04387  1.0000
  H   H1594     1.0  0.57102  0.36965  0.01030  1.0000
  H   H1595     1.0  0.68798  0.32554  0.00946  1.0000
  C   C1331     1.0  0.54601  0.33445  0.06768  1.0000
  H   H1596     1.0  0.56321  0.25518  0.21616  1.0000
  C   C1332     1.0  0.60207  0.32498  0.23186  1.0000
  C   C1333     1.0  0.57335  0.37846  0.12853  1.0000
  H   H1597     1.0  0.54161  0.34072  0.11856  1.0000
  H   H1598     1.0  0.64971  0.41309  0.10333  1.0000
  H   H1599     1.0  0.84960  0.47156  0.20879  1.0000
  H   H1600     1.0  0.55066  0.38639  0.03533  1.0000
  C   C1334     1.0  0.77518  0.47629  0.08484  1.0000
  H   H1601     1.0  0.58785  0.24444  0.28916  1.0000
  H   H1602     1.0  0.71117  0.31112  0.00925  1.0000
  H   H1603     1.0  0.68184  0.42251  0.13387  1.0000
  S   S376      1.0  0.86349  0.46777  0.24337  1.0000
  H   H1604     1.0  0.56899  0.39417  0.12453  1.0000
  H   H1605     1.0  0.57335  0.37559  0.14404  1.0000
  C   C1335     1.0  0.54309  0.24953  0.26261  1.0000
  H   H1606     1.0  0.55033  0.28826  0.26656  1.0000
  Fe  Fe195     1.0  0.77875  0.47183  0.15586  1.0000
  H   H1607     1.0  0.69046  0.46274  0.07018  1.0000
  H   H1608     1.0  0.80893  0.40268  0.25613  1.0000
  H   H1609     1.0  0.73779  0.40619  0.07993  1.0000
  C   C1336     1.0  0.76412  0.41502  0.06480  1.0000
  H   H1610     1.0  0.54061  0.37349  0.05745  1.0000
  N   N91       1.0  0.61039  0.30514  0.23959  1.0000
  C   C1337     1.0  0.56359  0.35737  0.01704  1.0000
  H   H1611     1.0  0.93893  0.45267  0.30349  1.0000
  S   S377      1.0  0.71293  0.47338  0.02389  1.0000
  C   C1338     1.0  0.68935  0.46072  0.09993  1.0000
  C   C1339     1.0  0.82684  0.45863  0.25379  1.0000
  H   H1612     1.0  0.61937  0.27815  0.23015  1.0000
  Fe  Fe196     1.0  0.50382  0.35056  0.97460  1.0000
  S   S378      1.0  0.65741  0.23240  0.25675  1.0000
  H   H1613     1.0  0.81925  0.46606  0.20173  1.0000
  H   H1614     1.0  0.84924  0.42401  0.20886  1.0000
  C   C1340     1.0  0.82319  0.40603  0.25040  1.0000
  H   H1615     1.0  0.81739  0.41493  0.22204  1.0000
  H   H1616     1.0  0.55833  0.27908  0.29877  1.0000
  H   H1617     1.0  0.87787  0.37777  0.26900  1.0000
  C   C1341     1.0  0.88721  0.41319  0.25882  1.0000
  H   H1618     1.0  0.50555  0.37203  0.07135  1.0000
  H   H1619     1.0  0.84587  0.41714  0.29101  1.0000
  C   C1342     1.0  0.49523  0.35209  0.05992  1.0000
  C   C1343     1.0  0.57765  0.23605  0.25899  1.0000
  H   H1620     1.0  0.86935  0.42015  0.29225  1.0000
  S   S379      1.0  0.84871  0.46400  0.29974  1.0000
  C   C1344     1.0  0.79602  0.47580  0.10714  1.0000
  H   H1621     1.0  0.49967  0.24887  0.21075  1.0000
  H   H1622     1.0  0.76092  0.47861  0.08142  1.0000
  H   H1623     1.0  0.59918  0.35451  0.97403  1.0000
  C   C1345     1.0  0.77751  0.47853  0.10281  1.0000
  H   H1624     1.0  0.69168  0.47523  0.09842  1.0000
  C   C1346     1.0  0.57532  0.39909  0.97615  1.0000
  C   C1347     1.0  0.49521  0.24929  0.24068  1.0000
  Fe  Fe197     1.0  0.74072  0.48037  0.00617  1.0000
  Fe  Fe198     1.0  0.49296  0.34860  0.14220  1.0000
  S   S380      1.0  0.49392  0.28782  0.19153  1.0000
  S   S381      1.0  0.64938  0.24752  0.30519  1.0000
  C   C1348     1.0  0.49317  0.27776  0.21588  1.0000
  H   H1625     1.0  0.61754  0.23310  0.24412  1.0000
  C   C1349     1.0  0.94707  0.48036  0.29479  1.0000
  Fe  Fe199     1.0  0.87349  0.35516  0.62317  1.0000
  Fe  Fe200     1.0  0.88840  0.34754  0.58333  1.0000
  S   S382      1.0  0.89858  0.31634  0.59266  1.0000
  S   S383      1.0  0.89454  0.36122  0.55269  1.0000
  Fe  Fe201     1.0  0.87016  0.31754  0.61264  1.0000
  Fe  Fe202     1.0  0.90942  0.32580  0.61488  1.0000
  H   H1626     1.0  0.92075  0.38584  0.53115  1.0000
  S   S384      1.0  0.85909  0.34833  0.60166  1.0000
  S   S385      1.0  0.90182  0.35696  0.60384  1.0000
  H   H1627     1.0  0.95353  0.37595  0.38834  1.0000
  C   C1350     1.0  0.93556  0.40097  0.36080  1.0000
  H   H1628     1.0  0.97668  0.46744  0.41788  1.0000
  C   C1351     1.0  0.95762  0.32349  0.61046  1.0000
  Fe  Fe203     1.0  0.86151  0.33552  0.47030  1.0000
  S   S386      1.0  0.88192  0.31043  0.46042  1.0000
  S   S387      1.0  0.84973  0.33314  0.50159  1.0000
  Fe  Fe204     1.0  0.86004  0.35704  0.42989  1.0000
  S   S388      1.0  0.84849  0.38615  0.41392  1.0000
  Fe  Fe205     1.0  0.86266  0.31363  0.43912  1.0000
  S   S389      1.0  0.85564  0.28530  0.43662  1.0000
  S   S390      1.0  0.84132  0.33766  0.45023  1.0000
  S   S391      1.0  0.87813  0.35713  0.45126  1.0000
  N   N92       1.0  0.92233  0.38184  0.39180  1.0000
  C   C1352     1.0  0.97309  0.33965  0.58060  1.0000
  H   H1629     1.0  0.87536  0.27267  0.53405  1.0000
  C   C1353     1.0  0.84637  0.27851  0.50678  1.0000
  S   S392      1.0  0.93784  0.31395  0.62448  1.0000
  C   C1354     1.0  0.94055  0.37919  0.39912  1.0000
  C   C1355     1.0  0.79234  0.30115  0.51263  1.0000
  H   H1630     1.0  0.86909  0.28285  0.39255  1.0000
  H   H1631     1.0  0.89214  0.41359  0.38879  1.0000
  C   C1356     1.0  0.78190  0.28729  0.51197  1.0000
  H   H1632     1.0  0.94817  0.39000  0.35915  1.0000
  Fe  Fe206     1.0  0.74642  0.23601  0.57431  1.0000
  C   C1357     1.0  0.84208  0.26955  0.52596  1.0000
  H   H1633     1.0  0.74728  0.27446  0.51617  1.0000
  H   H1634     1.0  0.88491  0.38029  0.35003  1.0000
  H   H1635     1.0  0.80345  0.31239  0.58119  1.0000
  H   H1636     1.0  0.97088  0.36200  0.62246  1.0000
  Fe  Fe207     1.0  0.89709  0.33215  0.43972  1.0000
  H   H1637     1.0  0.84130  0.25044  0.44296  1.0000
  H   H1638     1.0  0.83591  0.24692  0.48425  1.0000
  C   C1358     1.0  0.83321  0.28075  0.43425  1.0000
  C   C1359     1.0  0.81881  0.29531  0.42780  1.0000
  C   C1360     1.0  0.80182  0.29083  0.42466  1.0000
  Fe  Fe208     1.0  0.87497  0.44820  0.31219  1.0000
  H   H1639     1.0  0.82097  0.30996  0.42475  1.0000
  H   H1640     1.0  0.79092  0.30216  0.41932  1.0000
  C   C1361     1.0  0.87021  0.40908  0.35141  1.0000
  C   C1362     1.0  0.87555  0.38973  0.35897  1.0000
  C   C1363     1.0  0.86885  0.38247  0.37804  1.0000
  C   C1364     1.0  0.85677  0.39455  0.38973  1.0000
  C   C1365     1.0  0.85132  0.41389  0.38213  1.0000
  C   C1366     1.0  0.85801  0.42116  0.36304  1.0000
  H   H1641     1.0  0.84189  0.42330  0.39108  1.0000
  H   H1642     1.0  0.98858  0.34173  0.44583  1.0000
  C   C1367     1.0  0.84315  0.24095  0.39203  1.0000
  H   H1643     1.0  0.94208  0.30861  0.52506  1.0000
  Fe  Fe209     1.0  0.77552  0.25166  0.58871  1.0000
  S   S393      1.0  0.98216  0.33862  0.48660  1.0000
  C   C1368     1.0  0.84403  0.43769  0.63146  1.0000
  C   C1369     1.0  0.87192  0.25257  0.39441  1.0000
  H   H1644     1.0  0.89222  0.38299  0.40424  1.0000
  C   C1370     1.0  0.94515  0.38351  0.57641  1.0000
  C   C1371     1.0  0.81091  0.30079  0.59030  1.0000
  H   H1645     1.0  0.97901  0.29706  0.57723  1.0000
  C   C1372     1.0  0.84305  0.26570  0.56012  1.0000
  C   C1373     1.0  0.97315  0.38602  0.54368  1.0000
  H   H1646     1.0  0.92803  0.37534  0.56034  1.0000
  C   C1374     1.0  0.88260  0.35287  0.53845  1.0000
  C   C1375     1.0  0.86692  0.34369  0.54663  1.0000
  C   C1376     1.0  0.85689  0.33787  0.53513  1.0000
  C   C1377     1.0  0.86277  0.34070  0.51545  1.0000
  C   C1378     1.0  0.87876  0.34946  0.50728  1.0000
  C   C1379     1.0  0.88854  0.35573  0.51876  1.0000
  H   H1647     1.0  0.86225  0.34141  0.56178  1.0000
  H   H1648     1.0  0.84442  0.33136  0.54152  1.0000
  H   H1649     1.0  0.88344  0.35162  0.49212  1.0000
  H   H1650     1.0  0.90072  0.36273  0.51235  1.0000
  H   H1651     1.0  0.87291  0.36752  0.38367  1.0000
  S   S394      1.0  0.88201  0.32446  0.63582  1.0000
  H   H1652     1.0  0.96364  0.37564  0.49601  1.0000
  H   H1653     1.0  0.86469  0.29669  0.52516  1.0000
  C   C1380     1.0  0.83745  0.25318  0.49583  1.0000
  S   S395      1.0  0.87996  0.33315  0.41713  1.0000
  H   H1654     1.0  0.77398  0.25862  0.62515  1.0000
  H   H1655     1.0  0.84589  0.27245  0.57125  1.0000
  H   H1656     1.0  0.76900  0.27427  0.46493  1.0000
  C   C1381     1.0  0.98623  0.44078  0.37256  1.0000
  H   H1657     1.0  0.83064  0.31761  0.59417  1.0000
  S   S396      1.0  0.77776  0.23670  0.56445  1.0000
  H   H1658     1.0  0.94707  0.35150  0.51635  1.0000
  H   H1659     1.0  0.86622  0.29002  0.54938  1.0000
  C   C1382     1.0  0.83019  0.26178  0.43804  1.0000
  C   C1383     1.0  0.82634  0.30378  0.59756  1.0000
  C   C1384     1.0  0.81308  0.25736  0.43521  1.0000
  C   C1385     1.0  0.83472  0.25228  0.52942  1.0000
  H   H1660     1.0  0.94549  0.41777  0.33393  1.0000
  H   H1661     1.0  0.90525  0.39510  0.41501  1.0000
  S   S397      1.0  0.88128  0.47411  0.32027  1.0000
  H   H1662     1.0  0.93505  0.36224  0.37237  1.0000
  H   H1663     1.0  0.80475  0.23801  0.40374  1.0000
  C   C1386     1.0  0.80612  0.30197  0.47964  1.0000
  C   C1387     1.0  0.97457  0.32111  0.61775  1.0000
  H   H1664     1.0  0.79763  0.28389  0.46529  1.0000
  H   H1665     1.0  0.82948  0.30594  0.52951  1.0000
  C   C1388     1.0  0.97181  0.29937  0.56527  1.0000
  C   C1389     1.0  0.82915  0.29552  0.54301  1.0000
  S   S398      1.0  0.72766  0.24187  0.55221  1.0000
  H   H1666     1.0  0.83668  0.39084  0.61248  1.0000
  H   H1667     1.0  0.86635  0.38713  0.57836  1.0000
  S   S399      1.0  0.77757  0.26685  0.42356  1.0000
  C   C1390     1.0  0.77758  0.24839  0.50742  1.0000
  H   H1668     1.0  0.71667  0.24265  0.51671  1.0000
  C   C1391     1.0  0.86348  0.28466  0.53727  1.0000
  H   H1669     1.0  0.99039  0.39310  0.56089  1.0000
  C   C1392     1.0  0.92237  0.36493  0.38364  1.0000
  H   H1670     1.0  0.83079  0.30315  0.55396  1.0000
  H   H1671     1.0  0.90830  0.36969  0.41940  1.0000
  H   H1672     1.0  0.92169  0.33046  0.47142  1.0000
  N   N93       1.0  0.84948  0.41140  0.59027  1.0000
  C   C1393     1.0  0.83376  0.40033  0.59896  1.0000
  C   C1394     1.0  0.84508  0.42234  0.57174  1.0000
  C   C1395     1.0  0.86757  0.39752  0.58697  1.0000
  C   C1396     1.0  0.85190  0.42450  0.60211  1.0000
  C   C1397     1.0  0.86599  0.43645  0.59547  1.0000
  C   C1398     1.0  0.84099  0.42545  0.62054  1.0000
  C   C1399     1.0  0.86897  0.44853  0.60657  1.0000
  H   H1673     1.0  0.96561  0.39089  0.58981  1.0000
  C   C1400     1.0  0.85801  0.44914  0.62453  1.0000
  H   H1674     1.0  0.81962  0.40986  0.60179  1.0000
  C   C1401     1.0  0.86214  0.27130  0.39181  1.0000
  C   C1402     1.0  0.94112  0.36367  0.63544  1.0000
  H   H1675     1.0  0.83206  0.43357  0.57370  1.0000
  C   C1403     1.0  0.90445  0.41400  0.37748  1.0000
  H   H1676     1.0  0.85712  0.42942  0.56328  1.0000
  H   H1677     1.0  0.87132  0.38932  0.60069  1.0000
  C   C1404     1.0  0.97660  0.38968  0.56045  1.0000
  H   H1678     1.0  0.88000  0.40444  0.57935  1.0000
  H   H1679     1.0  0.87514  0.43622  0.58181  1.0000
  H   H1680     1.0  0.83053  0.41639  0.62720  1.0000
  C   C1405     1.0  0.86269  0.23759  0.39433  1.0000
  H   H1681     1.0  0.55749  0.24821  0.32117  1.0000
  S   S400      1.0  0.59669  0.24272  0.32676  1.0000
  C   C1406     1.0  0.84430  0.27028  0.49200  1.0000
  H   H1682     1.0  0.74609  0.28782  0.49267  1.0000
  H   H1683     1.0  0.97259  0.34646  0.56613  1.0000
  S   S401      1.0  0.69257  0.24134  0.33374  1.0000
  H   H1684     1.0  0.85372  0.43607  0.35736  1.0000
  C   C1407     1.0  0.71371  0.23757  0.36167  1.0000
  C   C1408     1.0  0.93622  0.33299  0.46581  1.0000
  H   H1685     1.0  0.81017  0.24018  0.37827  1.0000
  N   N94       1.0  0.77145  0.26625  0.49451  1.0000
  C   C1409     1.0  0.96716  0.45226  0.30933  1.0000
  H   H1686     1.0  0.78848  0.25486  0.47022  1.0000
  H   H1687     1.0  0.79094  0.30631  0.52570  1.0000
  C   C1410     1.0  0.95042  0.30597  0.53630  1.0000
  N   N95       1.0  0.95160  0.37613  0.52553  1.0000
  C   C1411     1.0  0.84316  0.27517  0.38889  1.0000
  Fe  Fe210     1.0  0.76902  0.23760  0.42873  1.0000
  C   C1412     1.0  0.79894  0.27183  0.42820  1.0000
  H   H1688     1.0  0.94159  0.36697  0.41113  1.0000
  H   H1689     1.0  0.75562  0.29105  0.61766  1.0000
  H   H1690     1.0  0.88018  0.45713  0.60150  1.0000
  C   C1413     1.0  0.83258  0.24424  0.51451  1.0000
  C   C1414     1.0  0.94327  0.33432  0.44640  1.0000
  N   N96       1.0  0.84443  0.27854  0.54139  1.0000
  C   C1415     1.0  0.95674  0.33320  0.59201  1.0000
  C   C1416     1.0  0.83369  0.26030  0.38904  1.0000
  H   H1691     1.0  0.97523  0.31370  0.63208  1.0000
  H   H1692     1.0  0.76430  0.25094  0.47549  1.0000
  H   H1693     1.0  0.90654  0.41867  0.62753  1.0000
  H   H1694     1.0  0.81073  0.25411  0.60972  1.0000
  H   H1695     1.0  0.74143  0.26390  0.49904  1.0000
  H   H1696     1.0  0.81087  0.24277  0.43833  1.0000
  C   C1417     1.0  0.98159  0.30268  0.54622  1.0000
  C   C1418     1.0  0.95547  0.38087  0.54282  1.0000
  H   H1697     1.0  0.93452  0.38213  0.58926  1.0000
  C   C1419     1.0  0.78301  0.28060  0.49493  1.0000
  H   H1698     1.0  0.81261  0.31919  0.49699  1.0000
  C   C1420     1.0  0.79562  0.28824  0.47879  1.0000
  H   H1699     1.0  0.77403  0.25008  0.52251  1.0000
  H   H1700     1.0  0.89044  0.44074  0.36331  1.0000
  C   C1421     1.0  0.96723  0.37882  0.50890  1.0000
  C   C1422     1.0  0.94923  0.35590  0.52924  1.0000
  H   H1701     1.0  0.94368  0.33514  0.58633  1.0000
  H   H1702     1.0  0.93658  0.35302  0.54037  1.0000
  H   H1703     1.0  0.97651  0.30889  0.51710  1.0000
  S   S402      1.0  0.85469  0.29213  0.61989  1.0000
  C   C1423     1.0  0.90631  0.38258  0.40825  1.0000
  H   H1704     1.0  0.81877  0.26440  0.38741  1.0000
  C   C1424     1.0  0.80444  0.30849  0.49648  1.0000
  S   S403      1.0  0.92916  0.33164  0.43058  1.0000
  H   H1705     1.0  0.92269  0.35171  0.39454  1.0000
  C   C1425     1.0  0.83592  0.28894  0.60952  1.0000
  S   S404      1.0  0.74339  0.25344  0.59686  1.0000
  C   C1426     1.0  0.80526  0.28286  0.59451  1.0000
  H   H1706     1.0  0.91674  0.44315  0.33571  1.0000
  H   H1707     1.0  0.96214  0.34630  0.53396  1.0000
  S   S405      1.0  0.87928  0.41743  0.32741  1.0000
  C   C1427     1.0  0.93418  0.41680  0.34625  1.0000
  S   S406      1.0  0.74141  0.23158  0.44813  1.0000
  C   C1428     1.0  0.75073  0.27346  0.50089  1.0000
  H   H1708     1.0  0.71051  0.25072  0.63203  1.0000
  H   H1709     1.0  0.93454  0.40370  0.51804  1.0000
  H   H1710     1.0  0.93061  0.38539  0.50699  1.0000
  C   C1429     1.0  0.94131  0.30269  0.55509  1.0000
  H   H1711     1.0  0.84241  0.41293  0.56282  1.0000
  H   H1712     1.0  0.82834  0.26220  0.56534  1.0000
  H   H1713     1.0  0.98472  0.38704  0.53171  1.0000
  C   C1430     1.0  0.93363  0.38833  0.52023  1.0000
  C   C1431     1.0  0.97023  0.30600  0.53189  1.0000
  H   H1714     1.0  0.97346  0.44582  0.43432  1.0000
  C   C1432     1.0  0.95198  0.29935  0.56954  1.0000
  C   C1433     1.0  0.90326  0.42980  0.36285  1.0000
  H   H1715     1.0  0.84794  0.27733  0.47746  1.0000
  H   H1716     1.0  0.92592  0.30280  0.55848  1.0000
  H   H1717     1.0  0.94159  0.39212  0.40431  1.0000
  H   H1718     1.0  0.85365  0.25220  0.55960  1.0000
  H   H1719     1.0  0.94280  0.33290  0.49308  1.0000
  C   C1434     1.0  0.91802  0.43116  0.34725  1.0000
  H   H1720     1.0  0.73073  0.23437  0.38340  1.0000
  C   C1435     1.0  0.94822  0.33439  0.47806  1.0000
  C   C1436     1.0  0.92074  0.39907  0.37690  1.0000
  H   H1721     1.0  0.89223  0.39285  0.62187  1.0000
  C   C1437     1.0  0.83006  0.27109  0.61395  1.0000
  C   C1438     1.0  0.96266  0.38841  0.57677  1.0000
  H   H1722     1.0  0.85118  0.29210  0.50296  1.0000
  C   C1439     1.0  0.94158  0.37971  0.55974  1.0000
  H   H1723     1.0  0.83548  0.28976  0.38731  1.0000
  H   H1724     1.0  0.81461  0.29147  0.54706  1.0000
  H   H1725     1.0  0.72352  0.24500  0.35081  1.0000
  C   C1440     1.0  0.96216  0.33757  0.43929  1.0000
  H   H1726     1.0  0.96993  0.39374  0.50533  1.0000
  C   C1441     1.0  0.76312  0.25689  0.63836  1.0000
  S   S407      1.0  0.78674  0.27949  0.58390  1.0000
  C   C1442     1.0  0.95966  0.36738  0.63338  1.0000
  H   H1727     1.0  0.88663  0.24968  0.39687  1.0000
  C   C1443     1.0  0.97399  0.33940  0.45146  1.0000
  H   H1728     1.0  0.96777  0.33846  0.42432  1.0000
  H   H1729     1.0  0.77284  0.28189  0.52489  1.0000
  C   C1444     1.0  0.81488  0.26800  0.60640  1.0000
  C   C1445     1.0  0.77346  0.26146  0.47545  1.0000
  H   H1730     1.0  0.79337  0.24332  0.50397  1.0000
  H   H1731     1.0  0.83733  0.25957  0.62329  1.0000
  C   C1446     1.0  0.98985  0.44850  0.38704  1.0000
  H   H1732     1.0  0.83221  0.39074  0.58966  1.0000
  H   H1733     1.0  0.90924  0.36673  0.37736  1.0000
  H   H1734     1.0  0.81569  0.30754  0.46712  1.0000
  C   C1447     1.0  0.96715  0.33754  0.47092  1.0000
  H   H1735     1.0  0.86085  0.45799  0.63340  1.0000
  H   H1736     1.0  0.98696  0.46182  0.43899  1.0000
  H   H1737     1.0  0.83053  0.24466  0.54353  1.0000
  H   H1738     1.0  0.98090  0.36896  0.51127  1.0000
  C   C1448     1.0  0.98154  0.46289  0.30828  1.0000
  C   C1449     1.0  0.99002  0.33735  0.58787  1.0000
  H   H1739     1.0  0.75073  0.25218  0.63510  1.0000
  H   H1740     1.0  0.94480  0.29702  0.58421  1.0000
  C   C1450     1.0  0.69702  0.23398  0.35717  1.0000
  H   H1741     1.0  0.77035  0.23676  0.50637  1.0000
  H   H1742     1.0  0.98190  0.45006  0.35995  1.0000
  H   H1743     1.0  0.93790  0.35546  0.62623  1.0000
  C   C1451     1.0  0.98393  0.45556  0.42760  1.0000
  C   C1452     1.0  0.99068  0.32830  0.60656  1.0000
  C   C1453     1.0  0.88659  0.39900  0.63446  1.0000
  C   C1454     1.0  0.89470  0.41363  0.63771  1.0000
  H   H1744     1.0  0.98754  0.46383  0.38535  1.0000
  H   H1745     1.0  0.96950  0.43720  0.31514  1.0000
  H   H1746     1.0  0.77335  0.30769  0.62821  1.0000
  H   H1747     1.0  0.73353  0.28403  0.63010  1.0000
  C   C1455     1.0  0.56227  0.23315  0.32566  1.0000
  C   C1456     1.0  0.74648  0.28896  0.63198  1.0000
  H   H1748     1.0  0.80245  0.31564  0.63344  1.0000
  H   H1749     1.0  0.74134  0.30297  0.63670  1.0000
  C   C1457     1.0  0.71785  0.23153  0.38013  1.0000
  H   H1750     1.0  0.98672  0.41522  0.36230  1.0000
  C   C1458     1.0  0.98890  0.42112  0.37386  1.0000
  H   H1751     1.0  0.91979  0.48110  0.33459  1.0000
  C   C1459     1.0  0.78066  0.29806  0.63883  1.0000
  Fe  Fe211     1.0  0.89238  0.45166  0.68432  1.0000
  S   S408      1.0  0.88720  0.43290  0.71270  1.0000
  S   S409      1.0  0.65685  0.23147  0.73816  1.0000
  H   H1752     1.0  0.93413  0.38287  0.69795  1.0000
  S   S410      1.0  0.89720  0.46679  0.73089  1.0000
  C   C1460     1.0  0.87079  0.39291  0.64718  1.0000
  Fe  Fe212     1.0  0.91349  0.44163  0.71768  1.0000
  S   S411      1.0  0.94020  0.42126  0.72454  1.0000
  Fe  Fe213     1.0  0.87130  0.46000  0.72308  1.0000
  S   S412      1.0  0.84106  0.46436  0.74024  1.0000
  S   S413      1.0  0.91950  0.45877  0.68886  1.0000
  C   C1461     1.0  0.67936  0.46134  0.95596  1.0000
  H   H1753     1.0  0.92542  0.41294  0.67755  1.0000
  H   H1754     1.0  0.80501  0.47307  0.76426  1.0000
  H   H1755     1.0  0.67846  0.29234  0.96123  1.0000
  Fe  Fe214     1.0  0.74931  0.44144  0.84964  1.0000
  S   S414      1.0  0.77586  0.43177  0.86287  1.0000
  S   S415      1.0  0.74179  0.41688  0.83971  1.0000
  Fe  Fe215     1.0  0.76089  0.45058  0.88401  1.0000
  S   S416      1.0  0.76003  0.43895  0.91523  1.0000
  Fe  Fe216     1.0  0.78633  0.45764  0.84455  1.0000
  S   S417      1.0  0.81745  0.45613  0.82958  1.0000
  S   S418      1.0  0.73348  0.45850  0.87216  1.0000
  S   S419      1.0  0.76076  0.46634  0.82998  1.0000
  Fe  Fe217     1.0  0.64789  0.37210  0.85231  1.0000
  S   S420      1.0  0.66654  0.34372  0.84897  1.0000
  S   S421      1.0  0.65697  0.40097  0.84775  1.0000
  Fe  Fe218     1.0  0.61094  0.35502  0.86301  1.0000
  S   S422      1.0  0.57897  0.35869  0.87310  1.0000
  Fe  Fe219     1.0  0.64740  0.33270  0.87586  1.0000
  S   S423      1.0  0.65856  0.31106  0.89967  1.0000
  H   H1756     1.0  0.94257  0.42227  0.65832  1.0000
  S   S424      1.0  0.63030  0.36126  0.88019  1.0000
  S   S425      1.0  0.62660  0.36864  0.83557  1.0000
  C   C1462     1.0  0.87201  0.41552  0.66691  1.0000
  Fe  Fe220     1.0  0.64390  0.25097  0.71426  1.0000
  H   H1757     1.0  0.81121  0.26462  0.67429  1.0000
  S   S426      1.0  0.52930  0.35713  0.81252  1.0000
  H   H1758     1.0  0.72942  0.41087  0.88580  1.0000
  Fe  Fe221     1.0  0.64392  0.33927  0.83407  1.0000
  C   C1463     1.0  0.70240  0.40069  0.89474  1.0000
  H   H1759     1.0  0.79541  0.43642  0.81395  1.0000
  H   H1760     1.0  0.83799  0.40031  0.82039  1.0000
  C   C1464     1.0  0.56509  0.35920  0.85602  1.0000
  C   C1465     1.0  0.54575  0.35714  0.86181  1.0000
  C   C1466     1.0  0.53463  0.35663  0.84850  1.0000
  C   C1467     1.0  0.54272  0.35858  0.82928  1.0000
  C   C1468     1.0  0.56196  0.36101  0.82344  1.0000
  C   C1469     1.0  0.57321  0.36105  0.83681  1.0000
  H   H1761     1.0  0.53939  0.35579  0.87664  1.0000
  H   H1762     1.0  0.51978  0.35480  0.85309  1.0000
  H   H1763     1.0  0.56822  0.36270  0.80857  1.0000
  H   H1764     1.0  0.58809  0.36271  0.83222  1.0000
  C   C1470     1.0  0.65928  0.31550  0.92220  1.0000
  H   H1765     1.0  0.77454  0.42663  0.81515  1.0000
  H   H1766     1.0  0.66552  0.36327  0.80548  1.0000
  H   H1767     1.0  0.64159  0.34339  0.91975  1.0000
  H   H1768     1.0  0.78880  0.40032  0.78833  1.0000
  C   C1471     1.0  0.71814  0.41274  0.84193  1.0000
  C   C1472     1.0  0.71541  0.39455  0.84076  1.0000
  C   C1473     1.0  0.69678  0.39068  0.84246  1.0000
  C   C1474     1.0  0.68076  0.40512  0.84493  1.0000
  C   C1475     1.0  0.68353  0.42340  0.84574  1.0000
  C   C1476     1.0  0.70212  0.42715  0.84450  1.0000
  H   H1769     1.0  0.72776  0.38333  0.83875  1.0000
  H   H1770     1.0  0.69488  0.37652  0.84191  1.0000
  H   H1771     1.0  0.67120  0.43467  0.84757  1.0000
  H   H1772     1.0  0.70407  0.44124  0.84528  1.0000
  C   C1477     1.0  0.75607  0.45462  0.93149  1.0000
  C   C1478     1.0  0.56189  0.26584  0.80976  1.0000
  C   C1479     1.0  0.97380  0.39798  0.67022  1.0000
  C   C1480     1.0  0.94954  0.38455  0.66019  1.0000
  C   C1481     1.0  0.93075  0.38070  0.66170  1.0000
  C   C1482     1.0  0.75541  0.44697  0.95079  1.0000
  H   H1773     1.0  0.83605  0.43769  0.64574  1.0000
  C   C1483     1.0  0.50754  0.33506  0.93339  1.0000
  S   S427      1.0  0.64843  0.33233  0.80450  1.0000
  H   H1774     1.0  0.52643  0.30143  0.73675  1.0000
  H   H1775     1.0  0.78878  0.43371  0.79269  1.0000
  C   C1484     1.0  0.58679  0.30012  0.76889  1.0000
  H   H1776     1.0  0.53077  0.25947  0.73602  1.0000
  C   C1485     1.0  0.78957  0.42689  0.80760  1.0000
  H   H1777     1.0  0.77770  0.39307  0.81210  1.0000
  C   C1486     1.0  0.80197  0.40049  0.82981  1.0000
  H   H1778     1.0  0.86613  0.42202  0.67931  1.0000
  C   C1487     1.0  0.83511  0.46247  0.76507  1.0000
  C   C1488     1.0  0.81579  0.46788  0.77323  1.0000
  C   C1489     1.0  0.81031  0.46663  0.79291  1.0000
  C   C1490     1.0  0.82404  0.45948  0.80467  1.0000
  C   C1491     1.0  0.84344  0.45449  0.79648  1.0000
  C   C1492     1.0  0.84899  0.45601  0.77674  1.0000
  C   C1493     1.0  0.80838  0.29085  0.65441  1.0000
  C   C1494     1.0  0.55876  0.24373  0.72640  1.0000
  H   H1779     1.0  0.85417  0.44901  0.80548  1.0000
  H   H1780     1.0  0.86391  0.45177  0.77060  1.0000
  C   C1495     1.0  0.95801  0.43397  0.72549  1.0000
  C   C1496     1.0  0.95278  0.45044  0.73352  1.0000
  H   H1781     1.0  0.71869  0.44065  0.92818  1.0000
  H   H1782     1.0  0.64722  0.29425  0.82711  1.0000
  C   C1497     1.0  0.86365  0.40112  0.66348  1.0000
  H   H1783     1.0  0.68754  0.46861  0.96258  1.0000
  H   H1784     1.0  0.93788  0.45520  0.73931  1.0000
  H   H1785     1.0  0.53376  0.27809  0.82301  1.0000
  H   H1786     1.0  0.53687  0.33054  0.78325  1.0000
  H   H1787     1.0  0.55856  0.35077  0.93545  1.0000
  H   H1788     1.0  0.75794  0.43167  0.95536  1.0000
  H   H1789     1.0  0.69098  0.37798  0.76840  1.0000
  H   H1790     1.0  0.52007  0.27878  0.76684  1.0000
  C   C1498     1.0  0.60036  0.34200  0.96785  1.0000
  C   C1499     1.0  0.53251  0.28241  0.77121  1.0000
  H   H1791     1.0  0.55914  0.31553  0.94798  1.0000
  Fe  Fe222     1.0  0.50200  0.34591  0.82590  1.0000
  H   H1792     1.0  0.69030  0.36471  0.80200  1.0000
  N   N97       1.0  0.67209  0.39079  0.79118  1.0000
  C   C1500     1.0  0.67611  0.38586  0.77201  1.0000
  C   C1501     1.0  0.67556  0.37303  0.80512  1.0000
  C   C1502     1.0  0.65128  0.39903  0.79534  1.0000
  C   C1503     1.0  0.68498  0.40370  0.79222  1.0000
  C   C1504     1.0  0.67799  0.42207  0.79717  1.0000
  C   C1505     1.0  0.70527  0.39774  0.78880  1.0000
  C   C1506     1.0  0.69062  0.43357  0.79863  1.0000
  C   C1507     1.0  0.71775  0.40929  0.79049  1.0000
  C   C1508     1.0  0.71043  0.42715  0.79544  1.0000
  H   H1793     1.0  0.67420  0.39891  0.76102  1.0000
  H   H1794     1.0  0.67352  0.37632  0.81956  1.0000
  H   H1795     1.0  0.64746  0.41229  0.78514  1.0000
  H   H1796     1.0  0.64202  0.38893  0.79447  1.0000
  H   H1797     1.0  0.64703  0.40222  0.80999  1.0000
  H   H1798     1.0  0.66282  0.42769  0.80054  1.0000
  H   H1799     1.0  0.71163  0.38389  0.78520  1.0000
  H   H1800     1.0  0.68498  0.44731  0.80290  1.0000
  H   H1801     1.0  0.73316  0.40422  0.78835  1.0000
  H   H1802     1.0  0.72010  0.43586  0.79726  1.0000
  C   C1509     1.0  0.69398  0.47263  0.92361  1.0000
  H   H1803     1.0  0.81051  0.38584  0.83230  1.0000
  S   S428      1.0  0.89649  0.44189  0.65618  1.0000
  C   C1510     1.0  0.57060  0.29570  0.76436  1.0000
  H   H1804     1.0  0.68064  0.26893  0.64812  1.0000
  S   S429      1.0  0.62671  0.32547  0.86063  1.0000
  C   C1511     1.0  0.70916  0.44378  0.94161  1.0000
  H   H1805     1.0  0.94422  0.42231  0.68244  1.0000
  H   H1806     1.0  0.54107  0.31910  0.73509  1.0000
  H   H1807     1.0  0.85139  0.39654  0.67334  1.0000
  H   H1808     1.0  0.66568  0.36839  0.93222  1.0000
  C   C1512     1.0  0.69307  0.23640  0.68607  1.0000
  C   C1513     1.0  0.58490  0.31544  0.77799  1.0000
  C   C1514     1.0  0.68228  0.25169  0.67567  1.0000
  H   H1809     1.0  0.60397  0.29474  0.85841  1.0000
  C   C1515     1.0  0.68892  0.25707  0.65623  1.0000
  Fe  Fe223     1.0  0.63351  0.24804  0.75723  1.0000
  H   H1810     1.0  0.54524  0.27172  0.76679  1.0000
  N   N98       1.0  0.95356  0.39489  0.67378  1.0000
  C   C1516     1.0  0.55192  0.30650  0.76891  1.0000
  H   H1811     1.0  0.97778  0.40641  0.65589  1.0000
  H   H1812     1.0  0.66506  0.36746  0.89232  1.0000
  C   C1517     1.0  0.68873  0.47611  0.90542  1.0000
  C   C1518     1.0  0.67755  0.37253  0.89498  1.0000
  H   H1813     1.0  0.66514  0.45130  0.92942  1.0000
  C   C1519     1.0  0.82084  0.40848  0.79760  1.0000
  C   C1520     1.0  0.82286  0.41402  0.77763  1.0000
  C   C1521     1.0  0.83803  0.40409  0.80537  1.0000
  C   C1522     1.0  0.84092  0.41473  0.76617  1.0000
  C   C1523     1.0  0.85604  0.40481  0.79375  1.0000
  C   C1524     1.0  0.85748  0.41004  0.77420  1.0000
  H   H1814     1.0  0.52964  0.28028  0.78693  1.0000
  H   H1815     1.0  0.81046  0.41819  0.77069  1.0000
  H   H1816     1.0  0.84205  0.41950  0.75100  1.0000
  H   H1817     1.0  0.86895  0.40162  0.79996  1.0000
  H   H1818     1.0  0.87142  0.41095  0.76527  1.0000
  S   S430      1.0  0.57085  0.25709  0.73569  1.0000
  H   H1819     1.0  0.68603  0.37706  0.88086  1.0000
  C   C1525     1.0  0.59601  0.32359  0.91159  1.0000
  C   C1526     1.0  0.60426  0.31019  0.95112  1.0000
  H   H1820     1.0  0.58874  0.32430  0.89949  1.0000
  H   H1821     1.0  0.65465  0.41646  0.90367  1.0000
  H   H1822     1.0  0.62347  0.29613  0.97068  1.0000
  C   C1527     1.0  0.67948  0.44330  0.93228  1.0000
  C   C1528     1.0  0.56208  0.39264  0.96877  1.0000
  H   H1823     1.0  0.80807  0.41010  0.83596  1.0000
  H   H1824     1.0  0.66563  0.47113  0.95365  1.0000
  H   H1825     1.0  0.71163  0.39555  0.94576  1.0000
  C   C1529     1.0  0.55043  0.32167  0.77879  1.0000
  H   H1826     1.0  0.55158  0.29444  0.73647  1.0000
  H   H1827     1.0  0.95348  0.39065  0.70379  1.0000
  H   H1828     1.0  0.95801  0.36912  0.69419  1.0000
  N   N99       1.0  0.53523  0.30225  0.76285  1.0000
  H   H1829     1.0  0.97627  0.40598  0.68055  1.0000
  H   H1830     1.0  0.68171  0.46657  0.90106  1.0000
  S   S431      1.0  0.66036  0.26418  0.68636  1.0000
  H   H1831     1.0  0.73535  0.40754  0.91839  1.0000
  C   C1530     1.0  0.94093  0.41387  0.67295  1.0000
  N   N100      1.0  0.80152  0.40760  0.80936  1.0000
  C   C1531     1.0  0.69227  0.39218  0.92855  1.0000
  H   H1832     1.0  0.56671  0.38644  0.95612  1.0000
  H   H1833     1.0  0.65224  0.39250  0.93230  1.0000
  S   S432      1.0  0.62200  0.26884  0.73325  1.0000
  N   N101      1.0  0.69044  0.45554  0.93801  1.0000
  H   H1834     1.0  0.75305  0.48044  0.91091  1.0000
  H   H1835     1.0  0.78183  0.25585  0.67001  1.0000
  H   H1836     1.0  0.96277  0.47272  0.74161  1.0000
  H   H1837     1.0  0.68265  0.38706  0.94111  1.0000
  S   S433      1.0  0.62347  0.23210  0.71318  1.0000
  H   H1838     1.0  0.67675  0.43083  0.94364  1.0000
  H   H1839     1.0  0.66835  0.41040  0.88187  1.0000
  C   C1532     1.0  0.65994  0.40462  0.89550  1.0000
  C   C1533     1.0  0.51504  0.33545  0.91406  1.0000
  N   N102      1.0  0.58422  0.29964  0.83882  1.0000
  C   C1534     1.0  0.59389  0.31405  0.82483  1.0000
  C   C1535     1.0  0.56942  0.30991  0.85229  1.0000
  C   C1536     1.0  0.59855  0.28692  0.84977  1.0000
  C   C1537     1.0  0.57622  0.28838  0.82880  1.0000
  C   C1538     1.0  0.55612  0.28883  0.83061  1.0000
  C   C1539     1.0  0.58869  0.27649  0.81667  1.0000
  C   C1540     1.0  0.54916  0.27765  0.82124  1.0000
  C   C1541     1.0  0.58162  0.26535  0.80740  1.0000
  C   C1542     1.0  0.75116  0.45898  0.96429  1.0000
  H   H1840     1.0  0.58347  0.32424  0.81674  1.0000
  H   H1841     1.0  0.60061  0.32253  0.83170  1.0000
  H   H1842     1.0  0.60553  0.30746  0.81443  1.0000
  H   H1843     1.0  0.55874  0.32056  0.84487  1.0000
  H   H1844     1.0  0.57589  0.31811  0.85970  1.0000
  H   H1845     1.0  0.56160  0.29991  0.86334  1.0000
  H   H1846     1.0  0.61151  0.28052  0.84053  1.0000
  C   C1543     1.0  0.88732  0.42210  0.65382  1.0000
  H   H1847     1.0  0.59219  0.27502  0.85949  1.0000
  H   H1848     1.0  0.54546  0.29763  0.83922  1.0000
  H   H1849     1.0  0.60408  0.27569  0.81418  1.0000
  S   S434      1.0  0.77410  0.47548  0.86713  1.0000
  C   C1544     1.0  0.96395  0.37759  0.64556  1.0000
  H   H1850     1.0  0.98414  0.38423  0.67159  1.0000
  S   S435      1.0  0.85853  0.37643  0.64235  1.0000
  H   H1851     1.0  0.64557  0.37688  0.92029  1.0000
  C   C1545     1.0  0.97745  0.42773  0.71828  1.0000
  S   S436      1.0  0.63620  0.25495  0.78534  1.0000
  N   N103      1.0  0.75703  0.27495  0.64581  1.0000
  C   C1546     1.0  0.79188  0.39477  0.80286  1.0000
  C   C1547     1.0  0.71898  0.40572  0.89778  1.0000
  Fe  Fe224     1.0  0.60289  0.24787  0.73438  1.0000
  H   H1852     1.0  0.66633  0.37641  0.77077  1.0000
  H   H1853     1.0  0.64720  0.40070  0.89194  1.0000
  C   C1548     1.0  0.65823  0.38117  0.92359  1.0000
  C   C1549     1.0  0.75270  0.47443  0.92573  1.0000
  H   H1854     1.0  0.70738  0.42993  0.95109  1.0000
  S   S437      1.0  0.49269  0.28180  0.81861  1.0000
  C   C1550     1.0  0.53862  0.24793  0.72881  1.0000
  H   H1855     1.0  0.68655  0.35999  0.90243  1.0000
  H   H1856     1.0  0.79539  0.47091  0.79899  1.0000
  H   H1857     1.0  0.80095  0.38035  0.80297  1.0000
  H   H1858     1.0  0.78720  0.39991  0.83818  1.0000
  H   H1859     1.0  0.57724  0.29863  0.93652  1.0000
  C   C1551     1.0  0.64991  0.33245  0.92866  1.0000
  C   C1552     1.0  0.56675  0.32610  0.78304  1.0000
  C   C1553     1.0  0.68853  0.39373  0.91000  1.0000
  H   H1860     1.0  0.68825  0.23232  0.70110  1.0000
  C   C1554     1.0  0.98628  0.45442  0.72732  1.0000
  C   C1555     1.0  0.70899  0.39709  0.93145  1.0000
  H   H1861     1.0  0.49268  0.24704  0.80623  1.0000
  H   H1862     1.0  0.57292  0.28387  0.75703  1.0000
  H   H1863     1.0  0.63852  0.29286  0.76216  1.0000
  S   S438      1.0  0.52144  0.33936  0.94859  1.0000
  C   C1556     1.0  0.64519  0.29407  0.81300  1.0000
  H   H1864     1.0  0.64300  0.26424  0.81890  1.0000
  S   S439      1.0  0.59953  0.39588  0.96540  1.0000
  C   C1557     1.0  0.64529  0.31066  0.79933  1.0000
  H   H1865     1.0  0.60646  0.29757  0.94493  1.0000
  H   H1866     1.0  0.60606  0.33400  0.90706  1.0000
  H   H1867     1.0  0.67661  0.28796  0.92935  1.0000
  S   S440      1.0  0.87453  0.47836  0.69399  1.0000
  C   C1558     1.0  0.66943  0.30113  0.93415  1.0000
  H   H1868     1.0  0.56166  0.34653  0.91200  1.0000
  H   H1869     1.0  0.60498  0.30917  0.91389  1.0000
  C   C1559     1.0  0.65094  0.33492  0.94696  1.0000
  H   H1870     1.0  0.98158  0.41494  0.71215  1.0000
  C   C1560     1.0  0.78561  0.26920  0.66204  1.0000
  H   H1871     1.0  0.70065  0.40204  0.88028  1.0000
  H   H1872     1.0  0.57846  0.35815  0.91760  1.0000
  C   C1561     1.0  0.56970  0.34668  0.92330  1.0000
  N   N104      1.0  0.58190  0.32789  0.92867  1.0000
  H   H1873     1.0  0.91902  0.38561  0.67238  1.0000
  C   C1562     1.0  0.64295  0.31006  0.78096  1.0000
  H   H1874     1.0  0.64311  0.32279  0.77025  1.0000
  C   C1563     1.0  0.74329  0.27177  0.66386  1.0000
  C   C1564     1.0  0.72233  0.40383  0.91611  1.0000
  C   C1565     1.0  0.64037  0.29311  0.77632  1.0000
  H   H1875     1.0  0.74927  0.25978  0.67433  1.0000
  C   C1566     1.0  0.77422  0.28100  0.64899  1.0000
  H   H1876     1.0  0.59757  0.31904  0.78107  1.0000
  H   H1877     1.0  0.64326  0.34774  0.95211  1.0000
  C   C1567     1.0  0.59073  0.34324  0.95293  1.0000
  C   C1568     1.0  0.59223  0.32726  0.94422  1.0000
  H   H1878     1.0  0.97871  0.37965  0.64333  1.0000
  S   S441      1.0  0.50491  0.31741  0.84494  1.0000
  C   C1569     1.0  0.67050  0.30362  0.95224  1.0000
  N   N105      1.0  0.67135  0.38809  0.90622  1.0000
  C   C1570     1.0  0.56911  0.31344  0.93447  1.0000
  C   C1571     1.0  0.51682  0.31498  0.76852  1.0000
  H   H1879     1.0  0.55649  0.25708  0.80264  1.0000
  H   H1880     1.0  0.51758  0.33022  0.76251  1.0000
  C   C1572     1.0  0.64032  0.27650  0.78998  1.0000
  H   H1881     1.0  0.59161  0.25637  0.79826  1.0000
  H   H1882     1.0  0.56519  0.33806  0.79014  1.0000
  C   C1573     1.0  0.70586  0.24681  0.64710  1.0000
  H   H1883     1.0  0.50471  0.31167  0.76337  1.0000
  C   C1574     1.0  0.80246  0.27408  0.66462  1.0000
  C   C1575     1.0  0.96691  0.46037  0.73479  1.0000
  H   H1884     1.0  0.52945  0.33829  0.90852  1.0000
  C   C1576     1.0  0.64285  0.27707  0.80829  1.0000
  H   H1885     1.0  0.76954  0.24490  0.64856  1.0000
  C   C1577     1.0  0.66136  0.32049  0.95876  1.0000
  C   C1578     1.0  0.61393  0.30914  0.96598  1.0000
  H   H1886     1.0  0.72984  0.26795  0.66174  1.0000
  C   C1579     1.0  0.50372  0.33266  0.90179  1.0000
  C   C1580     1.0  0.74773  0.47876  0.95857  1.0000
  H   H1887     1.0  0.60090  0.29163  0.76524  1.0000
  C   C1581     1.0  0.94961  0.38388  0.69323  1.0000
  H   H1888     1.0  0.98013  0.47923  0.68232  1.0000
  H   H1889     1.0  0.55992  0.31443  0.92377  1.0000
  H   H1890     1.0  0.50937  0.33345  0.88684  1.0000
  C   C1582     1.0  0.53871  0.30443  0.74192  1.0000
  C   C1583     1.0  0.92671  0.37028  0.64959  1.0000
  H   H1891     1.0  0.71708  0.45099  0.94853  1.0000
  H   H1892     1.0  0.58234  0.35693  0.94838  1.0000
  H   H1893     1.0  0.67569  0.44880  0.96681  1.0000
  H   H1894     1.0  0.51280  0.31328  0.78420  1.0000
  C   C1584     1.0  0.52850  0.23712  0.72209  1.0000
  H   H1895     1.0  0.68762  0.43733  0.91957  1.0000
  H   H1896     1.0  0.73913  0.28475  0.67047  1.0000
  C   C1585     1.0  0.79744  0.30287  0.64168  1.0000
  S   S442      1.0  0.64985  0.37767  0.97133  1.0000
  H   H1897     1.0  0.51295  0.24036  0.72417  1.0000
  H   H1898     1.0  0.82179  0.29432  0.65596  1.0000
  H   H1899     1.0  0.91233  0.36721  0.65124  1.0000
  S   S443      1.0  0.49146  0.38179  0.97019  1.0000
  C   C1586     1.0  0.71641  0.23127  0.65745  1.0000
  H   H1900     1.0  0.53280  0.38847  0.97239  1.0000
  H   H1901     1.0  0.70484  0.54164  0.14267  1.0000
  H   H1902     1.0  0.82297  0.52253  0.05049  1.0000
  C   C1587     1.0  0.71941  0.55029  0.06269  1.0000
  C   C1588     1.0  0.62260  0.70867  0.15957  1.0000
  H   H1903     1.0  0.67895  0.55903  0.09530  1.0000
  H   H1904     1.0  0.74451  0.67506  0.07250  1.0000
  H   H1905     1.0  0.70639  0.59133  0.12335  1.0000
  H   H1906     1.0  0.64803  0.67443  0.00170  1.0000
  C   C1589     1.0  0.89184  0.60371  0.25233  1.0000
  H   H1907     1.0  0.50824  0.72891  0.05600  1.0000
  H   H1908     1.0  0.77446  0.49564  0.23227  1.0000
  H   H1909     1.0  0.69248  0.69668  0.01567  1.0000
  C   C1590     1.0  0.78935  0.52167  0.00168  1.0000
  S   S444      1.0  0.85476  0.63718  0.27588  1.0000
  C   C1591     1.0  0.77744  0.50861  0.23520  1.0000
  H   H1910     1.0  0.81091  0.62311  0.29893  1.0000
  H   H1911     1.0  0.63062  0.70936  0.17017  1.0000
  N   N106      1.0  0.65267  0.70438  0.13423  1.0000
  Fe  Fe225     1.0  0.75288  0.59795  0.20683  1.0000
  S   S445      1.0  0.78355  0.58322  0.20434  1.0000
  S   S446      1.0  0.72733  0.58317  0.21647  1.0000
  Fe  Fe226     1.0  0.76315  0.63735  0.19522  1.0000
  S   S447      1.0  0.79500  0.62572  0.19200  1.0000
  S   S448      1.0  0.75379  0.66936  0.18755  1.0000
  Fe  Fe227     1.0  0.78803  0.60448  0.17754  1.0000
  S   S449      1.0  0.80899  0.59623  0.15198  1.0000
  Fe  Fe228     1.0  0.78789  0.60555  0.21921  1.0000
  S   S450      1.0  0.80514  0.59344  0.24318  1.0000
  S   S451      1.0  0.75690  0.61746  0.17876  1.0000
  S   S452      1.0  0.75648  0.61892  0.22368  1.0000
  C   C1592     1.0  0.72903  0.67931  0.18953  1.0000
  C   C1593     1.0  0.72333  0.69921  0.18582  1.0000
  H   H1912     1.0  0.73416  0.70823  0.18157  1.0000
  C   C1594     1.0  0.84177  0.62450  0.26640  1.0000
  C   C1595     1.0  0.84261  0.60477  0.27179  1.0000
  C   C1596     1.0  0.83145  0.59546  0.26441  1.0000
  C   C1597     1.0  0.81956  0.60568  0.25138  1.0000
  C   C1598     1.0  0.81905  0.62530  0.24570  1.0000
  C   C1599     1.0  0.83008  0.63464  0.25320  1.0000
  H   H1913     1.0  0.85176  0.59672  0.28170  1.0000
  H   H1914     1.0  0.83194  0.58027  0.26889  1.0000
  H   H1915     1.0  0.81001  0.63332  0.23565  1.0000
  H   H1916     1.0  0.82945  0.64986  0.24882  1.0000
  H   H1917     1.0  0.83236  0.58878  0.08675  1.0000
  H   H1918     1.0  0.84363  0.54437  0.06657  1.0000
  N   N107      1.0  0.81843  0.52481  0.24904  1.0000
  H   H1919     1.0  0.67614  0.68309  0.12421  1.0000
  H   H1920     1.0  0.49545  0.70543  0.13388  1.0000
  H   H1921     1.0  0.74394  0.53120  0.99181  1.0000
  H   H1922     1.0  0.72691  0.52627  0.04828  1.0000
  C   C1600     1.0  0.83420  0.51926  0.23357  1.0000
  C   C1601     1.0  0.82067  0.51056  0.26653  1.0000
  C   C1602     1.0  0.68961  0.69596  0.19370  1.0000
  H   H1923     1.0  0.77999  0.68569  0.12255  1.0000
  C   C1603     1.0  0.81952  0.59140  0.09721  1.0000
  C   C1604     1.0  0.82130  0.59196  0.11560  1.0000
  C   C1605     1.0  0.80499  0.59561  0.12933  1.0000
  C   C1606     1.0  0.78662  0.59857  0.12453  1.0000
  C   C1607     1.0  0.78482  0.59786  0.10591  1.0000
  H   H1924     1.0  0.83550  0.58969  0.11918  1.0000
  H   H1925     1.0  0.77395  0.60134  0.13511  1.0000
  H   H1926     1.0  0.77073  0.60009  0.10216  1.0000
  Fe  Fe229     1.0  0.63629  0.71857  0.06324  1.0000
  H   H1927     1.0  0.72975  0.58125  0.11239  1.0000
  C   C1608     1.0  0.78509  0.51132  0.97393  1.0000
  H   H1928     1.0  0.67869  0.72306  0.22302  1.0000
  H   H1929     1.0  0.69335  0.56368  0.13075  1.0000
  S   S453      1.0  0.71919  0.51239  0.18393  1.0000
  H   H1930     1.0  0.71469  0.55121  0.11850  1.0000
  C   C1609     1.0  0.50398  0.69679  0.10672  1.0000
  C   C1610     1.0  0.78751  0.50727  0.99284  1.0000
  H   H1931     1.0  0.73987  0.53942  0.01402  1.0000
  C   C1611     1.0  0.72316  0.53024  0.19468  1.0000
  C   C1612     1.0  0.70741  0.53982  0.20573  1.0000
  C   C1613     1.0  0.70915  0.55575  0.21254  1.0000
  C   C1614     1.0  0.72653  0.56257  0.20805  1.0000
  C   C1615     1.0  0.74247  0.55301  0.19704  1.0000
  C   C1616     1.0  0.74083  0.53665  0.19057  1.0000
  H   H1932     1.0  0.69368  0.53508  0.20882  1.0000
  H   H1933     1.0  0.69681  0.56304  0.22106  1.0000
  H   H1934     1.0  0.75599  0.55816  0.19356  1.0000
  H   H1935     1.0  0.75300  0.52944  0.18186  1.0000
  H   H1936     1.0  0.79537  0.63767  0.10821  1.0000
  C   C1617     1.0  0.75552  0.66709  0.08057  1.0000
  Fe  Fe230     1.0  0.74287  0.63267  0.04333  1.0000
  H   H1937     1.0  0.74639  0.65641  0.15627  1.0000
  H   H1938     1.0  0.59604  0.71210  0.17961  1.0000
  C   C1618     1.0  0.78659  0.54440  0.97264  1.0000
  C   C1619     1.0  0.70770  0.55492  0.13257  1.0000
  Fe  Fe231     1.0  0.49593  0.71638  0.03030  1.0000
  N   N108      1.0  0.71700  0.55013  0.99785  1.0000
  H   H1939     1.0  0.67971  0.71202  0.05896  1.0000
  H   H1940     1.0  0.78725  0.55554  0.24477  1.0000
  S   S454      1.0  0.72665  0.61362  0.03516  1.0000
  C   C1620     1.0  0.78494  0.64435  0.08240  1.0000
  H   H1941     1.0  0.71888  0.66512  0.23477  1.0000
  H   H1942     1.0  0.76574  0.68288  0.14593  1.0000
  C   C1621     1.0  0.49773  0.69294  0.09152  1.0000
  C   C1622     1.0  0.70429  0.69102  0.05120  1.0000
  H   H1943     1.0  0.79671  0.63460  0.07578  1.0000
  H   H1944     1.0  0.74728  0.64070  0.14019  1.0000
  Fe  Fe232     1.0  0.87132  0.62583  0.30028  1.0000
  H   H1945     1.0  0.56054  0.68911  0.04459  1.0000
  H   H1946     1.0  0.70685  0.55598  0.16827  1.0000
  C   C1623     1.0  0.70664  0.53394  0.00660  1.0000
  H   H1947     1.0  0.69140  0.53752  0.00447  1.0000
  H   H1948     1.0  0.89803  0.55270  0.30029  1.0000
  H   H1949     1.0  0.79093  0.51846  0.01643  1.0000
  H   H1950     1.0  0.66737  0.65516  0.02549  1.0000
  C   C1624     1.0  0.74186  0.67952  0.23467  1.0000
  C   C1625     1.0  0.91146  0.54589  0.29184  1.0000
  H   H1951     1.0  0.66770  0.70687  0.02083  1.0000
  Fe  Fe233     1.0  0.85714  0.49012  0.30500  1.0000
  C   C1626     1.0  0.73762  0.54361  0.99908  1.0000
  C   C1627     1.0  0.70725  0.66651  0.99721  1.0000
  C   C1628     1.0  0.56318  0.71421  0.05437  1.0000
  H   H1952     1.0  0.69402  0.69309  0.23612  1.0000
  C   C1629     1.0  0.79958  0.52534  0.24383  1.0000
  Fe  Fe234     1.0  0.74288  0.48710  0.18094  1.0000
  H   H1953     1.0  0.98957  0.49061  0.29957  1.0000
  H   H1954     1.0  0.57852  0.71018  0.05383  1.0000
  H   H1955     1.0  0.78982  0.55156  0.99862  1.0000
  C   C1630     1.0  0.82091  0.54337  0.25256  1.0000
  H   H1956     1.0  0.73538  0.66512  0.13599  1.0000
  C   C1631     1.0  0.67133  0.66875  0.02659  1.0000
  H   H1957     1.0  0.84349  0.55674  0.29914  1.0000
  H   H1958     1.0  0.80867  0.51377  0.27834  1.0000
  S   S455      1.0  0.75880  0.58770  0.99571  1.0000
  H   H1959     1.0  0.88167  0.57805  0.25500  1.0000
  C   C1632     1.0  0.76747  0.54181  0.23768  1.0000
  C   C1633     1.0  0.68223  0.66420  0.07281  1.0000
  C   C1634     1.0  0.63157  0.70636  0.14079  1.0000
  C   C1635     1.0  0.67417  0.68362  0.07037  1.0000
  H   H1960     1.0  0.67296  0.53006  0.08672  1.0000
  N   N109      1.0  0.91105  0.55150  0.27128  1.0000
  H   H1961     1.0  0.65379  0.69733  0.98905  1.0000
  H   H1962     1.0  0.83433  0.51030  0.27135  1.0000
  H   H1963     1.0  0.93538  0.57446  0.27465  1.0000
  C   C1636     1.0  0.68602  0.53558  0.08011  1.0000
  H   H1964     1.0  0.74228  0.67903  0.10509  1.0000
  C   C1637     1.0  0.78229  0.64877  0.13975  1.0000
  C   C1638     1.0  0.74811  0.65555  0.14105  1.0000
  C   C1639     1.0  0.55299  0.70224  0.04926  1.0000
  H   H1965     1.0  0.71369  0.52065  0.00101  1.0000
  C   C1640     1.0  0.70908  0.56548  0.00931  1.0000
  H   H1966     1.0  0.71150  0.66885  0.00967  1.0000
  C   C1641     1.0  0.77073  0.65465  0.07219  1.0000
  S   S456      1.0  0.73444  0.66442  0.03930  1.0000
  H   H1967     1.0  0.89736  0.52775  0.27190  1.0000
  C   C1642     1.0  0.71636  0.53347  0.05836  1.0000
  H   H1968     1.0  0.92382  0.54992  0.29579  1.0000
  C   C1643     1.0  0.78518  0.54204  0.24243  1.0000
  H   H1969     1.0  0.70641  0.52997  0.02214  1.0000
  H   H1970     1.0  0.77144  0.65293  0.05774  1.0000
  H   H1971     1.0  0.65140  0.71702  0.10486  1.0000
  H   H1972     1.0  0.95938  0.50596  0.28754  1.0000
  S   S457      1.0  0.52065  0.69495  0.03999  1.0000
  H   H1973     1.0  0.57562  0.71057  0.15715  1.0000
  H   H1974     1.0  0.70778  0.55989  0.02478  1.0000
  C   C1644     1.0  0.70114  0.65816  0.06391  1.0000
  H   H1975     1.0  0.74985  0.52505  0.23044  1.0000
  H   H1976     1.0  0.83443  0.50478  0.23096  1.0000
  C   C1645     1.0  0.72267  0.67853  0.23547  1.0000
  C   C1646     1.0  0.79514  0.50867  0.23999  1.0000
  S   S458      1.0  0.66476  0.70568  0.19717  1.0000
  S   S459      1.0  0.70984  0.57999  0.08253  1.0000
  S   S460      1.0  0.80071  0.59304  0.06869  1.0000
  H   H1977     1.0  0.82025  0.55458  0.23966  1.0000
  C   C1647     1.0  0.80138  0.59436  0.09221  1.0000
  C   C1648     1.0  0.71495  0.66775  0.19496  1.0000
  C   C1649     1.0  0.70368  0.70753  0.18787  1.0000
  N   N110      1.0  0.81962  0.52941  0.07820  1.0000
  C   C1650     1.0  0.82797  0.51655  0.06423  1.0000
  C   C1651     1.0  0.82772  0.54722  0.07100  1.0000
  C   C1652     1.0  0.82596  0.52013  0.09638  1.0000
  C   C1653     1.0  0.79830  0.53375  0.08145  1.0000
  C   C1654     1.0  0.78824  0.54803  0.09210  1.0000
  C   C1655     1.0  0.78695  0.52358  0.07499  1.0000
  C   C1656     1.0  0.76820  0.55253  0.09528  1.0000
  C   C1657     1.0  0.76682  0.52788  0.07869  1.0000
  C   C1658     1.0  0.75748  0.54237  0.08876  1.0000
  H   H1978     1.0  0.59038  0.70661  0.12431  1.0000
  H   H1979     1.0  0.84399  0.51425  0.06134  1.0000
  H   H1980     1.0  0.82417  0.50217  0.06945  1.0000
  C   C1659     1.0  0.92145  0.60190  0.26326  1.0000
  H   H1981     1.0  0.65379  0.68268  0.11790  1.0000
  H   H1982     1.0  0.82499  0.55645  0.08181  1.0000
  H   H1983     1.0  0.81992  0.50684  0.10240  1.0000
  H   H1984     1.0  0.84192  0.51629  0.09472  1.0000
  H   H1985     1.0  0.82104  0.52951  0.10722  1.0000
  H   H1986     1.0  0.79578  0.55592  0.09805  1.0000
  H   H1987     1.0  0.79322  0.51214  0.06720  1.0000
  H   H1988     1.0  0.76103  0.56392  0.10292  1.0000
  H   H1989     1.0  0.75841  0.51993  0.07372  1.0000
  H   H1990     1.0  0.74192  0.54578  0.09145  1.0000
  C   C1660     1.0  0.78882  0.54022  0.99162  1.0000
  H   H1991     1.0  0.54222  0.71627  0.00574  1.0000
  H   H1992     1.0  0.69448  0.57279  0.00662  1.0000
  S   S461      1.0  0.77384  0.48839  0.17953  1.0000
  S   S462      1.0  0.77175  0.61997  0.02858  1.0000
  Fe  Fe235     1.0  0.73253  0.59436  0.06224  1.0000
  H   H1993     1.0  0.71278  0.70145  0.04283  1.0000
  C   C1661     1.0  0.60265  0.71014  0.16529  1.0000
  H   H1994     1.0  0.82136  0.55586  0.05863  1.0000
  S   S463      1.0  0.64978  0.69084  0.07935  1.0000
  H   H1995     1.0  0.71760  0.57658  0.16503  1.0000
  N   N111      1.0  0.67308  0.68180  0.00806  1.0000
  S   S464      1.0  0.69457  0.50609  0.06078  1.0000
  H   H1996     1.0  0.51927  0.69500  0.10679  1.0000
  H   H1997     1.0  0.78762  0.49288  0.00082  1.0000
  H   H1998     1.0  0.75287  0.66695  0.23330  1.0000
  S   S465      1.0  0.87599  0.49527  0.27687  1.0000
  C   C1662     1.0  0.68544  0.69702  0.06007  1.0000
  N   N112      1.0  0.71963  0.56526  0.13957  1.0000
  S   S466      1.0  0.74569  0.61500  0.07185  1.0000
  C   C1663     1.0  0.76360  0.52514  0.23413  1.0000
  H   H1999     1.0  0.75668  0.55471  0.23657  1.0000
  S   S467      1.0  0.76059  0.57849  0.04924  1.0000
  C   C1664     1.0  0.78394  0.64629  0.10113  1.0000
  C   C1665     1.0  0.75439  0.66921  0.09925  1.0000
  Fe  Fe236     1.0  0.75585  0.59929  0.02258  1.0000
  Fe  Fe237     1.0  0.77336  0.60069  0.05672  1.0000
  H   H2000     1.0  0.79664  0.65231  0.13266  1.0000
  H   H2001     1.0  0.67362  0.65377  0.08092  1.0000
  H   H2002     1.0  0.78040  0.65074  0.15470  1.0000
  C   C1666     1.0  0.70598  0.55948  0.07610  1.0000
  C   C1667     1.0  0.76849  0.65875  0.11020  1.0000
  C   C1668     1.0  0.76660  0.68096  0.13109  1.0000
  H   H2003     1.0  0.75416  0.69092  0.12584  1.0000
  C   C1669     1.0  0.68939  0.55199  0.08493  1.0000
  C   C1670     1.0  0.69951  0.52627  0.06687  1.0000
  N   N113      1.0  0.76657  0.66086  0.13015  1.0000
  H   H2004     1.0  0.82104  0.49582  0.26453  1.0000
  H   H2005     1.0  0.68452  0.66701  0.20155  1.0000
  H   H2006     1.0  0.78272  0.63334  0.14027  1.0000
  C   C1671     1.0  0.69533  0.67606  0.19705  1.0000
  H   H2007     1.0  0.71916  0.65240  0.19788  1.0000
  H   H2008     1.0  0.68001  0.70976  0.99683  1.0000
  S   S468      1.0  0.74547  0.49759  0.02616  1.0000
  C   C1672     1.0  0.72082  0.58362  0.12628  1.0000
  S   S469      1.0  0.61669  0.71838  0.04342  1.0000
  C   C1673     1.0  0.73924  0.55441  0.14120  1.0000
  C   C1674     1.0  0.75316  0.56311  0.14561  1.0000
  C   C1675     1.0  0.74514  0.53512  0.13857  1.0000
  C   C1676     1.0  0.77195  0.55339  0.14660  1.0000
  C   C1677     1.0  0.76398  0.52557  0.13951  1.0000
  C   C1678     1.0  0.77736  0.53467  0.14347  1.0000
  C   C1679     1.0  0.70938  0.56937  0.15837  1.0000
  H   H2009     1.0  0.80975  0.54835  0.26428  1.0000
  C   C1680     1.0  0.76591  0.62162  0.97258  1.0000
  H   H2010     1.0  0.72286  0.58507  0.97600  1.0000
  H   H2011     1.0  0.84862  0.51893  0.23688  1.0000
  H   H2012     1.0  0.72699  0.59358  0.13177  1.0000
  C   C1681     1.0  0.66031  0.68517  0.12935  1.0000
  C   C1682     1.0  0.61933  0.70555  0.12830  1.0000
  S   S470      1.0  0.92576  0.49196  0.28624  1.0000
  H   H2013     1.0  0.74953  0.57741  0.14866  1.0000
  H   H2014     1.0  0.73545  0.52698  0.13595  1.0000
  H   H2015     1.0  0.78227  0.56032  0.15013  1.0000
  H   H2016     1.0  0.76819  0.51090  0.13737  1.0000
  H   H2017     1.0  0.79183  0.52703  0.14449  1.0000
  H   H2018     1.0  0.73226  0.55592  0.05584  1.0000
  H   H2019     1.0  0.69503  0.57855  0.15758  1.0000
  H   H2020     1.0  0.70705  0.64311  0.06519  1.0000
  C   C1683     1.0  0.71195  0.67160  0.05268  1.0000
  H   H2021     1.0  0.66169  0.69548  0.16148  1.0000
  H   H2022     1.0  0.80537  0.49552  0.24061  1.0000
  C   C1684     1.0  0.67865  0.69947  0.01041  1.0000
  C   C1685     1.0  0.92309  0.58210  0.26832  1.0000
  S   S471      1.0  0.74213  0.49415  0.97527  1.0000
  H   H2023     1.0  0.79176  0.60571  0.29379  1.0000
  C   C1686     1.0  0.59942  0.70711  0.13417  1.0000
  C   C1687     1.0  0.92935  0.54245  0.26063  1.0000
  C   C1688     1.0  0.66329  0.70669  0.14859  1.0000
  Fe  Fe238     1.0  0.71924  0.48819  0.04493  1.0000
  H   H2024     1.0  0.71854  0.57633  0.00664  1.0000
  H   H2025     1.0  0.89437  0.54660  0.25221  1.0000
  C   C1689     1.0  0.68797  0.67245  0.99406  1.0000
  H   H2026     1.0  0.88101  0.54921  0.27570  1.0000
  C   C1690     1.0  0.73282  0.71313  0.23619  1.0000
  C   C1691     1.0  0.71316  0.71277  0.23651  1.0000
  H   H2027     1.0  0.69944  0.72284  0.18494  1.0000
  H   H2028     1.0  0.73602  0.65253  0.98750  1.0000
  H   H2029     1.0  0.62509  0.70359  0.11388  1.0000
  C   C1692     1.0  0.65367  0.68714  0.00271  1.0000
  H   H2030     1.0  0.93216  0.60896  0.26591  1.0000
  H   H2031     1.0  0.90427  0.62809  0.25183  1.0000
  C   C1693     1.0  0.70847  0.69486  0.23624  1.0000
  C   C1694     1.0  0.59110  0.70929  0.15265  1.0000
  C   C1695     1.0  0.55389  0.72056  0.99470  1.0000
  C   C1696     1.0  0.89322  0.58392  0.25747  1.0000
  H   H2032     1.0  0.68498  0.66499  0.03221  1.0000
  H   H2033     1.0  0.76718  0.62633  0.98517  1.0000
  C   C1697     1.0  0.72146  0.65712  0.98456  1.0000
  H   H2034     1.0  0.76193  0.69745  0.23435  1.0000
  H   H2035     1.0  0.65726  0.67382  0.14180  1.0000
  H   H2036     1.0  0.76504  0.48262  0.11316  1.0000
  H   H2037     1.0  0.74617  0.55504  0.99233  1.0000
  H   H2038     1.0  0.87963  0.61226  0.24627  1.0000
  H   H2039     1.0  0.50825  0.68802  0.07990  1.0000
  H   H2040     1.0  0.64297  0.69450  0.01336  1.0000
  C   C1698     1.0  0.90580  0.61269  0.25536  1.0000
  H   H2041     1.0  0.66025  0.67529  0.03756  1.0000
  H   H2042     1.0  0.83507  0.54245  0.25672  1.0000
  C   C1699     1.0  0.89519  0.54357  0.26754  1.0000
  C   C1700     1.0  0.90896  0.57248  0.26570  1.0000
  C   C1701     1.0  0.74692  0.69676  0.23511  1.0000
  C   C1702     1.0  0.53320  0.70781  0.04928  1.0000
  H   H2043     1.0  0.93100  0.52663  0.26347  1.0000
  H   H2044     1.0  0.94222  0.54573  0.26444  1.0000
  H   H2045     1.0  0.93003  0.54723  0.24511  1.0000
  H   H2046     1.0  0.91275  0.53015  0.29650  1.0000
  C   C1703     1.0  0.68389  0.66862  0.97728  1.0000
  H   H2047     1.0  0.83273  0.52936  0.22004  1.0000
  H   H2048     1.0  0.67903  0.70555  0.14318  1.0000
  C   C1704     1.0  0.52349  0.72464  0.05554  1.0000
  C   C1705     1.0  0.57117  0.72170  0.99957  1.0000
  H   H2049     1.0  0.67338  0.71734  0.24858  1.0000
  H   H2050     1.0  0.78733  0.57835  0.28241  1.0000
  C   C1706     1.0  0.96148  0.49097  0.29365  1.0000
  H   H2051     1.0  0.65827  0.72090  0.15293  1.0000
  H   H2052     1.0  0.57285  0.71852  0.01426  1.0000
  H   H2053     1.0  0.69367  0.72628  0.26758  1.0000
  H   H2054     1.0  0.73747  0.72615  0.23654  1.0000
  C   C1707     1.0  0.55164  0.72463  0.97572  1.0000
  H   H2055     1.0  0.89686  0.69701  0.30251  1.0000
  C   C1708     1.0  0.79192  0.57625  0.29595  1.0000
  H   H2056     1.0  0.59988  0.72741  0.98935  1.0000
  C   C1709     1.0  0.67897  0.72782  0.23636  1.0000
  C   C1710     1.0  0.79466  0.59187  0.30258  1.0000
  C   C1711     1.0  0.71541  0.55713  0.97767  1.0000
  C   C1712     1.0  0.76201  0.60338  0.97388  1.0000
  H   H2057     1.0  0.79336  0.54583  0.30135  1.0000
  C   C1713     1.0  0.58639  0.72669  0.98550  1.0000
  C   C1714     1.0  0.65697  0.71896  0.11717  1.0000
  N   N114      1.0  0.69858  0.73043  0.23721  1.0000
  H   H2058     1.0  0.67273  0.71850  0.11233  1.0000
  H   H2059     1.0  0.91412  0.72355  0.30001  1.0000
  C   C1715     1.0  0.97858  0.48232  0.30052  1.0000
  H   H2060     1.0  0.66971  0.67264  0.97358  1.0000
  H   H2061     1.0  0.53780  0.72354  0.97303  1.0000
  S   S472      1.0  0.88982  0.59701  0.30533  1.0000
  S   S473      1.0  0.89334  0.64139  0.30513  1.0000
  H   H2062     1.0  0.98499  0.72620  0.48810  1.0000
  C   C1716     1.0  0.95759  0.61406  0.30944  1.0000
  C   C1717     1.0  0.81645  0.61762  0.31240  1.0000
  C   C1718     1.0  0.96762  0.63438  0.38146  1.0000
  C   C1719     1.0  0.94763  0.51096  0.34012  1.0000
  C   C1720     1.0  0.91488  0.52746  0.33901  1.0000
  C   C1721     1.0  0.80421  0.57080  0.33057  1.0000
  S   S474      1.0  0.90920  0.70506  0.61019  1.0000
  H   H2063     1.0  0.88796  0.72964  0.37111  1.0000
  N   N115      1.0  0.94000  0.54578  0.34236  1.0000
  C   C1722     1.0  0.97079  0.66775  0.37335  1.0000
  H   H2064     1.0  0.93597  0.66011  0.39128  1.0000
  C   C1723     1.0  0.91546  0.68064  0.35864  1.0000
  H   H2065     1.0  0.95879  0.71299  0.62057  1.0000
  H   H2066     1.0  0.99003  0.58762  0.38315  1.0000
  C   C1724     1.0  0.89160  0.70726  0.31197  1.0000
  C   C1725     1.0  0.90839  0.69044  0.37390  1.0000
  H   H2067     1.0  0.77413  0.61079  0.34125  1.0000
  N   N116      1.0  0.96686  0.65179  0.38911  1.0000
  H   H2068     1.0  0.92988  0.68118  0.35086  1.0000
  N   N117      1.0  0.80352  0.60647  0.32693  1.0000
  H   H2069     1.0  0.96126  0.53140  0.35988  1.0000
  C   C1726     1.0  0.94240  0.49414  0.33837  1.0000
  H   H2070     1.0  0.96055  0.56379  0.32735  1.0000
  Fe  Fe239     1.0  0.87878  0.63706  0.33566  1.0000
  H   H2071     1.0  0.89536  0.51039  0.33541  1.0000
  C   C1727     1.0  0.80117  0.55532  0.32389  1.0000
  S   S475      1.0  0.89423  0.72673  0.46963  1.0000
  H   H2072     1.0  0.98915  0.61505  0.39702  1.0000
  S   S476      1.0  0.89738  0.60889  0.34373  1.0000
  C   C1728     1.0  0.85531  0.56186  0.32182  1.0000
  H   H2073     1.0  0.83092  0.60883  0.30908  1.0000
  H   H2074     1.0  0.82624  0.59203  0.34257  1.0000
  H   H2075     1.0  0.94379  0.64550  0.41208  1.0000
  C   C1729     1.0  0.87788  0.67983  0.37790  1.0000
  H   H2076     1.0  0.86415  0.72437  0.37456  1.0000
  H   H2077     1.0  0.94607  0.67031  0.40594  1.0000
  H   H2078     1.0  0.90932  0.66303  0.34119  1.0000
  C   C1730     1.0  0.98106  0.64959  0.40172  1.0000
  H   H2079     1.0  0.85312  0.50878  0.34364  1.0000
  H   H2080     1.0  0.88417  0.69688  0.39572  1.0000
  S   S477      1.0  0.92350  0.70311  0.38055  1.0000
  C   C1731     1.0  0.88489  0.67007  0.36261  1.0000
  C   C1732     1.0  0.81189  0.60152  0.34454  1.0000
  H   H2081     1.0  0.80403  0.54100  0.33195  1.0000
  C   C1733     1.0  0.97617  0.69756  0.32976  1.0000
  C   C1734     1.0  0.86091  0.55411  0.33936  1.0000
  S   S478      1.0  0.85553  0.62371  0.33027  1.0000
  H   H2082     1.0  0.86450  0.52890  0.36068  1.0000
  H   H2083     1.0  0.98482  0.66390  0.36400  1.0000
  C   C1735     1.0  0.98619  0.71737  0.35453  1.0000
  H   H2084     1.0  0.97244  0.68982  0.32038  1.0000
  C   C1736     1.0  0.90991  0.51061  0.33692  1.0000
  C   C1737     1.0  0.86024  0.53493  0.34709  1.0000
  C   C1738     1.0  0.90383  0.67034  0.35310  1.0000
  C   C1739     1.0  0.98233  0.72087  0.38716  1.0000
  H   H2085     1.0  0.97130  0.68082  0.37858  1.0000
  Fe  Fe240     1.0  0.91197  0.72565  0.39930  1.0000
  H   H2086     1.0  0.80227  0.59436  0.35663  1.0000
  H   H2087     1.0  0.91229  0.55970  0.35537  1.0000
  H   H2088     1.0  0.95232  0.55558  0.36204  1.0000
  C   C1740     1.0  0.94738  0.65711  0.40010  1.0000
  H   H2089     1.0  0.98575  0.72843  0.39734  1.0000
  Fe  Fe241     1.0  0.91037  0.61203  0.31298  1.0000
  Fe  Fe242     1.0  0.87565  0.59597  0.33548  1.0000
  H   H2090     1.0  0.96001  0.66029  0.30860  1.0000
  C   C1741     1.0  0.85967  0.68602  0.62794  1.0000
  H   H2091     1.0  0.90345  0.53972  0.33935  1.0000
  S   S479      1.0  0.86841  0.56810  0.35213  1.0000
  C   C1742     1.0  0.79523  0.55799  0.30657  1.0000
  H   H2092     1.0  0.92913  0.57533  0.34448  1.0000
  C   C1743     1.0  0.85390  0.52351  0.33742  1.0000
  C   C1744     1.0  0.88965  0.68975  0.38369  1.0000
  H   H2093     1.0  0.94693  0.71047  0.33908  1.0000
  H   H2094     1.0  0.78550  0.63142  0.33655  1.0000
  H   H2095     1.0  0.86327  0.67961  0.38537  1.0000
  S   S480      1.0  0.86909  0.65877  0.35527  1.0000
  H   H2096     1.0  0.80932  0.56749  0.34387  1.0000
  C   C1745     1.0  0.96677  0.71888  0.35249  1.0000
  C   C1746     1.0  0.84770  0.53138  0.32021  1.0000
  C   C1747     1.0  0.84852  0.55054  0.31234  1.0000
  H   H2097     1.0  0.85561  0.57670  0.31584  1.0000
  H   H2098     1.0  0.94676  0.68281  0.62620  1.0000
  H   H2099     1.0  0.98041  0.66307  0.40682  1.0000
  C   C1748     1.0  0.98035  0.60077  0.37909  1.0000
  C   C1749     1.0  0.80112  0.58963  0.32002  1.0000
  C   C1750     1.0  0.95077  0.68725  0.63779  1.0000
  H   H2100     1.0  0.81421  0.61440  0.34899  1.0000
  H   H2101     1.0  0.90968  0.66793  0.63305  1.0000
  H   H2102     1.0  0.96635  0.72293  0.38927  1.0000
  C   C1751     1.0  0.96897  0.60174  0.36570  1.0000
  H   H2103     1.0  0.86789  0.69347  0.32688  1.0000
  C   C1752     1.0  0.92404  0.56241  0.34310  1.0000
  C   C1753     1.0  0.95504  0.55110  0.32598  1.0000
  H   H2104     1.0  0.97841  0.63858  0.41456  1.0000
  H   H2105     1.0  0.96977  0.58943  0.35936  1.0000
  C   C1754     1.0  0.94804  0.54248  0.35998  1.0000
  C   C1755     1.0  0.90300  0.69775  0.63492  1.0000
  C   C1756     1.0  0.97968  0.61676  0.38699  1.0000
  C   C1757     1.0  0.95664  0.61862  0.36036  1.0000
  H   H2106     1.0  0.95946  0.67204  0.36442  1.0000
  S   S481      1.0  0.92913  0.72817  0.42052  1.0000
  H   H2107     1.0  0.96775  0.53956  0.32442  1.0000
  H   H2108     1.0  0.93735  0.53787  0.37258  1.0000
  C   C1758     1.0  0.86858  0.71816  0.33824  1.0000
  H   H2109     1.0  0.89225  0.71789  0.50996  1.0000
  H   H2110     1.0  0.94934  0.55468  0.31251  1.0000
  C   C1759     1.0  0.78448  0.61881  0.33080  1.0000
  H   H2111     1.0  0.96253  0.51039  0.34096  1.0000
  H   H2112     1.0  0.86604  0.68307  0.61388  1.0000
  C   C1760     1.0  0.96191  0.70920  0.34020  1.0000
  H   H2113     1.0  0.94775  0.61937  0.34995  1.0000
  C   C1761     1.0  0.87522  0.70533  0.32566  1.0000
  C   C1762     1.0  0.95588  0.63469  0.36813  1.0000
  H   H2114     1.0  0.94608  0.64742  0.36348  1.0000
  H   H2115     1.0  0.86165  0.71576  0.62004  1.0000
  C   C1763     1.0  0.93402  0.52817  0.34052  1.0000
  C   C1764     1.0  0.92363  0.49402  0.33658  1.0000
  C   C1765     1.0  0.95752  0.70434  0.63458  1.0000
  H   H2116     1.0  0.91778  0.56635  0.32992  1.0000
  C   C1766     1.0  0.97638  0.60569  0.31228  1.0000
  H   H2117     1.0  0.95389  0.72361  0.50712  1.0000
  H   H2118     1.0  0.81849  0.63044  0.31713  1.0000
  H   H2119     1.0  0.77807  0.62440  0.31777  1.0000
  S   S482      1.0  0.94202  0.59983  0.30644  1.0000
  H   H2120     1.0  0.85623  0.71553  0.34904  1.0000
  C   C1767     1.0  0.96453  0.64502  0.30991  1.0000
  C   C1768     1.0  0.85717  0.70449  0.63136  1.0000
  H   H2121     1.0  0.98108  0.59053  0.31287  1.0000
  S   S483      1.0  0.83750  0.51775  0.30929  1.0000
  C   C1769     1.0  0.98337  0.63672  0.31257  1.0000
  H   H2122     1.0  0.98789  0.70538  0.39131  1.0000
  C   C1770     1.0  0.95157  0.63369  0.30864  1.0000
  C   C1771     1.0  0.98916  0.61697  0.31420  1.0000
  N   N118      1.0  0.99092  0.72807  0.36741  1.0000
  H   H2123     1.0  0.95512  0.72737  0.36061  1.0000
  C   C1772     1.0  0.90130  0.72219  0.31065  1.0000
  H   H2124     1.0  0.96184  0.72908  0.52647  1.0000
  H   H2125     1.0  0.93712  0.64024  0.30643  1.0000
  H   H2126     1.0  0.95309  0.48123  0.33786  1.0000
  Fe  Fe243     1.0  0.76092  0.63366  0.89275  1.0000
  S   S484      1.0  0.73476  0.62009  0.90021  1.0000
  S   S485      1.0  0.76944  0.64329  0.91652  1.0000
  Fe  Fe244     1.0  0.76694  0.63060  0.85101  1.0000
  S   S486      1.0  0.74089  0.61659  0.85577  1.0000
  S   S487      1.0  0.78178  0.63624  0.82019  1.0000
  Fe  Fe245     1.0  0.72621  0.63879  0.87374  1.0000
  S   S488      1.0  0.69469  0.65281  0.87642  1.0000
  Fe  Fe246     1.0  0.75185  0.59941  0.88173  1.0000
  S   S489      1.0  0.75480  0.56779  0.89335  1.0000
  S   S490      1.0  0.75135  0.65401  0.86739  1.0000
  S   S491      1.0  0.77890  0.61179  0.87588  1.0000
  Fe  Fe247     1.0  0.88216  0.62031  0.75161  1.0000
  S   S492      1.0  0.86388  0.63218  0.72923  1.0000
  S   S493      1.0  0.87018  0.61474  0.78320  1.0000
  Fe  Fe248     1.0  0.91913  0.61270  0.72229  1.0000
  S   S494      1.0  0.90320  0.62333  0.69792  1.0000
  S   S495      1.0  0.95061  0.60149  0.71205  1.0000
  Fe  Fe249     1.0  0.88841  0.64708  0.71343  1.0000
  Fe  Fe250     1.0  0.88044  0.60743  0.71566  1.0000
  S   S496      1.0  0.86461  0.59044  0.70399  1.0000
  S   S497      1.0  0.90557  0.63751  0.73707  1.0000
  S   S498      1.0  0.89748  0.59453  0.73879  1.0000
  H   H2127     1.0  0.84437  0.54760  0.80893  1.0000
  C   C1773     1.0  0.69226  0.72223  0.91893  1.0000
  C   C1774     1.0  0.72387  0.70938  0.88923  1.0000
  H   H2128     1.0  0.90059  0.65681  0.66744  1.0000
  H   H2129     1.0  0.87986  0.50282  0.76524  1.0000
  C   C1775     1.0  0.71914  0.57554  0.96850  1.0000
  H   H2130     1.0  0.76651  0.58162  0.80260  1.0000
  C   C1776     1.0  0.98790  0.49103  0.68182  1.0000
  H   H2131     1.0  0.98906  0.60077  0.69202  1.0000
  C   C1777     1.0  0.74804  0.55297  0.88086  1.0000
  H   H2132     1.0  0.96952  0.51893  0.65752  1.0000
  H   H2133     1.0  0.96271  0.70540  0.67891  1.0000
  C   C1778     1.0  0.84769  0.54867  0.79369  1.0000
  C   C1779     1.0  0.97751  0.53533  0.73739  1.0000
  H   H2134     1.0  0.95753  0.54504  0.69141  1.0000
  H   H2135     1.0  0.86070  0.55347  0.73920  1.0000
  C   C1780     1.0  0.69281  0.49217  0.89202  1.0000
  C   C1781     1.0  0.93356  0.68428  0.70281  1.0000
  H   H2136     1.0  0.98253  0.63326  0.74624  1.0000
  H   H2137     1.0  0.52414  0.68559  0.86520  1.0000
  C   C1782     1.0  0.96621  0.66699  0.69958  1.0000
  C   C1783     1.0  0.70766  0.50205  0.91383  1.0000
  H   H2138     1.0  0.76209  0.60455  0.92720  1.0000
  H   H2139     1.0  0.84478  0.67044  0.70026  1.0000
  H   H2140     1.0  0.75422  0.55256  0.95071  1.0000
  H   H2141     1.0  0.70541  0.51742  0.88571  1.0000
  C   C1784     1.0  0.85895  0.64377  0.67893  1.0000
  C   C1785     1.0  0.90080  0.53196  0.69740  1.0000
  H   H2142     1.0  0.83182  0.50165  0.75333  1.0000
  H   H2143     1.0  0.83982  0.69758  0.67818  1.0000
  H   H2144     1.0  0.75494  0.57869  0.82691  1.0000
  H   H2145     1.0  0.92043  0.68947  0.69621  1.0000
  H   H2146     1.0  0.86026  0.50639  0.73090  1.0000
  H   H2147     1.0  0.79396  0.49856  0.82989  1.0000
  H   H2148     1.0  0.96336  0.53201  0.73843  1.0000
  H   H2149     1.0  0.72817  0.55399  0.84249  1.0000
  H   H2150     1.0  0.81584  0.57628  0.81272  1.0000
  H   H2151     1.0  0.79983  0.57558  0.84591  1.0000
  H   H2152     1.0  0.79978  0.59782  0.80583  1.0000
  H   H2153     1.0  0.57386  0.71178  0.84738  1.0000
  C   C1786     1.0  0.97308  0.54268  0.68883  1.0000
  H   H2154     1.0  0.76454  0.59997  0.81588  1.0000
  C   C1787     1.0  0.89637  0.71093  0.64716  1.0000
  C   C1788     1.0  0.83397  0.66466  0.69534  1.0000
  H   H2155     1.0  0.85548  0.63149  0.69021  1.0000
  H   H2156     1.0  0.55435  0.69071  0.87087  1.0000
  H   H2157     1.0  0.85592  0.55750  0.69386  1.0000
  C   C1789     1.0  0.76717  0.58418  0.81677  1.0000
  C   C1790     1.0  0.78613  0.58171  0.84052  1.0000
  N   N119      1.0  0.78580  0.57505  0.82288  1.0000
  H   H2158     1.0  0.50092  0.72811  0.81370  1.0000
  H   H2159     1.0  0.77384  0.57817  0.85184  1.0000
  H   H2160     1.0  0.78493  0.59747  0.83817  1.0000
  H   H2161     1.0  0.71535  0.57489  0.92329  1.0000
  C   C1791     1.0  0.55438  0.71837  0.82752  1.0000
  H   H2162     1.0  0.93869  0.69704  0.70442  1.0000
  C   C1792     1.0  0.80161  0.58202  0.80831  1.0000
  C   C1793     1.0  0.70365  0.48606  0.92735  1.0000
  H   H2163     1.0  0.82212  0.63879  0.68326  1.0000
  H   H2164     1.0  0.82265  0.52606  0.75542  1.0000
  H   H2165     1.0  0.78004  0.50649  0.93872  1.0000
  C   C1794     1.0  0.53704  0.71566  0.82384  1.0000
  H   H2166     1.0  0.92358  0.54291  0.70391  1.0000
  C   C1795     1.0  0.96269  0.50378  0.70508  1.0000
  C   C1796     1.0  0.95953  0.69973  0.66773  1.0000
  C   C1797     1.0  0.73483  0.54816  0.85485  1.0000
  C   C1798     1.0  0.83270  0.51314  0.76075  1.0000
  H   H2167     1.0  0.95107  0.51575  0.70881  1.0000
  H   H2168     1.0  0.75785  0.58320  0.95832  1.0000
  C   C1799     1.0  0.96148  0.51423  0.67187  1.0000
  H   H2169     1.0  0.87483  0.52242  0.73324  1.0000
  H   H2170     1.0  0.93907  0.64616  0.70771  1.0000
  H   H2171     1.0  0.82064  0.67558  0.69491  1.0000
  C   C1800     1.0  0.90886  0.54602  0.70164  1.0000
  C   C1801     1.0  0.89785  0.56405  0.70335  1.0000
  C   C1802     1.0  0.87871  0.56819  0.70073  1.0000
  C   C1803     1.0  0.87069  0.55428  0.69606  1.0000
  C   C1804     1.0  0.70217  0.50512  0.89624  1.0000
  H   H2172     1.0  0.90425  0.57475  0.70664  1.0000
  C   C1805     1.0  0.56062  0.70928  0.84437  1.0000
  C   C1806     1.0  0.96980  0.61063  0.71602  1.0000
  C   C1807     1.0  0.96794  0.61999  0.73119  1.0000
  H   H2173     1.0  0.70859  0.48405  0.94065  1.0000
  H   H2174     1.0  0.87555  0.52540  0.69084  1.0000
  C   C1808     1.0  0.95227  0.68239  0.67160  1.0000
  H   H2175     1.0  0.97185  0.49977  0.71621  1.0000
  H   H2176     1.0  0.95432  0.62201  0.74076  1.0000
  H   H2177     1.0  0.83234  0.64377  0.65887  1.0000
  Fe  Fe251     1.0  0.74763  0.48250  0.85389  1.0000
  H   H2178     1.0  0.92702  0.65669  0.68827  1.0000
  H   H2179     1.0  0.75667  0.54337  0.92942  1.0000
  H   H2180     1.0  0.78339  0.56467  0.93617  1.0000
  H   H2181     1.0  0.81403  0.66137  0.66911  1.0000
  H   H2182     1.0  0.80227  0.57829  0.79431  1.0000
  H   H2183     1.0  0.73624  0.57571  0.86032  1.0000
  C   C1809     1.0  0.68682  0.67768  0.87023  1.0000
  C   C1810     1.0  0.66753  0.68552  0.87646  1.0000
  C   C1811     1.0  0.66104  0.70537  0.87292  1.0000
  C   C1812     1.0  0.67379  0.71756  0.86299  1.0000
  C   C1813     1.0  0.69298  0.70968  0.85646  1.0000
  C   C1814     1.0  0.69951  0.68985  0.86009  1.0000
  H   H2184     1.0  0.65761  0.67621  0.88426  1.0000
  H   H2185     1.0  0.64622  0.71125  0.87795  1.0000
  H   H2186     1.0  0.70288  0.71900  0.84859  1.0000
  H   H2187     1.0  0.71434  0.68399  0.85506  1.0000
  C   C1815     1.0  0.80660  0.63083  0.81050  1.0000
  C   C1816     1.0  0.81238  0.63545  0.79081  1.0000
  C   C1817     1.0  0.83175  0.63060  0.78226  1.0000
  C   C1818     1.0  0.84560  0.62109  0.79335  1.0000
  C   C1819     1.0  0.83979  0.61629  0.81304  1.0000
  C   C1820     1.0  0.82039  0.62110  0.82160  1.0000
  H   H2188     1.0  0.80180  0.64285  0.78209  1.0000
  H   H2189     1.0  0.83597  0.63439  0.76713  1.0000
  H   H2190     1.0  0.85042  0.60896  0.82174  1.0000
  H   H2191     1.0  0.81615  0.61740  0.83676  1.0000
  C   C1821     1.0  0.76690  0.62769  0.93846  1.0000
  C   C1822     1.0  0.76847  0.63370  0.95487  1.0000
  C   C1823     1.0  0.84703  0.67465  0.66135  1.0000
  H   H2192     1.0  0.86651  0.48750  0.75933  1.0000
  C   C1824     1.0  0.76072  0.59730  0.95743  1.0000
  C   C1825     1.0  0.76304  0.60942  0.93979  1.0000
  H   H2193     1.0  0.77163  0.64776  0.95391  1.0000
  H   H2194     1.0  0.78770  0.52212  0.91797  1.0000
  H   H2195     1.0  0.52055  0.67663  0.82013  1.0000
  C   C1826     1.0  0.74860  0.48646  0.93924  1.0000
  C   C1827     1.0  0.84974  0.70831  0.64951  1.0000
  H   H2196     1.0  0.92891  0.67651  0.71733  1.0000
  C   C1828     1.0  0.51129  0.69077  0.81675  1.0000
  C   C1829     1.0  0.85695  0.55134  0.75445  1.0000
  C   C1830     1.0  0.82691  0.65035  0.67173  1.0000
  C   C1831     1.0  0.71199  0.54529  0.96612  1.0000
  H   H2197     1.0  0.74919  0.50580  0.88221  1.0000
  N   N120      1.0  0.97439  0.50862  0.68612  1.0000
  H   H2198     1.0  0.74586  0.50175  0.93469  1.0000
  H   H2199     1.0  0.75793  0.52729  0.89954  1.0000
  H   H2200     1.0  0.85932  0.49519  0.78146  1.0000
  S   S499      1.0  0.88419  0.67792  0.69867  1.0000
  N   N121      1.0  0.94839  0.67196  0.69127  1.0000
  N   N122      1.0  0.85261  0.51697  0.75737  1.0000
  C   C1832     1.0  0.73945  0.56046  0.86488  1.0000
  H   H2201     1.0  0.80396  0.51209  0.93444  1.0000
  C   C1833     1.0  0.86508  0.49997  0.76630  1.0000
  H   H2202     1.0  0.95162  0.64387  0.68452  1.0000
  H   H2203     1.0  0.70915  0.54252  0.93824  1.0000
  C   C1834     1.0  0.78805  0.55406  0.82514  1.0000
  C   C1835     1.0  0.78870  0.54543  0.80938  1.0000
  C   C1836     1.0  0.78933  0.54165  0.84280  1.0000
  C   C1837     1.0  0.79089  0.52564  0.81112  1.0000
  C   C1838     1.0  0.79154  0.52189  0.84435  1.0000
  H   H2204     1.0  0.82720  0.50844  0.77601  1.0000
  H   H2205     1.0  0.78721  0.55396  0.79565  1.0000
  H   H2206     1.0  0.78830  0.54683  0.85574  1.0000
  C   C1839     1.0  0.85985  0.51945  0.73667  1.0000
  C   C1840     1.0  0.84755  0.53308  0.78551  1.0000
  H   H2207     1.0  0.95533  0.49159  0.70591  1.0000
  C   C1841     1.0  0.71695  0.65336  0.96839  1.0000
  N   N123      1.0  0.84176  0.65877  0.67665  1.0000
  C   C1842     1.0  0.85673  0.56693  0.76277  1.0000
  H   H2208     1.0  0.68905  0.49448  0.87809  1.0000
  H   H2209     1.0  0.96357  0.65932  0.71444  1.0000
  C   C1843     1.0  0.52524  0.70387  0.83713  1.0000
  H   H2210     1.0  0.89511  0.72600  0.64158  1.0000
  H   H2211     1.0  0.73509  0.67326  0.92476  1.0000
  C   C1844     1.0  0.79241  0.51389  0.82855  1.0000
  C   C1845     1.0  0.94818  0.67634  0.65597  1.0000
  Fe  Fe252     1.0  0.90140  0.48339  0.70132  1.0000
  H   H2212     1.0  0.84361  0.52037  0.79487  1.0000
  C   C1846     1.0  0.94124  0.65395  0.69285  1.0000
  H   H2213     1.0  0.72201  0.59591  0.94246  1.0000
  C   C1847     1.0  0.85257  0.53379  0.76564  1.0000
  S   S500      1.0  0.73281  0.51313  0.84809  1.0000
  C   C1848     1.0  0.85237  0.56555  0.78234  1.0000
  C   C1849     1.0  0.89087  0.70460  0.66668  1.0000
  H   H2214     1.0  0.71539  0.51193  0.91684  1.0000
  H   H2215     1.0  0.97769  0.65755  0.69145  1.0000
  H   H2216     1.0  0.71408  0.67473  0.89482  1.0000
  H   H2217     1.0  0.79220  0.51270  0.85799  1.0000
  H   H2218     1.0  0.74550  0.67720  0.90049  1.0000
  C   C1850     1.0  0.75156  0.53320  0.88703  1.0000
  N   N124      1.0  0.78133  0.53457  0.94333  1.0000
  C   C1851     1.0  0.56696  0.72968  0.96097  1.0000
  C   C1852     1.0  0.79049  0.55079  0.93186  1.0000
  C   C1853     1.0  0.70667  0.68393  0.90546  1.0000
  C   C1854     1.0  0.98394  0.62629  0.73429  1.0000
  H   H2219     1.0  0.57555  0.70323  0.93917  1.0000
  C   C1855     1.0  0.71374  0.70504  0.94056  1.0000
  C   C1856     1.0  0.73746  0.68473  0.91226  1.0000
  H   H2220     1.0  0.79104  0.51935  0.79900  1.0000
  N   N125      1.0  0.71909  0.69672  0.90767  1.0000
  H   H2221     1.0  0.73244  0.70115  0.87816  1.0000
  H   H2222     1.0  0.70765  0.71348  0.96789  1.0000
  H   H2223     1.0  0.94232  0.66357  0.65746  1.0000
  H   H2224     1.0  0.56286  0.72791  0.81743  1.0000
  H   H2225     1.0  0.73230  0.71998  0.89055  1.0000
  C   C1857     1.0  0.70863  0.70810  0.92235  1.0000
  C   C1858     1.0  0.98412  0.52461  0.68592  1.0000
  H   H2226     1.0  0.87026  0.64955  0.68291  1.0000
  H   H2227     1.0  0.84843  0.72263  0.65218  1.0000
  C   C1859     1.0  0.88174  0.53613  0.69441  1.0000
  C   C1860     1.0  0.97973  0.55416  0.73561  1.0000
  C   C1861     1.0  0.71890  0.58187  0.94918  1.0000
  C   C1862     1.0  0.89210  0.68508  0.67415  1.0000
  C   C1863     1.0  0.98758  0.60788  0.70385  1.0000
  H   H2228     1.0  0.96725  0.56550  0.73516  1.0000
  C   C1864     1.0  0.76033  0.53988  0.94388  1.0000
  C   C1865     1.0  0.85461  0.67130  0.64264  1.0000
  H   H2229     1.0  0.86018  0.58015  0.75396  1.0000
  H   H2230     1.0  0.51898  0.69875  0.80372  1.0000
  H   H2231     1.0  0.70255  0.67428  0.91896  1.0000
  C   C1866     1.0  0.71171  0.55180  0.94681  1.0000
  H   H2232     1.0  0.85045  0.53113  0.72871  1.0000
  H   H2233     1.0  0.78926  0.55301  0.91665  1.0000
  C   C1867     1.0  0.70338  0.71592  0.95417  1.0000
  H   H2234     1.0  0.88541  0.71493  0.67597  1.0000
  S   S501      1.0  0.91515  0.50946  0.69593  1.0000
  H   H2235     1.0  0.72568  0.69434  0.94465  1.0000
  H   H2236     1.0  0.69312  0.69203  0.90071  1.0000
  C   C1868     1.0  0.73876  0.52835  0.86078  1.0000
  H   H2237     1.0  0.97202  0.67971  0.70010  1.0000
  H   H2238     1.0  0.75276  0.52810  0.95201  1.0000
  H   H2239     1.0  0.94940  0.52598  0.67522  1.0000
  C   C1869     1.0  0.74688  0.52095  0.87706  1.0000
  C   C1870     1.0  0.89925  0.67188  0.66197  1.0000
  H   H2240     1.0  0.85274  0.57762  0.78864  1.0000
  H   H2241     1.0  0.74727  0.69340  0.91485  1.0000
  C   C1871     1.0  0.96211  0.71050  0.64946  1.0000
  C   C1872     1.0  0.78865  0.51809  0.93328  1.0000
  C   C1873     1.0  0.71517  0.57004  0.93835  1.0000
  H   H2242     1.0  0.80604  0.54842  0.93275  1.0000
  H   H2243     1.0  0.83023  0.65240  0.70652  1.0000
  H   H2244     1.0  0.70991  0.53077  0.97161  1.0000
  N   N126      1.0  0.50697  0.70118  0.83281  1.0000
  H   H2245     1.0  0.97304  0.57171  0.69085  1.0000
  C   C1874     1.0  0.69823  0.65914  0.96474  1.0000
  C   C1875     1.0  0.98184  0.55808  0.68855  1.0000
  H   H2246     1.0  0.95445  0.50224  0.67124  1.0000
  H   H2247     1.0  0.86538  0.63774  0.66590  1.0000
  C   C1876     1.0  0.57895  0.71745  0.93189  1.0000
  H   H2248     1.0  0.69475  0.65603  0.95222  1.0000
  C   C1877     1.0  0.90452  0.67821  0.64243  1.0000
  H   H2249     1.0  0.72796  0.64582  0.95876  1.0000
  C   C1878     1.0  0.54953  0.69746  0.85765  1.0000
  H   H2250     1.0  0.54120  0.71933  0.94292  1.0000
  C   C1879     1.0  0.53207  0.69474  0.85419  1.0000
  H   H2251     1.0  0.78586  0.55914  0.96588  1.0000
  H   H2252     1.0  0.71090  0.71735  0.88337  1.0000
  C   C1880     1.0  0.78496  0.52999  0.96306  1.0000
  H   H2253     1.0  0.49787  0.68833  0.81318  1.0000
  C   C1881     1.0  0.84484  0.69367  0.66439  1.0000
  H   H2254     1.0  0.50284  0.67543  0.85306  1.0000
  H   H2255     1.0  0.53282  0.72314  0.81060  1.0000
  H   H2256     1.0  0.78295  0.49963  0.96822  1.0000
  H   H2257     1.0  0.59425  0.71740  0.93238  1.0000
  H   H2258     1.0  0.68695  0.72490  0.90573  1.0000
  H   H2259     1.0  0.96719  0.72395  0.64685  1.0000
  C   C1882     1.0  0.49483  0.71996  0.82745  1.0000
  H   H2260     1.0  0.57810  0.71895  0.91670  1.0000
  H   H2261     1.0  0.53213  0.72892  0.88635  1.0000
  C   C1883     1.0  0.49528  0.69025  0.84895  1.0000
  C   C1884     1.0  0.68773  0.73005  0.95014  1.0000
  H   H2262     1.0  0.49318  0.72903  0.83823  1.0000
  C   C1885     1.0  0.58441  0.73050  0.96649  1.0000
  H   H2263     1.0  0.85699  0.65719  0.63926  1.0000
  C   C1886     1.0  0.59992  0.94089  0.26394  1.0000
  C   C1887     1.0  0.59963  0.79322  0.24081  1.0000
  H   H2264     1.0  0.56697  0.76618  0.98613  1.0000
  Fe  Fe253     1.0  0.64720  0.87341  0.28332  1.0000
  Fe  Fe254     1.0  0.52010  0.85579  0.29036  1.0000
  S   S502      1.0  0.64458  0.86510  0.25582  1.0000
  H   H2265     1.0  0.53510  0.74945  0.12086  1.0000
  H   H2266     1.0  0.63342  0.76158  0.10107  1.0000
  H   H2267     1.0  0.52560  0.79795  0.20823  1.0000
  H   H2268     1.0  0.60887  0.89209  0.24799  1.0000
  H   H2269     1.0  0.52469  0.81144  0.22588  1.0000
  C   C1888     1.0  0.52589  0.79266  0.00584  1.0000
  Fe  Fe255     1.0  0.61377  0.76398  0.20007  1.0000
  S   S503      1.0  0.62710  0.79013  0.19453  1.0000
  S   S504      1.0  0.58174  0.76692  0.21007  1.0000
  S   S505      1.0  0.64144  0.73645  0.99369  1.0000
  S   S506      1.0  0.66919  0.76131  0.18984  1.0000
  H   H2270     1.0  0.55272  0.81287  0.27016  1.0000
  Fe  Fe256     1.0  0.64750  0.77293  0.21349  1.0000
  S   S507      1.0  0.65409  0.78072  0.23957  1.0000
  Fe  Fe257     1.0  0.64722  0.77628  0.17141  1.0000
  S   S508      1.0  0.65574  0.79412  0.14305  1.0000
  S   S509      1.0  0.63275  0.74749  0.22056  1.0000
  S   S510      1.0  0.63224  0.75147  0.17550  1.0000
  H   H2271     1.0  0.56906  0.97458  0.28559  1.0000
  S   S511      1.0  0.55230  0.84618  0.28640  1.0000
  C   C1889     1.0  0.56883  0.75990  0.19579  1.0000
  H   H2272     1.0  0.55226  0.76911  0.13067  1.0000
  H   H2273     1.0  0.59385  0.77252  0.28714  1.0000
  C   C1890     1.0  0.54769  0.74901  0.17320  1.0000
  C   C1891     1.0  0.56705  0.75058  0.16660  1.0000
  C   C1892     1.0  0.57759  0.75606  0.17783  1.0000
  H   H2274     1.0  0.57730  0.88801  0.29155  1.0000
  C   C1893     1.0  0.58503  0.84705  0.29866  1.0000
  H   H2275     1.0  0.71764  0.75000  0.22164  1.0000
  H   H2276     1.0  0.59248  0.75731  0.17254  1.0000
  S   S512      1.0  0.61124  0.76519  0.03577  1.0000
  C   C1894     1.0  0.57879  0.84615  0.22262  1.0000
  C   C1895     1.0  0.53350  0.73632  0.06096  1.0000
  H   H2277     1.0  0.51787  0.84200  0.20470  1.0000
  C   C1896     1.0  0.54932  0.75875  0.20227  1.0000
  H   H2278     1.0  0.54602  0.79448  0.21976  1.0000
  C   C1897     1.0  0.53445  0.80544  0.21391  1.0000
  H   H2279     1.0  0.58746  0.79645  0.06874  1.0000
  C   C1898     1.0  0.61819  0.93278  0.25568  1.0000
  H   H2280     1.0  0.66842  0.74134  0.23676  1.0000
  C   C1899     1.0  0.62092  0.91534  0.24983  1.0000
  S   S513      1.0  0.53514  0.74125  0.15916  1.0000
  H   H2281     1.0  0.54271  0.76217  0.98854  1.0000
  H   H2282     1.0  0.54993  0.75220  0.25172  1.0000
  H   H2283     1.0  0.59259  0.84235  0.28564  1.0000
  C   C1900     1.0  0.52955  0.75634  0.10764  1.0000
  H   H2284     1.0  0.54074  0.77198  0.03515  1.0000
  C   C1901     1.0  0.64644  0.84151  0.25197  1.0000
  C   C1902     1.0  0.64345  0.83877  0.23452  1.0000
  C   C1903     1.0  0.64546  0.82029  0.23059  1.0000
  C   C1904     1.0  0.65061  0.80431  0.24408  1.0000
  C   C1905     1.0  0.65317  0.80702  0.26169  1.0000
  C   C1906     1.0  0.65105  0.82551  0.26565  1.0000
  H   H2285     1.0  0.63997  0.85104  0.22381  1.0000
  H   H2286     1.0  0.64352  0.81844  0.21695  1.0000
  H   H2287     1.0  0.65710  0.79479  0.27226  1.0000
  H   H2288     1.0  0.65337  0.82739  0.27914  1.0000
  C   C1907     1.0  0.49524  0.96442  0.29970  1.0000
  C   C1908     1.0  0.58433  0.93149  0.26660  1.0000
  Fe  Fe258     1.0  0.63085  0.76135  0.05681  1.0000
  C   C1909     1.0  0.63824  0.95628  0.30024  1.0000
  H   H2289     1.0  0.59808  0.95428  0.26881  1.0000
  H   H2290     1.0  0.56526  0.79980  0.18642  1.0000
  H   H2291     1.0  0.52010  0.77508  0.25991  1.0000
  H   H2292     1.0  0.53878  0.74896  0.09632  1.0000
  H   H2293     1.0  0.58775  0.85261  0.22859  1.0000
  H   H2294     1.0  0.52098  0.80067  0.08171  1.0000
  C   C1910     1.0  0.57508  0.82949  0.19879  1.0000
  H   H2295     1.0  0.68626  0.75042  0.25620  1.0000
  C   C1911     1.0  0.60132  0.77530  0.27218  1.0000
  H   H2296     1.0  0.52574  0.74952  0.06529  1.0000
  H   H2297     1.0  0.51473  0.75330  0.10944  1.0000
  C   C1912     1.0  0.64297  0.77524  0.12002  1.0000
  C   C1913     1.0  0.65060  0.79089  0.12161  1.0000
  C   C1914     1.0  0.65451  0.80467  0.10555  1.0000
  C   C1915     1.0  0.65072  0.80311  0.08811  1.0000
  H   H2298     1.0  0.63979  0.76461  0.13239  1.0000
  H   H2299     1.0  0.66039  0.81677  0.10661  1.0000
  H   H2300     1.0  0.65362  0.81406  0.07591  1.0000
  N   N127      1.0  0.54284  0.82023  0.19919  1.0000
  H   H2301     1.0  0.56158  0.87901  0.25880  1.0000
  C   C1916     1.0  0.53871  0.75343  0.19093  1.0000
  C   C1917     1.0  0.52697  0.83522  0.19287  1.0000
  H   H2302     1.0  0.51718  0.82931  0.18672  1.0000
  C   C1918     1.0  0.58646  0.83811  0.20647  1.0000
  H   H2303     1.0  0.56793  0.78400  0.03193  1.0000
  H   H2304     1.0  0.53266  0.84677  0.18198  1.0000
  C   C1919     1.0  0.55154  0.77316  0.98785  1.0000
  H   H2305     1.0  0.52072  0.77899  0.13289  1.0000
  C   C1920     1.0  0.54812  0.83733  0.22346  1.0000
  C   C1921     1.0  0.66761  0.96898  0.28723  1.0000
  C   C1922     1.0  0.58661  0.91362  0.26087  1.0000
  C   C1923     1.0  0.55925  0.77553  0.11703  1.0000
  C   C1924     1.0  0.55548  0.82885  0.20710  1.0000
  Fe  Fe259     1.0  0.59783  0.74239  0.05657  1.0000
  H   H2306     1.0  0.53326  0.83766  0.23040  1.0000
  C   C1925     1.0  0.55294  0.81106  0.18272  1.0000
  S   S514      1.0  0.56565  0.74826  0.06358  1.0000
  C   C1926     1.0  0.57932  0.79091  0.08226  1.0000
  C   C1927     1.0  0.56170  0.81026  0.98836  1.0000
  H   H2307     1.0  0.60446  0.76176  0.26661  1.0000
  H   H2308     1.0  0.58205  0.82339  0.18637  1.0000
  H   H2309     1.0  0.55703  0.92187  0.24232  1.0000
  N   N128      1.0  0.52981  0.77709  0.10317  1.0000
  S   S515      1.0  0.50149  0.83490  0.29009  1.0000
  C   C1928     1.0  0.51709  0.78603  0.11881  1.0000
  C   C1929     1.0  0.52130  0.78504  0.08583  1.0000
  C   C1930     1.0  0.54979  0.78034  0.10116  1.0000
  C   C1931     1.0  0.56053  0.78797  0.08359  1.0000
  H   H2310     1.0  0.55840  0.82159  0.17047  1.0000
  S   S516      1.0  0.63807  0.78714  0.06398  1.0000
  C   C1932     1.0  0.64325  0.78755  0.08632  1.0000
  C   C1933     1.0  0.58158  0.80730  0.01778  1.0000
  S   S517      1.0  0.61580  0.74039  0.07849  1.0000
  H   H2311     1.0  0.63526  0.90877  0.24384  1.0000
  C   C1934     1.0  0.55966  0.84572  0.23112  1.0000
  H   H2312     1.0  0.55493  0.79138  0.07057  1.0000
  H   H2313     1.0  0.52202  0.80529  0.26885  1.0000
  H   H2314     1.0  0.55266  0.88948  0.28931  1.0000
  H   H2315     1.0  0.54724  0.92813  0.26524  1.0000
  H   H2316     1.0  0.50623  0.78278  0.08792  1.0000
  H   H2317     1.0  0.54244  0.76165  0.21617  1.0000
  H   H2318     1.0  0.58122  0.75917  0.25220  1.0000
  C   C1935     1.0  0.58792  0.78650  0.09824  1.0000
  H   H2319     1.0  0.51788  0.80141  0.11682  1.0000
  H   H2320     1.0  0.54950  0.78355  0.97469  1.0000
  S   S518      1.0  0.66407  0.89544  0.28544  1.0000
  H   H2321     1.0  0.52115  0.79960  0.01858  1.0000
  H   H2322     1.0  0.52411  0.80394  0.99322  1.0000
  C   C1936     1.0  0.55323  0.91596  0.25763  1.0000
  C   C1937     1.0  0.54625  0.76648  0.02165  1.0000
  C   C1938     1.0  0.58906  0.80879  0.26779  1.0000
  H   H2323     1.0  0.51552  0.78301  0.00680  1.0000
  C   C1939     1.0  0.57036  0.78652  0.26167  1.0000
  C   C1940     1.0  0.56863  0.76933  0.25660  1.0000
  C   C1941     1.0  0.55295  0.79939  0.26621  1.0000
  H   H2324     1.0  0.50172  0.78498  0.11978  1.0000
  C   C1942     1.0  0.53395  0.77817  0.26059  1.0000
  H   H2325     1.0  0.60240  0.78899  0.09708  1.0000
  C   C1943     1.0  0.57798  0.77870  0.11558  1.0000
  H   H2326     1.0  0.56062  0.90976  0.29304  1.0000
  C   C1944     1.0  0.69742  0.73732  0.25505  1.0000
  C   C1945     1.0  0.57443  0.88597  0.25620  1.0000
  H   H2327     1.0  0.60380  0.81146  0.26739  1.0000
  N   N129      1.0  0.54595  0.78212  0.00500  1.0000
  N   N130      1.0  0.57016  0.90337  0.26487  1.0000
  H   H2328     1.0  0.57059  0.93813  0.27360  1.0000
  C   C1946     1.0  0.65642  0.95500  0.28881  1.0000
  H   H2329     1.0  0.52922  0.77793  0.07378  1.0000
  H   H2330     1.0  0.66154  0.94365  0.28064  1.0000
  H   H2331     1.0  0.55365  0.85193  0.24374  1.0000
  H   H2332     1.0  0.57395  0.74749  0.15276  1.0000
  N   N131      1.0  0.58964  0.79100  0.26076  1.0000
  C   C1947     1.0  0.55071  0.76526  0.25611  1.0000
  C   C1948     1.0  0.63947  0.77348  0.10231  1.0000
  C   C1949     1.0  0.56490  0.89744  0.28558  1.0000
  C   C1950     1.0  0.53508  0.79520  0.26559  1.0000
  H   H2333     1.0  0.54105  0.90820  0.25940  1.0000
  H   H2334     1.0  0.53685  0.75626  0.02160  1.0000
  H   H2335     1.0  0.54330  0.80390  0.17769  1.0000
  C   C1951     1.0  0.60544  0.90583  0.25234  1.0000
  H   H2336     1.0  0.61149  0.77057  0.99192  1.0000
  H   H2337     1.0  0.55420  0.81214  0.97667  1.0000
  H   H2338     1.0  0.58577  0.87497  0.26239  1.0000
  H   H2339     1.0  0.68135  0.96838  0.27777  1.0000
  C   C1952     1.0  0.70407  0.74550  0.22104  1.0000
  H   H2340     1.0  0.61569  0.77870  0.27213  1.0000
  H   H2341     1.0  0.56102  0.75805  0.02209  1.0000
  H   H2342     1.0  0.58492  0.77495  0.12790  1.0000
  H   H2343     1.0  0.59068  0.80378  0.23148  1.0000
  Fe  Fe260     1.0  0.50300  0.74754  0.16788  1.0000
  H   H2344     1.0  0.60140  0.83836  0.19991  1.0000
  H   H2345     1.0  0.58182  0.82154  0.25903  1.0000
  C   C1953     1.0  0.55899  0.79551  0.00427  1.0000
  H   H2346     1.0  0.58144  0.80813  0.28273  1.0000
  H   H2347     1.0  0.61368  0.79792  0.23904  1.0000
  H   H2348     1.0  0.71122  0.74109  0.25612  1.0000
  H   H2349     1.0  0.74151  0.93646  0.29580  1.0000
  C   C1954     1.0  0.56915  0.79457  0.01915  1.0000
  S   S519      1.0  0.61965  0.88980  0.29675  1.0000
  C   C1955     1.0  0.50922  0.92584  0.29751  1.0000
  H   H2350     1.0  0.57913  0.88937  0.24061  1.0000
  Fe  Fe261     1.0  0.65278  0.73725  0.19550  1.0000
  C   C1956     1.0  0.51357  0.95605  0.30363  1.0000
  H   H2351     1.0  0.52373  0.75228  0.19611  1.0000
  Fe  Fe262     1.0  0.63158  0.74106  0.02401  1.0000
  H   H2352     1.0  0.69289  0.75869  0.22069  1.0000
  S   S520      1.0  0.65281  0.73947  0.04288  1.0000
  H   H2353     1.0  0.51458  0.91093  0.29685  1.0000
  H   H2354     1.0  0.60271  0.77966  0.23527  1.0000
  S   S521      1.0  0.51026  0.87655  0.26560  1.0000
  C   C1957     1.0  0.57431  0.82277  0.98707  1.0000
  S   S522      1.0  0.50451  0.74333  0.01305  1.0000
  H   H2355     1.0  0.58940  0.80618  0.02915  1.0000
  Fe  Fe263     1.0  0.63689  0.90966  0.30160  1.0000
  C   C1958     1.0  0.58429  0.82124  0.00172  1.0000
  H   H2356     1.0  0.63036  0.93980  0.25425  1.0000
  H   H2357     1.0  0.70606  0.74052  0.20735  1.0000
  H   H2358     1.0  0.59420  0.83084  0.00064  1.0000
  C   C1959     1.0  0.56491  0.84962  0.30301  1.0000
  H   H2359     1.0  0.65053  0.73354  0.12004  1.0000
  C   C1960     1.0  0.52047  0.93674  0.30262  1.0000
  S   S523      1.0  0.62294  0.94047  0.30070  1.0000
  C   C1961     1.0  0.62945  0.75024  0.97540  1.0000
  C   C1962     1.0  0.61538  0.76632  0.97820  1.0000
  H   H2360     1.0  0.73968  0.96021  0.30010  1.0000
  H   H2361     1.0  0.70734  0.93893  0.29821  1.0000
  H   H2362     1.0  0.70479  0.96334  0.30021  1.0000
  C   C1963     1.0  0.55344  0.73150  0.05976  1.0000
  H   H2363     1.0  0.57647  0.83364  0.97457  1.0000
  H   H2364     1.0  0.82528  0.88233  0.52286  1.0000
  H   H2365     1.0  0.76918  0.94753  0.45776  1.0000
  H   H2366     1.0  0.60277  0.92696  0.34031  1.0000
  Fe  Fe264     1.0  0.76611  0.93429  0.57570  1.0000
  S   S524      1.0  0.73650  0.92694  0.58323  1.0000
  S   S525      1.0  0.77361  0.96362  0.56444  1.0000
  Fe  Fe265     1.0  0.78609  0.89225  0.57971  1.0000
  S   S526      1.0  0.75800  0.88140  0.58702  1.0000
  S   S527      1.0  0.81708  0.87667  0.57470  1.0000
  Fe  Fe266     1.0  0.74849  0.90536  0.56403  1.0000
  S   S528      1.0  0.73181  0.90660  0.54095  1.0000
  Fe  Fe267     1.0  0.74825  0.90386  0.60563  1.0000
  H   H2367     1.0  0.58393  0.94507  0.31503  1.0000
  S   S529      1.0  0.77729  0.91417  0.55519  1.0000
  S   S530      1.0  0.77711  0.91320  0.59965  1.0000
  H   H2368     1.0  0.83826  0.86602  0.53964  1.0000
  H   H2369     1.0  0.81690  0.82404  0.55734  1.0000
  C   C1964     1.0  0.78963  0.81290  0.46740  1.0000
  N   N132      1.0  0.82337  0.85272  0.52514  1.0000
  H   H2370     1.0  0.71927  0.91226  0.40203  1.0000
  H   H2371     1.0  0.80366  0.83365  0.38901  1.0000
  C   C1965     1.0  0.81923  0.85496  0.50577  1.0000
  H   H2372     1.0  0.87060  0.87454  0.60586  1.0000
  N   N133      1.0  0.80963  0.81346  0.45708  1.0000
  S   S531      1.0  0.88305  0.75186  0.58010  1.0000
  C   C1966     1.0  0.98564  0.73867  0.49427  1.0000
  S   S532      1.0  0.49889  0.87066  0.31210  1.0000
  Fe  Fe268     1.0  0.74363  0.87279  0.41098  1.0000
  S   S533      1.0  0.76181  0.89268  0.39120  1.0000
  Fe  Fe269     1.0  0.76237  0.87327  0.44500  1.0000
  S   S534      1.0  0.78076  0.89408  0.42768  1.0000
  S   S535      1.0  0.76860  0.86017  0.47443  1.0000
  Fe  Fe270     1.0  0.75471  0.90926  0.41504  1.0000
  S   S536      1.0  0.73914  0.93998  0.41145  1.0000
  Fe  Fe271     1.0  0.78614  0.87520  0.40588  1.0000
  S   S537      1.0  0.81786  0.86606  0.39471  1.0000
  S   S538      1.0  0.73570  0.88988  0.43443  1.0000
  S   S539      1.0  0.76850  0.85387  0.42365  1.0000
  S   S540      1.0  0.91162  0.75592  0.38439  1.0000
  S   S541      1.0  0.89955  0.76931  0.42591  1.0000
  Fe  Fe272     1.0  0.88428  0.76335  0.40473  1.0000
  S   S542      1.0  0.85617  0.77891  0.39514  1.0000
  Fe  Fe273     1.0  0.92698  0.75886  0.40688  1.0000
  S   S543      1.0  0.95399  0.77187  0.39786  1.0000
  H   H2373     1.0  0.76663  0.92390  0.51637  1.0000
  H   H2374     1.0  0.95347  0.78553  0.54892  1.0000
  C   C1967     1.0  0.97223  0.76354  0.41176  1.0000
  C   C1968     1.0  0.96912  0.75116  0.42904  1.0000
  H   H2375     1.0  0.69771  0.95185  0.39904  1.0000
  C   C1969     1.0  0.68981  0.86757  0.36045  1.0000
  C   C1970     1.0  0.82298  0.80355  0.48736  1.0000
  H   H2376     1.0  0.65211  0.94718  0.33870  1.0000
  H   H2377     1.0  0.97041  0.81067  0.52853  1.0000
  H   H2378     1.0  0.84753  0.86761  0.51488  1.0000
  C   C1971     1.0  0.84029  0.83648  0.63425  1.0000
  H   H2379     1.0  0.56825  0.89915  0.33230  1.0000
  C   C1972     1.0  0.82826  0.84173  0.39524  1.0000
  C   C1973     1.0  0.84728  0.83532  0.39847  1.0000
  C   C1974     1.0  0.85608  0.81610  0.39858  1.0000
  C   C1975     1.0  0.84605  0.80325  0.39495  1.0000
  C   C1976     1.0  0.82715  0.80973  0.39140  1.0000
  C   C1977     1.0  0.81820  0.82882  0.39178  1.0000
  H   H2380     1.0  0.85523  0.84529  0.40092  1.0000
  H   H2381     1.0  0.87065  0.81130  0.40125  1.0000
  H   H2382     1.0  0.71244  0.90534  0.38304  1.0000
  C   C1978     1.0  0.75113  0.95945  0.40773  1.0000
  C   C1979     1.0  0.83407  0.86780  0.52556  1.0000
  C   C1980     1.0  0.67154  0.95087  0.37583  1.0000
  H   H2383     1.0  0.74339  0.94079  0.34671  1.0000
  C   C1981     1.0  0.98866  0.77480  0.59975  1.0000
  C   C1982     1.0  0.57540  0.93339  0.31860  1.0000
  C   C1983     1.0  0.66164  0.95637  0.36054  1.0000
  H   H2384     1.0  0.87562  0.77264  0.35781  1.0000
  H   H2385     1.0  0.77972  0.94314  0.40255  1.0000
  H   H2386     1.0  0.81929  0.79990  0.38855  1.0000
  H   H2387     1.0  0.73130  0.94747  0.54193  1.0000
  C   C1984     1.0  0.86214  0.86393  0.61395  1.0000
  C   C1985     1.0  0.85054  0.77838  0.49110  1.0000
  C   C1986     1.0  0.74235  0.89377  0.52249  1.0000
  C   C1987     1.0  0.73597  0.89956  0.50507  1.0000
  C   C1988     1.0  0.74414  0.88956  0.49010  1.0000
  C   C1989     1.0  0.75840  0.87340  0.49268  1.0000
  C   C1990     1.0  0.76457  0.86743  0.51020  1.0000
  C   C1991     1.0  0.75673  0.87772  0.52502  1.0000
  H   H2388     1.0  0.72471  0.91187  0.50312  1.0000
  H   H2389     1.0  0.73918  0.89415  0.47670  1.0000
  H   H2390     1.0  0.77521  0.85468  0.51237  1.0000
  H   H2391     1.0  0.76124  0.87293  0.53862  1.0000
  C   C1992     1.0  0.87268  0.73605  0.37023  1.0000
  H   H2392     1.0  0.77948  0.97986  0.49692  1.0000
  H   H2393     1.0  0.84807  0.76255  0.33620  1.0000
  C   C1993     1.0  0.58603  0.85737  0.32764  1.0000
  N   N134      1.0  0.96620  0.74933  0.50045  1.0000
  H   H2394     1.0  0.98593  0.80738  0.49560  1.0000
  C   C1994     1.0  0.72108  0.92334  0.32961  1.0000
  H   H2395     1.0  0.73170  0.87933  0.33419  1.0000
  H   H2396     1.0  0.53979  0.85758  0.32342  1.0000
  H   H2397     1.0  0.74333  0.96609  0.59749  1.0000
  C   C1995     1.0  0.84207  0.81426  0.59616  1.0000
  C   C1996     1.0  0.82226  0.82108  0.60110  1.0000
  C   C1997     1.0  0.81423  0.84004  0.59429  1.0000
  C   C1998     1.0  0.82610  0.85243  0.58288  1.0000
  C   C1999     1.0  0.84581  0.84550  0.57766  1.0000
  C   C2000     1.0  0.85374  0.82645  0.58410  1.0000
  C   C2001     1.0  0.95645  0.75662  0.48381  1.0000
  H   H2398     1.0  0.79896  0.84510  0.59809  1.0000
  H   H2399     1.0  0.85510  0.85497  0.56883  1.0000
  H   H2400     1.0  0.86900  0.82138  0.58023  1.0000
  H   H2401     1.0  0.83242  0.85481  0.49477  1.0000
  C   C2002     1.0  0.95939  0.76791  0.52754  1.0000
  C   C2003     1.0  0.85187  0.77584  0.47261  1.0000
  H   H2402     1.0  0.80302  0.84304  0.44410  1.0000
  H   H2403     1.0  0.69085  0.94759  0.31752  1.0000
  C   C2004     1.0  0.77119  0.95715  0.40347  1.0000
  C   C2005     1.0  0.97554  0.74728  0.59878  1.0000
  S   S544      1.0  0.85183  0.79086  0.60624  1.0000
  H   H2404     1.0  0.56097  0.93934  0.31476  1.0000
  H   H2405     1.0  0.94283  0.76659  0.48750  1.0000
  H   H2406     1.0  0.96388  0.74122  0.59675  1.0000
  H   H2407     1.0  0.80001  0.81678  0.43046  1.0000
  Fe  Fe274     1.0  0.62652  0.87212  0.32396  1.0000
  H   H2408     1.0  0.96693  0.75167  0.36539  1.0000
  Fe  Fe275     1.0  0.90672  0.76390  0.55894  1.0000
  C   C2006     1.0  0.83614  0.79223  0.49846  1.0000
  H   H2409     1.0  0.70240  0.91084  0.61657  1.0000
  C   C2007     1.0  0.77051  0.94935  0.47163  1.0000
  H   H2410     1.0  0.98743  0.75737  0.37086  1.0000
  C   C2008     1.0  0.83879  0.78708  0.46137  1.0000
  H   H2411     1.0  0.73995  0.87482  0.36616  1.0000
  H   H2412     1.0  0.79604  0.87034  0.53370  1.0000
  H   H2413     1.0  0.81313  0.81165  0.61031  1.0000
  H   H2414     1.0  0.78632  0.81941  0.48031  1.0000
  H   H2415     1.0  0.78687  0.79801  0.47159  1.0000
  C   C2009     1.0  0.81100  0.80765  0.43864  1.0000
  H   H2416     1.0  0.80960  0.86877  0.50178  1.0000
  C   C2010     1.0  0.59367  0.91588  0.34232  1.0000
  H   H2417     1.0  0.76443  0.92124  0.48401  1.0000
  H   H2418     1.0  0.90803  0.78268  0.48781  1.0000
  Fe  Fe276     1.0  0.92619  0.77050  0.58940  1.0000
  H   H2419     1.0  0.94002  0.74246  0.51859  1.0000
  C   C2011     1.0  0.80453  0.85597  0.53799  1.0000
  C   C2012     1.0  0.83523  0.83379  0.53044  1.0000
  C   C2013     1.0  0.85318  0.82811  0.51893  1.0000
  C   C2014     1.0  0.82996  0.82089  0.54736  1.0000
  C   C2015     1.0  0.86503  0.81067  0.52402  1.0000
  C   C2016     1.0  0.84198  0.80352  0.55232  1.0000
  C   C2017     1.0  0.85946  0.79844  0.54071  1.0000
  H   H2420     1.0  0.81189  0.84341  0.50471  1.0000
  H   H2421     1.0  0.80637  0.85552  0.55268  1.0000
  H   H2422     1.0  0.79558  0.84525  0.53820  1.0000
  H   H2423     1.0  0.85842  0.83730  0.50611  1.0000
  H   H2424     1.0  0.87882  0.80667  0.51519  1.0000
  H   H2425     1.0  0.83799  0.79414  0.56559  1.0000
  H   H2426     1.0  0.86886  0.78511  0.54480  1.0000
  H   H2427     1.0  0.79579  0.97129  0.39654  1.0000
  C   C2018     1.0  0.55532  0.85573  0.31990  1.0000
  H   H2428     1.0  0.68386  0.90331  0.37426  1.0000
  C   C2019     1.0  0.85956  0.83104  0.62623  1.0000
  S   S545      1.0  0.65350  0.85441  0.31057  1.0000
  H   H2429     1.0  0.61757  0.97196  0.31962  1.0000
  C   C2020     1.0  0.71805  0.95586  0.33450  1.0000
  C   C2021     1.0  0.68198  0.86616  0.63540  1.0000
  C   C2022     1.0  0.85026  0.75517  0.35068  1.0000
  H   H2430     1.0  0.59390  0.90729  0.35674  1.0000
  H   H2431     1.0  0.86072  0.76955  0.49973  1.0000
  H   H2432     1.0  0.88520  0.84031  0.60942  1.0000
  C   C2023     1.0  0.98380  0.74481  0.43993  1.0000
  C   C2024     1.0  0.87800  0.73364  0.33725  1.0000
  H   H2433     1.0  0.75181  0.94007  0.31448  1.0000
  C   C2025     1.0  0.76775  0.93417  0.48657  1.0000
  H   H2434     1.0  0.98444  0.77949  0.48293  1.0000
  C   C2026     1.0  0.76913  0.93560  0.50479  1.0000
  H   H2435     1.0  0.81214  0.81416  0.49362  1.0000
  S   S546      1.0  0.90919  0.77308  0.52718  1.0000
  Fe  Fe277     1.0  0.90624  0.73645  0.59696  1.0000
  C   C2027     1.0  0.83131  0.85599  0.63229  1.0000
  H   H2436     1.0  0.83736  0.88467  0.62027  1.0000
  C   C2028     1.0  0.56278  0.93214  0.37175  1.0000
  C   C2029     1.0  0.72119  0.87554  0.34657  1.0000
  C   C2030     1.0  0.89574  0.73203  0.50512  1.0000
  S   S547      1.0  0.71788  0.86414  0.40387  1.0000
  H   H2437     1.0  0.95274  0.74497  0.47840  1.0000
  H   H2438     1.0  0.68938  0.90487  0.42393  1.0000
  S   S548      1.0  0.52845  0.96933  0.30936  1.0000
  H   H2439     1.0  0.60087  0.90589  0.33243  1.0000
  C   C2031     1.0  0.97001  0.79811  0.52309  1.0000
  H   H2440     1.0  0.81066  0.83940  0.46627  1.0000
  H   H2441     1.0  0.77455  0.95318  0.52239  1.0000
  C   C2032     1.0  0.87042  0.84470  0.61599  1.0000
  C   C2033     1.0  0.59554  0.85107  0.31085  1.0000
  C   C2034     1.0  0.99026  0.76920  0.40530  1.0000
  C   C2035     1.0  0.67769  0.91820  0.37094  1.0000
  C   C2036     1.0  0.72881  0.96106  0.53250  1.0000
  C   C2037     1.0  0.88152  0.76290  0.34735  1.0000
  N   N135      1.0  0.87085  0.74681  0.35100  1.0000
  H   H2442     1.0  0.95530  0.74673  0.43418  1.0000
  S   S549      1.0  0.88364  0.73264  0.41831  1.0000
  C   C2038     1.0  0.97335  0.76702  0.59731  1.0000
  C   C2039     1.0  0.72594  0.87288  0.36468  1.0000
  S   S550      1.0  0.95194  0.78238  0.59203  1.0000
  C   C2040     1.0  0.72910  0.96387  0.36077  1.0000
  C   C2041     1.0  0.65976  0.94288  0.35053  1.0000
  N   N136      1.0  0.69048  0.92500  0.39759  1.0000
  H   H2443     1.0  0.68395  0.89634  0.40531  1.0000
  C   C2042     1.0  0.67979  0.93148  0.38159  1.0000
  Fe  Fe278     1.0  0.66839  0.87766  0.31398  1.0000
  C   C2043     1.0  0.98293  0.74865  0.36244  1.0000
  S   S551      1.0  0.90421  0.78915  0.57273  1.0000
  H   H2444     1.0  0.71792  0.92874  0.38039  1.0000
  H   H2445     1.0  0.75602  0.97722  0.44432  1.0000
  C   C2044     1.0  0.89872  0.74219  0.51820  1.0000
  S   S552      1.0  0.69774  0.87706  0.32123  1.0000
  C   C2045     1.0  0.71275  0.86724  0.38077  1.0000
  C   C2046     1.0  0.56507  0.93832  0.35185  1.0000
  H   H2446     1.0  0.68447  0.85999  0.39092  1.0000
  H   H2447     1.0  0.80029  0.83849  0.63715  1.0000
  C   C2047     1.0  0.70524  0.94862  0.30859  1.0000
  C   C2048     1.0  0.73125  0.95240  0.34718  1.0000
  C   C2049     1.0  0.69473  0.86446  0.37856  1.0000
  Fe  Fe279     1.0  0.88191  0.77617  0.59485  1.0000
  Fe  Fe280     1.0  0.90075  0.73818  0.43822  1.0000
  C   C2050     1.0  0.67688  0.91192  0.63823  1.0000
  C   C2051     1.0  0.90334  0.76042  0.51194  1.0000
  C   C2052     1.0  0.84296  0.86957  0.62211  1.0000
  S   S553      1.0  0.90358  0.75988  0.61325  1.0000
  H   H2448     1.0  0.69215  0.97577  0.32691  1.0000
  H   H2449     1.0  0.86314  0.76501  0.46694  1.0000
  S   S554      1.0  0.93021  0.74613  0.57415  1.0000
  C   C2053     1.0  0.70307  0.87306  0.34435  1.0000
  H   H2450     1.0  0.67588  0.86543  0.35894  1.0000
  H   H2451     1.0  0.88057  0.77173  0.33311  1.0000
  C   C2054     1.0  0.55869  0.95801  0.34528  1.0000
  C   C2055     1.0  0.54874  0.96413  0.37732  1.0000
  C   C2056     1.0  0.97776  0.78020  0.49747  1.0000
  H   H2452     1.0  0.73717  0.97593  0.55031  1.0000
  H   H2453     1.0  0.70787  0.92169  0.34031  1.0000
  H   H2454     1.0  0.83517  0.79410  0.51289  1.0000
  C   C2057     1.0  0.96048  0.78393  0.53457  1.0000
  S   S555      1.0  0.64189  0.89324  0.32999  1.0000
  H   H2455     1.0  0.55850  0.86411  0.34537  1.0000
  H   H2456     1.0  0.90342  0.76453  0.46485  1.0000
  C   C2058     1.0  0.77351  0.95215  0.50812  1.0000
  S   S556      1.0  0.73484  0.89683  0.63670  1.0000
  H   H2457     1.0  0.82793  0.83442  0.44548  1.0000
  H   H2458     1.0  0.56729  0.91738  0.37777  1.0000
  S   S557      1.0  0.59916  0.86398  0.34203  1.0000
  H   H2459     1.0  0.66649  0.91407  0.41635  1.0000
  H   H2460     1.0  0.55319  0.93994  0.39940  1.0000
  H   H2461     1.0  0.72183  0.91383  0.31935  1.0000
  C   C2059     1.0  0.73190  0.97756  0.53725  1.0000
  C   C2060     1.0  0.71384  0.97914  0.36206  1.0000
  C   C2061     1.0  0.79345  0.97609  0.44361  1.0000
  C   C2062     1.0  0.69025  0.94033  0.40811  1.0000
  C   C2063     1.0  0.55474  0.94491  0.38426  1.0000
  C   C2064     1.0  0.56591  0.85941  0.33230  1.0000
  C   C2065     1.0  0.97872  0.79621  0.50460  1.0000
  H   H2462     1.0  0.80135  0.87051  0.61452  1.0000
  H   H2463     1.0  0.86748  0.74533  0.38110  1.0000
  C   C2066     1.0  0.82372  0.80119  0.46853  1.0000
  C   C2067     1.0  0.90458  0.76853  0.49272  1.0000
  C   C2068     1.0  0.95505  0.73555  0.51381  1.0000
  H   H2464     1.0  0.96545  0.76447  0.47171  1.0000
  N   N137      1.0  0.57392  0.92459  0.33892  1.0000
  H   H2465     1.0  0.82516  0.80918  0.42956  1.0000
  H   H2466     1.0  0.89692  0.75778  0.34862  1.0000
  C   C2069     1.0  0.56237  0.90925  0.34239  1.0000
  C   C2070     1.0  0.71086  0.91753  0.39036  1.0000
  H   H2467     1.0  0.95124  0.75784  0.53697  1.0000
  C   C2071     1.0  0.81301  0.83339  0.45314  1.0000
  C   C2072     1.0  0.96787  0.76563  0.50867  1.0000
  H   H2468     1.0  0.72057  0.94891  0.51197  1.0000
  H   H2469     1.0  0.54712  0.91528  0.34098  1.0000
  H   H2470     1.0  0.58292  0.92293  0.30924  1.0000
  C   C2073     1.0  0.66784  0.92383  0.35568  1.0000
  H   H2471     1.0  0.73364  0.91747  0.33688  1.0000
  H   H2472     1.0  0.80892  0.79264  0.44045  1.0000
  H   H2473     1.0  0.84481  0.76577  0.36037  1.0000
  C   C2074     1.0  0.90200  0.75825  0.47965  1.0000
  H   H2474     1.0  0.66712  0.91605  0.62817  1.0000
  H   H2475     1.0  0.66657  0.91331  0.34777  1.0000
  H   H2476     1.0  0.84086  0.78436  0.44712  1.0000
  H   H2477     1.0  0.56249  0.90036  0.35671  1.0000
  H   H2478     1.0  0.67531  0.94663  0.41402  1.0000
  H   H2479     1.0  0.77878  0.82126  0.45863  1.0000
  C   C2075     1.0  0.69689  0.90899  0.63160  1.0000
  C   C2076     1.0  0.74019  0.97773  0.40866  1.0000
  H   H2480     1.0  0.67257  0.96211  0.38284  1.0000
  H   H2481     1.0  0.80702  0.97057  0.44939  1.0000
  C   C2077     1.0  0.89760  0.73994  0.48577  1.0000
  H   H2482     1.0  0.84077  0.74429  0.35547  1.0000
  H   H2483     1.0  0.98775  0.75423  0.34722  1.0000
  H   H2484     1.0  0.73930  0.96090  0.37041  1.0000
  C   C2078     1.0  0.77478  0.96652  0.47451  1.0000
  C   C2079     1.0  0.68213  0.90949  0.41133  1.0000
  H   H2485     1.0  0.61107  0.84926  0.30721  1.0000
  H   H2486     1.0  0.78493  0.88029  0.63346  1.0000
  C   C2080     1.0  0.63156  0.97112  0.31059  1.0000
  H   H2487     1.0  0.71541  0.97970  0.48995  1.0000
  H   H2488     1.0  0.69813  0.93486  0.42024  1.0000
  C   C2081     1.0  0.73923  0.94513  0.30711  1.0000
  C   C2082     1.0  0.80050  0.87631  0.62750  1.0000
  N   N138      1.0  0.72071  0.94353  0.32019  1.0000
  C   C2083     1.0  0.55069  0.97059  0.35790  1.0000
  H   H2489     1.0  0.98704  0.79006  0.59869  1.0000
  H   H2490     1.0  0.67886  0.87265  0.62142  1.0000
  C   C2084     1.0  0.70279  0.97172  0.33605  1.0000
  H   H2491     1.0  0.55959  0.96416  0.33047  1.0000
  H   H2492     1.0  0.80605  0.88993  0.62303  1.0000
  H   H2493     1.0  0.54256  0.97413  0.38693  1.0000
  C   C2085     1.0  0.72280  0.96186  0.51554  1.0000
  C   C2086     1.0  0.78025  0.97311  0.40002  1.0000
  H   H2494     1.0  0.71259  0.86424  0.62644  1.0000
  C   C2087     1.0  0.77626  0.96747  0.49327  1.0000
  H   H2495     1.0  0.86594  0.81602  0.62742  1.0000
  H   H2496     1.0  0.79049  0.96467  0.43735  1.0000
  H   H2497     1.0  0.98125  0.73530  0.45330  1.0000
  H   H2498     1.0  0.72463  0.97960  0.41186  1.0000
  H   H2499     1.0  0.90297  0.74637  0.32128  1.0000
  C   C2088     1.0  0.74795  0.97975  0.59271  1.0000
  H   H2500     1.0  0.89771  0.73582  0.53301  1.0000
  C   C2089     1.0  0.89467  0.73525  0.32304  1.0000
  C   C2090     1.0  0.71996  0.97920  0.50319  1.0000
  C   C2091     1.0  0.70101  0.86140  0.63819  1.0000
  H   H2501     1.0  0.65544  0.97125  0.35640  1.0000
  H   H2502     1.0  0.53445  0.93019  0.30602  1.0000
  Fe  Fe281     1.0  0.58835  0.92039  0.71874  1.0000
  S   S558      1.0  0.59956  0.91686  0.74586  1.0000
  S   S559      1.0  0.55647  0.93081  0.71953  1.0000
  Fe  Fe282     1.0  0.62861  0.91221  0.69531  1.0000
  S   S560      1.0  0.64272  0.90801  0.72049  1.0000
  Fe  Fe283     1.0  0.61955  0.89120  0.73625  1.0000
  S   S561      1.0  0.62937  0.86159  0.75278  1.0000
  Fe  Fe284     1.0  0.62147  0.93392  0.72778  1.0000
  S   S562      1.0  0.63226  0.95776  0.73516  1.0000
  S   S563      1.0  0.60673  0.89357  0.71026  1.0000
  S   S564      1.0  0.60889  0.93927  0.70150  1.0000
  C   C2092     1.0  0.60632  0.83297  0.81347  1.0000
  C   C2093     1.0  0.53429  0.73908  0.87334  1.0000
  H   H2503     1.0  0.66970  0.85956  0.70566  1.0000
  C   C2094     1.0  0.56171  0.97027  0.68226  1.0000
  S   S565      1.0  0.66663  0.74265  0.85909  1.0000
  H   H2504     1.0  0.52636  0.77562  0.88366  1.0000
  S   S566      1.0  0.63039  0.78772  0.87229  1.0000
  C   C2095     1.0  0.80013  0.84643  0.64856  1.0000
  C   C2096     1.0  0.56973  0.85669  0.76242  1.0000
  H   H2505     1.0  0.64475  0.73213  0.95547  1.0000
  C   C2097     1.0  0.53526  0.86089  0.76124  1.0000
  C   C2098     1.0  0.51278  0.92027  0.69939  1.0000
  H   H2506     1.0  0.71992  0.85082  0.65837  1.0000
  C   C2099     1.0  0.52031  0.88980  0.74133  1.0000
  C   C2100     1.0  0.65743  0.83217  0.69457  1.0000
  C   C2101     1.0  0.65600  0.86387  0.70009  1.0000
  C   C2102     1.0  0.70224  0.90054  0.66394  1.0000
  C   C2103     1.0  0.55339  0.86704  0.75520  1.0000
  H   H2507     1.0  0.49324  0.83067  0.90220  1.0000
  C   C2104     1.0  0.52135  0.90533  0.68960  1.0000
  H   H2508     1.0  0.63339  0.85018  0.67068  1.0000
  H   H2509     1.0  0.50354  0.76847  0.89205  1.0000
  Fe  Fe285     1.0  0.63566  0.75752  0.86677  1.0000
  Fe  Fe286     1.0  0.60697  0.79344  0.85479  1.0000
  H   H2510     1.0  0.59605  0.78985  0.96513  1.0000
  C   C2105     1.0  0.53470  0.84369  0.77459  1.0000
  H   H2511     1.0  0.54811  0.88768  0.67987  1.0000
  H   H2512     1.0  0.64562  0.82926  0.70673  1.0000
  C   C2106     1.0  0.61747  0.98052  0.73324  1.0000
  H   H2513     1.0  0.62829  0.80900  0.80735  1.0000
  S   S567      1.0  0.61352  0.76387  0.84759  1.0000
  H   H2514     1.0  0.66090  0.95829  0.67546  1.0000
  H   H2515     1.0  0.52511  0.89946  0.74853  1.0000
  S   S568      1.0  0.64416  0.91101  0.66519  1.0000
  C   C2107     1.0  0.54366  0.92150  0.70687  1.0000
  C   C2108     1.0  0.52381  0.92814  0.70820  1.0000
  C   C2109     1.0  0.55168  0.74602  0.86747  1.0000
  C   C2110     1.0  0.54135  0.89910  0.68764  1.0000
  C   C2111     1.0  0.55253  0.90721  0.69625  1.0000
  H   H2516     1.0  0.51674  0.93898  0.71659  1.0000
  H   H2517     1.0  0.56786  0.90209  0.69503  1.0000
  C   C2112     1.0  0.63429  0.74485  0.95755  1.0000
  H   H2518     1.0  0.54547  0.73621  0.92177  1.0000
  C   C2113     1.0  0.66489  0.97229  0.67245  1.0000
  C   C2114     1.0  0.81125  0.87158  0.65725  1.0000
  H   H2519     1.0  0.50715  0.84638  0.75189  1.0000
  C   C2115     1.0  0.54450  0.82521  0.87211  1.0000
  H   H2520     1.0  0.59100  0.97021  0.73622  1.0000
  H   H2521     1.0  0.58341  0.86160  0.75763  1.0000
  H   H2522     1.0  0.71203  0.89593  0.67394  1.0000
  H   H2523     1.0  0.81924  0.86163  0.66788  1.0000
  C   C2116     1.0  0.59796  0.85167  0.80620  1.0000
  C   C2117     1.0  0.60481  0.86068  0.78772  1.0000
  C   C2118     1.0  0.62003  0.85098  0.77618  1.0000
  C   C2119     1.0  0.62848  0.83235  0.78346  1.0000
  C   C2120     1.0  0.62170  0.82338  0.80199  1.0000
  H   H2524     1.0  0.58602  0.85920  0.81494  1.0000
  H   H2525     1.0  0.59813  0.87502  0.78238  1.0000
  H   H2526     1.0  0.64033  0.82471  0.77473  1.0000
  C   C2121     1.0  0.62574  0.75585  0.94233  1.0000
  C   C2122     1.0  0.51182  0.77974  0.89190  1.0000
  H   H2527     1.0  0.58125  0.83223  0.78149  1.0000
  H   H2528     1.0  0.50629  0.73989  0.86699  1.0000
  C   C2123     1.0  0.57132  0.75145  0.93087  1.0000
  H   H2529     1.0  0.53090  0.88753  0.72828  1.0000
  H   H2530     1.0  0.67108  0.82713  0.70024  1.0000
  C   C2124     1.0  0.63538  0.85838  0.68104  1.0000
  H   H2531     1.0  0.55538  0.87981  0.74492  1.0000
  Fe  Fe287     1.0  0.59315  0.75588  0.87462  1.0000
  C   C2125     1.0  0.53296  0.81190  0.87272  1.0000
  H   H2532     1.0  0.62403  0.85590  0.69374  1.0000
  S   S569      1.0  0.60086  0.78623  0.92623  1.0000
  H   H2533     1.0  0.65463  0.87928  0.69389  1.0000
  H   H2534     1.0  0.55896  0.82392  0.86380  1.0000
  C   C2126     1.0  0.60666  0.77723  0.96301  1.0000
  Fe  Fe288     1.0  0.60870  0.77757  0.89727  1.0000
  C   C2127     1.0  0.61197  0.77216  0.94499  1.0000
  C   C2128     1.0  0.67057  0.85574  0.66929  1.0000
  H   H2535     1.0  0.53204  0.97693  0.66587  1.0000
  H   H2536     1.0  0.58676  0.75156  0.93033  1.0000
  C   C2129     1.0  0.70510  0.85387  0.65625  1.0000
  C   C2130     1.0  0.70967  0.90289  0.64444  1.0000
  H   H2537     1.0  0.65748  0.82318  0.68409  1.0000
  N   N139      1.0  0.65503  0.85265  0.68583  1.0000
  S   S570      1.0  0.50705  0.89367  0.68082  1.0000
  S   S571      1.0  0.49526  0.74555  0.96322  1.0000
  H   H2538     1.0  0.56930  0.75486  0.91582  1.0000
  H   H2539     1.0  0.52661  0.96751  0.70120  1.0000
  C   C2131     1.0  0.53201  0.98033  0.70225  1.0000
  H   H2540     1.0  0.56281  0.76339  0.93795  1.0000
  C   C2132     1.0  0.68222  0.90382  0.67056  1.0000
  H   H2541     1.0  0.52339  0.85542  0.73129  1.0000
  H   H2542     1.0  0.67674  0.90185  0.68558  1.0000
  H   H2543     1.0  0.64424  0.86226  0.71256  1.0000
  H   H2544     1.0  0.65253  0.86829  0.64753  1.0000
  S   S572      1.0  0.58482  0.78557  0.88044  1.0000
  S   S573      1.0  0.59675  0.82225  0.83674  1.0000
  H   H2545     1.0  0.54227  0.77492  0.82638  1.0000
  H   H2546     1.0  0.56887  0.96541  0.69489  1.0000
  H   H2547     1.0  0.52154  0.83794  0.77949  1.0000
  C   C2133     1.0  0.51159  0.85959  0.74292  1.0000
  H   H2548     1.0  0.51374  0.79519  0.85481  1.0000
  C   C2134     1.0  0.55111  0.83356  0.78183  1.0000
  C   C2135     1.0  0.50181  0.87565  0.76985  1.0000
  C   C2136     1.0  0.54602  0.73327  0.93719  1.0000
  N   N140      1.0  0.51764  0.87140  0.75393  1.0000
  H   H2549     1.0  0.63231  0.87389  0.67507  1.0000
  H   H2550     1.0  0.51384  0.85338  0.90078  1.0000
  C   C2137     1.0  0.55444  0.75911  0.85066  1.0000
  C   C2138     1.0  0.56857  0.84008  0.77580  1.0000
  C   C2139     1.0  0.68224  0.73322  0.93252  1.0000
  H   H2551     1.0  0.49673  0.86262  0.77854  1.0000
  H   H2552     1.0  0.50672  0.89763  0.73648  1.0000
  C   C2140     1.0  0.52256  0.75811  0.84540  1.0000
  H   H2553     1.0  0.49756  0.92564  0.70034  1.0000
  C   C2141     1.0  0.53999  0.76495  0.83952  1.0000
  H   H2554     1.0  0.56784  0.76450  0.84608  1.0000
  N   N141      1.0  0.65148  0.89466  0.78304  1.0000
  C   C2142     1.0  0.65467  0.90445  0.79754  1.0000
  C   C2143     1.0  0.63131  0.90114  0.77996  1.0000
  C   C2144     1.0  0.65390  0.87391  0.79090  1.0000
  C   C2145     1.0  0.66472  0.89947  0.76501  1.0000
  C   C2146     1.0  0.66468  0.91879  0.75618  1.0000
  C   C2147     1.0  0.67756  0.88541  0.75549  1.0000
  C   C2148     1.0  0.67670  0.92376  0.73899  1.0000
  C   C2149     1.0  0.68958  0.89056  0.73829  1.0000
  C   C2150     1.0  0.68914  0.90968  0.73005  1.0000
  H   H2555     1.0  0.65092  0.92023  0.79381  1.0000
  H   H2556     1.0  0.64564  0.90034  0.81156  1.0000
  H   H2557     1.0  0.67001  0.90086  0.79940  1.0000
  H   H2558     1.0  0.62782  0.91684  0.77526  1.0000
  H   H2559     1.0  0.62078  0.89740  0.79303  1.0000
  H   H2560     1.0  0.62857  0.89434  0.76887  1.0000
  H   H2561     1.0  0.66867  0.86813  0.79399  1.0000
  H   H2562     1.0  0.64363  0.87072  0.80434  1.0000
  H   H2563     1.0  0.65091  0.86570  0.78106  1.0000
  H   H2564     1.0  0.65496  0.93030  0.76222  1.0000
  H   H2565     1.0  0.67843  0.87034  0.76088  1.0000
  H   H2566     1.0  0.67593  0.93865  0.73236  1.0000
  H   H2567     1.0  0.69916  0.87965  0.73118  1.0000
  H   H2568     1.0  0.69821  0.91362  0.71656  1.0000
  H   H2569     1.0  0.79636  0.87646  0.66454  1.0000
  H   H2570     1.0  0.50634  0.88324  0.77931  1.0000
  H   H2571     1.0  0.78474  0.85168  0.65417  1.0000
  H   H2572     1.0  0.57266  0.97405  0.66959  1.0000
  C   C2151     1.0  0.66943  0.90910  0.65770  1.0000
  H   H2573     1.0  0.55667  0.95747  0.68042  1.0000
  C   C2152     1.0  0.67927  0.97689  0.65717  1.0000
  S   S574      1.0  0.56974  0.73810  0.88134  1.0000
  C   C2153     1.0  0.50738  0.82855  0.89359  1.0000
  H   H2574     1.0  0.59680  0.73382  0.95609  1.0000
  H   H2575     1.0  0.62985  0.75177  0.92854  1.0000
  H   H2576     1.0  0.69409  0.84528  0.68532  1.0000
  S   S575      1.0  0.61572  0.74717  0.89311  1.0000
  H   H2577     1.0  0.67008  0.74427  0.92934  1.0000
  C   C2154     1.0  0.51397  0.81320  0.88341  1.0000
  C   C2155     1.0  0.51911  0.84176  0.89292  1.0000
  H   H2578     1.0  0.49897  0.86744  0.73628  1.0000
  H   H2579     1.0  0.54671  0.85030  0.88174  1.0000
  C   C2156     1.0  0.53761  0.84009  0.88221  1.0000
  S   S576      1.0  0.50461  0.76624  0.83136  1.0000
  H   H2580     1.0  0.67975  0.73854  0.96068  1.0000
  C   C2157     1.0  0.69017  0.85096  0.67158  1.0000
  H   H2581     1.0  0.55031  0.82055  0.79217  1.0000
  C   C2158     1.0  0.66691  0.86353  0.65066  1.0000
  H   H2582     1.0  0.53914  0.80051  0.86475  1.0000
  N   N142      1.0  0.50209  0.79886  0.88380  1.0000
  H   H2583     1.0  0.53527  0.74457  0.94359  1.0000
  C   C2159     1.0  0.51965  0.74527  0.86240  1.0000
  H   H2584     1.0  0.51358  0.77919  0.90669  1.0000
  H   H2585     1.0  0.53915  0.97652  0.71489  1.0000
  H   H2586     1.0  0.80596  0.83626  0.66046  1.0000
  H   H2587     1.0  0.81831  0.88436  0.65249  1.0000
  H   H2588     1.0  0.49845  0.74432  0.92394  1.0000
  H   H2589     1.0  0.49239  0.81280  0.85768  1.0000
  H   H2590     1.0  0.68643  0.96636  0.64835  1.0000
  C   C2160     1.0  0.49980  0.79871  0.86426  1.0000
  N   N143      1.0  0.56564  0.73293  0.94066  1.0000
  H   H2591     1.0  0.83274  0.82501  0.64155  1.0000
  H   H2592     1.0  0.49144  0.97531  0.69572  1.0000
  N   N144      1.0  0.81114  0.86231  0.64123  1.0000
