data_image0
_chemical_formula_structural       CH4CH2C2HFeHCSH2SH3C2Fe2S2CSHS2CH2C3H2CH2CFeSCHSHCSHSHSHC6H4C4HFeH2C6SH4C7FeC2HCHCHC2HCH2C6H7FeC2HCSHNH2SH3CNC3H3C2HCH2SC2SFeC2HCFeCH2CHCS2FeH3C3HC2HSHNC2NC6H8CHC3FeCH2CHCHC3FeH3SCNH6SCH2C3HC2SH2CHC3FeH5SH2NHCHC2SH2CS2H4SH3CHCHCSHFeSCH3C3SH2CH2C4HCH2FeH4SH4CHSC3HCFeS2FeSCS2HSC2HSHSFeC2SFeS2H2NFeSCFeSHSC6H4SC9H2FeHC6H4C6H5CH3C6H4C2HCH3SCHFeNC9SCH4C2H6C2H3NH2FeCSCFeSH4CNSHC5H2CSH2C2HSH5FeNC9H17CHC3NSH2CHC2HCH2FeH2SC2HC3SH2NHS2FeHC2HCSHS2FeC2FeH6NCFeH5CH3C3HFeCHCHCHCH4C2H2CH2CH3CHCHCHC3HSC2H4CHCH4CH5CNSHCH2FeHSH4NH3C2H3SHFeS2HC2H2FeSHSHC2H2FeSHFeS2CHFeSCSFeS2FeS2FeSFeS3C6H4C6H3C6SH3C6H4CHSCHSHCNH5CH2C8H3CH2CH3NC8H8NC8H9C3H2NC9H17CH2CH2C2NCH2CH2CHCNCH2SCHCH2C2HCHSCHCFeHC2SFeC3HC2H2CHCH6SHC2SH2NHC2HCH5NHSH2CH3CH3CHSCHCH3CFeH2CHSCS2CSFeS2FeS2FeSFeS4FeS2HCFeSHSFeS2FeSHSHS2H2FeSFeHC6H4CHC2HCSC6H4C6H4C4HCH2C6H2FeHC6H4C6H2NCH2C3H2CH4CH2CHFeH2CH2CH3CHC2H4C3HNSNC8H11SH2CH5CHSCHSCHFeH5CHFeCHCHFeH2CNHC2H2CHCHCH4CHCHFeC3HC2H3CHCHNCH3NCH2C2H2C2H2CHCFeSHC2H2NCH3C2HSC2HSCH5CHC2HFeSH2CH2CHC3HCH3SCHSH2CHCHFeHCHCFeS2FeS2FeS2HCFeSHSHFeS2FeS2FeSFeS3FeS2FeSH2Fe2SFeSHS2HSFeSHFeS2C2HC3HCHC3HCH4CHC6H3C6H4C6H4C6H4C6H4C6H5CH4NCSC2HC2HCH15CH5CH2CH6C3HC2NC3H3CFeHCH8C2HFeHCH2CHCHCHNC2HCHC3SHC10H5SC3H2C2H6CSH4C2NHCSNH2NC9H14C3H2CHCNH6NHCNCH2C4H2C5SCH5FeHS2HSHS2FeS2FeS2FeSFeS6FeSH4CFeS2HFe2SCSH2SFeSFeHCH3CH2C3HC7H7C6H4C6H4C3H2C6H4C6H5C6H4CSHC2NC9H5CH8C4H3NC9H13CSH2NH2CHCHCHFeCHCH2CH2SNHNC3H2CH2CH7CH3CHCSHSC5HCHCNCH4CHC2H6CFeH3SHCHCH3C3H2FeC4H2SFeHC2H3CHSH5FeS2HCFeCHSFeS2HSCH2FeSFeSFeS2FeS2FeSFeS3FeS3HFeS2C6H8C6H5CHCHC2NC2H3C6H5CH2NC7H3C6H3C7HC2NC2HC6H3CHSH4SNCH3C6H7NC9H16CHC2HC2HCH2C2H2NC9H15CSCSH2CH3Fe2C2HNCH2CHSH3CHC2H2CHCH2CH5FeH2SC2H2SHCHCFeS2HCSHSH2FeS2FeSHSCHFeS2FeS2FeSFeCS2FeHSCS2CFeS2FeS2FeSFeS3NCH3C6H3SC6H4CH2CHC7H4C6H5C6H4C6H8C2HCFeCH5CH2CHC3HSHSCHSCH4CH2CNC6HC2H6CH2SHCH2CHSH3CH3NHNC9H14NC5SCHFeH3FeH2CFeNHC9FeH11FeC3HCHCHC3H3SC2HNHC3HC5HC2NHCFeHCHC2H2CHC2H2CH5SCH3CH5SH2NC2H2SCNH8CH4CHCH4S2HFeSC2FeS3H2CHSCHCHS2HS2FeSC2HFeS2FeSH2SHFeS2FeS2FeSFeS3CH2S2C6H4C6H4C6H4C6H4C6H4C6H3C6H5SHSH2CH2CH2CNH2CH3C3H5CNC9H15FeC2HSNC2SCHCHC2HCHCHFeCHC2HNC5FeH2CH5NH3NH4NHCH2CH2CFeCH3SFeCHNHC2HC2H4FeHC2H3CFeCH3CH6C3H2C2HC2HCH4C3FeHCHCSH3CH7NFeHC2FeS2HCH2S2CSHFeSC2SCHFeS2FeS2FeSFeS3H2CSHSCSH2C5HFeC6H4C6H4C2H2C4H3C8H4C6H3C6H6CSC2SHFeH2SNC9H16CH4C4H2C2NH3CH2NHC2SHCH3C4HC2HCH2C2HFeCNCH4C3H2CHC2H7CHC3NH2C2H3C3NCH2CHFeH7FeSH2CH2C2SH4CSH2CH3CH4SHC2HSH5FeH2CSCNFeNHFeS2FeSC2SHCSFeS2CFeSFeSHCFeS2CFeSFeCSCSH2SHFeSFeSHC2H2SHSH2SCSCH3C4H2C3HCH2C2NC3SCHC4HC3H2CH2CFeHCHC2H2CHCNCH3C6H4SCHCHC2H2C7H2CH2C6H4NH4C6H5CHCH4CH6CH2CH7SHC2HNC9H11C2H5CH3SH3CHSHCH2CHCHSNC9H2FeH8CH2CH2CSCHCFeC2SC2H3SC2HC2H2FeHC2NFe2S2FeHFeS5FeSHCFeS2C2FeSH2SCSCHC7H5S2HC7H4C6H4C2H2C6H4C6H7CS2H2FeCH4CNH3C3FeCSCHCHCH4CHCHCHSHCH2C3H2CHSNC2H3CH2NHNC9H11NHCNC8H10NSHCHCFeSHS2CHC4FeCHC2SCNC2HFeCHCHCNCH2C2H3CSHCHCHFeH3C2H2S2HSHCFeSH4CHCHC3FeC2H2CHSCHSFeH4CSHCHCH3CH3C2HCHCH4NH4CSFeHCHC2H2CH6CHC3H4SH3CHCHSFeHC4H2CH
_chemical_formula_sum              "C1440 H1728 Fe192 S384 N96"
_cell_length_a       63.6986
_cell_length_b       64.8295
_cell_length_c       63.8112
_cell_angle_alpha    80.681
_cell_angle_beta     80.6998
_cell_angle_gamma    80.4935

_space_group_name_H-M_alt    "P 1"
_space_group_IT_number       1

loop_
  _space_group_symop_operation_xyz
  'x, y, z'

loop_
  _atom_site_type_symbol
  _atom_site_label
  _atom_site_symmetry_multiplicity
  _atom_site_fract_x
  _atom_site_fract_y
  _atom_site_fract_z
  _atom_site_occupancy
  C   C1        1.0  0.08154  0.28329  0.58739  1.0000
  H   H1        1.0  0.36461  0.10877  0.71953  1.0000
  H   H2        1.0  0.39599  0.07618  0.70034  1.0000
  H   H3        1.0  0.43636  0.10491  0.64020  1.0000
  H   H4        1.0  0.27146  0.24672  0.67049  1.0000
  C   C2        1.0  0.28309  0.22110  0.71903  1.0000
  H   H5        1.0  0.22404  0.48158  0.69257  1.0000
  H   H6        1.0  0.03439  0.40456  0.69531  1.0000
  C   C3        1.0  0.10823  0.47117  0.58394  1.0000
  C   C4        1.0  0.13020  0.46197  0.58294  1.0000
  H   H7        1.0  0.34620  0.06922  0.62420  1.0000
  Fe  Fe1       1.0  0.13808  0.27902  0.72771  1.0000
  H   H8        1.0  0.11026  0.40630  0.72874  1.0000
  C   C5        1.0  0.21271  0.46959  0.66759  1.0000
  S   S1        1.0  0.27642  0.17281  0.69411  1.0000
  H   H9        1.0  0.20695  0.36248  0.68860  1.0000
  H   H10       1.0  0.07057  0.32872  0.55793  1.0000
  S   S2        1.0  0.33417  0.07743  0.72445  1.0000
  H   H11       1.0  0.29593  0.02030  0.72964  1.0000
  H   H12       1.0  0.41565  0.14025  0.64390  1.0000
  H   H13       1.0  0.03344  0.29253  0.54891  1.0000
  C   C6        1.0  0.01143  0.30080  0.69107  1.0000
  C   C7        1.0  0.00116  0.36670  0.70961  1.0000
  Fe  Fe2       1.0  0.35608  0.00434  0.64211  1.0000
  Fe  Fe3       1.0  0.02180  0.38693  0.62809  1.0000
  S   S3        1.0  0.32716  0.02932  0.64777  1.0000
  S   S4        1.0  0.03807  0.36543  0.60416  1.0000
  C   C8        1.0  0.21538  0.45324  0.65512  1.0000
  S   S5        1.0  0.37876  0.00510  0.61102  1.0000
  H   H14       1.0  0.05886  0.39430  0.65517  1.0000
  S   S6        1.0  0.46283  0.07939  0.67851  1.0000
  S   S7        1.0  0.47049  0.17871  0.64876  1.0000
  C   C9        1.0  0.48565  0.18479  0.68493  1.0000
  H   H15       1.0  0.41458  0.07652  0.73252  1.0000
  H   H16       1.0  0.43290  0.09182  0.71553  1.0000
  C   C10       1.0  0.39108  0.16445  0.70349  1.0000
  C   C11       1.0  0.08336  0.43647  0.65924  1.0000
  C   C12       1.0  0.04426  0.37214  0.70600  1.0000
  H   H17       1.0  0.20080  0.48328  0.66473  1.0000
  H   H18       1.0  0.25624  0.28177  0.70772  1.0000
  C   C13       1.0  0.23092  0.43557  0.65897  1.0000
  H   H19       1.0  0.31769  0.24089  0.69917  1.0000
  H   H20       1.0  0.24226  0.25536  0.69938  1.0000
  C   C14       1.0  0.38722  0.14371  0.71109  1.0000
  Fe  Fe4       1.0  0.03847  0.34006  0.63263  1.0000
  S   S8        1.0  0.06589  0.31351  0.63708  1.0000
  C   C15       1.0  0.14552  0.44089  0.72665  1.0000
  H   H21       1.0  0.21798  0.42719  0.72252  1.0000
  S   S9        1.0  0.17984  0.21619  0.69449  1.0000
  H   H22       1.0  0.38702  0.10092  0.68494  1.0000
  C   C16       1.0  0.09867  0.43553  0.59618  1.0000
  S   S10       1.0  0.11650  0.30878  0.71618  1.0000
  H   H23       1.0  0.45605  0.13872  0.72176  1.0000
  S   S11       1.0  0.19909  0.45475  0.63501  1.0000
  H   H24       1.0  0.25563  0.42057  0.67827  1.0000
  S   S12       1.0  0.17158  0.27261  0.71056  1.0000
  H   H25       1.0  0.47805  0.15327  0.72024  1.0000
  C   C17       1.0  0.08032  0.31248  0.65876  1.0000
  C   C18       1.0  0.09349  0.29375  0.66547  1.0000
  C   C19       1.0  0.10470  0.29235  0.68306  1.0000
  C   C20       1.0  0.10293  0.30977  0.69393  1.0000
  C   C21       1.0  0.09004  0.32859  0.68702  1.0000
  C   C22       1.0  0.07866  0.32993  0.66959  1.0000
  H   H26       1.0  0.09486  0.28019  0.65718  1.0000
  H   H27       1.0  0.11467  0.27779  0.68822  1.0000
  H   H28       1.0  0.08885  0.34218  0.69519  1.0000
  H   H29       1.0  0.06882  0.34452  0.66441  1.0000
  C   C23       1.0  0.46963  0.19105  0.67166  1.0000
  C   C24       1.0  0.45299  0.20732  0.67671  1.0000
  C   C25       1.0  0.45250  0.21732  0.69485  1.0000
  C   C26       1.0  0.46902  0.21149  0.70762  1.0000
  H   H30       1.0  0.05086  0.31169  0.53559  1.0000
  Fe  Fe5       1.0  0.49222  0.14745  0.65118  1.0000
  H   H31       1.0  0.44057  0.21231  0.66648  1.0000
  H   H32       1.0  0.43974  0.22998  0.69853  1.0000
  C   C27       1.0  0.44154  0.03513  0.63883  1.0000
  C   C28       1.0  0.45714  0.04816  0.62948  1.0000
  C   C29       1.0  0.46419  0.06144  0.64152  1.0000
  C   C30       1.0  0.45569  0.06183  0.66310  1.0000
  C   C31       1.0  0.44033  0.04857  0.67257  1.0000
  C   C32       1.0  0.43340  0.03517  0.66056  1.0000
  S   S13       1.0  0.38189  0.00138  0.66292  1.0000
  H   H33       1.0  0.36916  0.06554  0.66408  1.0000
  H   H34       1.0  0.43385  0.04855  0.68931  1.0000
  H   H35       1.0  0.02255  0.25381  0.73561  1.0000
  H   H36       1.0  0.23316  0.42299  0.64922  1.0000
  C   C33       1.0  0.05105  0.42578  0.63893  1.0000
  C   C34       1.0  0.24919  0.18366  0.69485  1.0000
  C   C35       1.0  0.23632  0.18723  0.71426  1.0000
  C   C36       1.0  0.21513  0.19764  0.71428  1.0000
  C   C37       1.0  0.20655  0.20387  0.69498  1.0000
  C   C38       1.0  0.21934  0.19992  0.67568  1.0000
  C   C39       1.0  0.24071  0.19023  0.67557  1.0000
  Fe  Fe6       1.0  0.16741  0.23852  0.71857  1.0000
  C   C40       1.0  0.15627  0.34055  0.72112  1.0000
  C   C41       1.0  0.20232  0.42196  0.72194  1.0000
  H   H37       1.0  0.25062  0.18762  0.66052  1.0000
  C   C42       1.0  0.06948  0.28761  0.56992  1.0000
  H   H38       1.0  0.47607  0.07150  0.63404  1.0000
  C   C43       1.0  0.40891  0.09129  0.63591  1.0000
  H   H39       1.0  0.46363  0.04818  0.61272  1.0000
  C   C44       1.0  0.07640  0.27511  0.55302  1.0000
  C   C45       1.0  0.07216  0.45184  0.64549  1.0000
  H   H40       1.0  0.15286  0.43368  0.58848  1.0000
  C   C46       1.0  0.36495  0.30992  0.73670  1.0000
  H   H41       1.0  0.05022  0.33878  0.71696  1.0000
  H   H42       1.0  0.04696  0.45862  0.62539  1.0000
  C   C47       1.0  0.33021  0.06401  0.70393  1.0000
  C   C48       1.0  0.31784  0.07373  0.68784  1.0000
  C   C49       1.0  0.31617  0.06272  0.67100  1.0000
  C   C50       1.0  0.32686  0.04205  0.67026  1.0000
  C   C51       1.0  0.33808  0.03207  0.68707  1.0000
  C   C52       1.0  0.34009  0.04310  0.70361  1.0000
  H   H43       1.0  0.31005  0.08986  0.68805  1.0000
  H   H44       1.0  0.30712  0.07044  0.65822  1.0000
  H   H45       1.0  0.34519  0.01579  0.68743  1.0000
  H   H46       1.0  0.34935  0.03536  0.71622  1.0000
  H   H47       1.0  0.36938  0.04629  0.64668  1.0000
  H   H48       1.0  0.34340  0.08828  0.64194  1.0000
  H   H49       1.0  0.01207  0.33395  0.72018  1.0000
  Fe  Fe7       1.0  0.12194  0.47022  0.66217  1.0000
  C   C53       1.0  0.12496  0.41196  0.73025  1.0000
  C   C54       1.0  0.99715  0.41562  0.67402  1.0000
  H   H50       1.0  0.01960  0.31116  0.58866  1.0000
  C   C55       1.0  0.12029  0.42710  0.59551  1.0000
  S   S14       1.0  0.10273  0.44275  0.67335  1.0000
  H   H51       1.0  0.10823  0.26459  0.60156  1.0000
  N   N1        1.0  0.39931  0.10391  0.71362  1.0000
  H   H52       1.0  0.31366  0.45981  0.73528  1.0000
  H   H53       1.0  0.08643  0.42526  0.60153  1.0000
  S   S15       1.0  0.15274  0.46575  0.67611  1.0000
  H   H54       1.0  0.41863  0.07619  0.63441  1.0000
  H   H55       1.0  0.41322  0.18433  0.68464  1.0000
  H   H56       1.0  0.20149  0.32819  0.68693  1.0000
  C   C56       1.0  0.27777  0.23343  0.68225  1.0000
  N   N2        1.0  0.37630  0.07668  0.63039  1.0000
  C   C57       1.0  0.41022  0.16827  0.69051  1.0000
  C   C58       1.0  0.07831  0.41576  0.66280  1.0000
  C   C59       1.0  0.06241  0.41035  0.65249  1.0000
  H   H57       1.0  0.02980  0.28353  0.58914  1.0000
  H   H58       1.0  0.38868  0.08047  0.59671  1.0000
  H   H59       1.0  0.08683  0.40380  0.67348  1.0000
  C   C60       1.0  0.24132  0.45090  0.68736  1.0000
  C   C61       1.0  0.24361  0.43420  0.67539  1.0000
  H   H60       1.0  0.37650  0.14648  0.64233  1.0000
  C   C62       1.0  0.16370  0.42692  0.73320  1.0000
  H   H61       1.0  0.35804  0.11853  0.63636  1.0000
  H   H62       1.0  0.39407  0.05295  0.65118  1.0000
  S   S16       1.0  0.49495  0.11924  0.63371  1.0000
  C   C63       1.0  0.41696  0.09306  0.72577  1.0000
  C   C64       1.0  0.25264  0.05883  0.73201  1.0000
  S   S17       1.0  0.46997  0.22448  0.72963  1.0000
  Fe  Fe8       1.0  0.00484  0.35854  0.60233  1.0000
  C   C65       1.0  0.09935  0.26751  0.58796  1.0000
  C   C66       1.0  0.09267  0.45720  0.59049  1.0000
  H   H63       1.0  0.04489  0.30346  0.68912  1.0000
  C   C67       1.0  0.41920  0.10767  0.63932  1.0000
  Fe  Fe9       1.0  0.40455  0.00043  0.63243  1.0000
  C   C68       1.0  0.37508  0.11470  0.63704  1.0000
  H   H64       1.0  0.06337  0.32514  0.58655  1.0000
  H   H65       1.0  0.45177  0.16708  0.71776  1.0000
  C   C69       1.0  0.38780  0.06794  0.61085  1.0000
  H   H66       1.0  0.24291  0.22894  0.71186  1.0000
  C   C70       1.0  0.03983  0.30711  0.55041  1.0000
  S   S18       1.0  0.13264  0.24500  0.73255  1.0000
  S   S19       1.0  0.27728  0.11416  0.72252  1.0000
  Fe  Fe10      1.0  0.28330  0.14744  0.72152  1.0000
  H   H67       1.0  0.11954  0.24331  0.57168  1.0000
  H   H68       1.0  0.42166  0.02498  0.66806  1.0000
  H   H69       1.0  0.20856  0.39897  0.67346  1.0000
  C   C71       1.0  0.38551  0.13099  0.64056  1.0000
  C   C72       1.0  0.15962  0.33306  0.68481  1.0000
  C   C73       1.0  0.35336  0.08285  0.62732  1.0000
  H   H70       1.0  0.25979  0.07193  0.72120  1.0000
  C   C74       1.0  0.38662  0.09433  0.63432  1.0000
  C   C75       1.0  0.28504  0.25795  0.70390  1.0000
  H   H71       1.0  0.35143  0.09545  0.61341  1.0000
  S   S20       1.0  0.43175  0.02029  0.62239  1.0000
  H   H72       1.0  0.14009  0.41134  0.67671  1.0000
  N   N3        1.0  0.16983  0.34212  0.69987  1.0000
  C   C76       1.0  0.01672  0.34952  0.71488  1.0000
  C   C77       1.0  0.19084  0.32882  0.70252  1.0000
  N   N4        1.0  0.18424  0.43422  0.73449  1.0000
  C   C78       1.0  0.17174  0.36455  0.69162  1.0000
  C   C79       1.0  0.15309  0.37929  0.68805  1.0000
  C   C80       1.0  0.19185  0.37235  0.68641  1.0000
  C   C81       1.0  0.15453  0.40037  0.67948  1.0000
  C   C82       1.0  0.19307  0.39343  0.67774  1.0000
  C   C83       1.0  0.17448  0.40737  0.67418  1.0000
  H   H73       1.0  0.37917  0.17768  0.70777  1.0000
  H   H74       1.0  0.07567  0.46296  0.59166  1.0000
  H   H75       1.0  0.16864  0.33491  0.66832  1.0000
  H   H76       1.0  0.37205  0.14197  0.72110  1.0000
  H   H77       1.0  0.01268  0.42190  0.67184  1.0000
  H   H78       1.0  0.20000  0.42391  0.70477  1.0000
  H   H79       1.0  0.02579  0.31993  0.55090  1.0000
  H   H80       1.0  0.42011  0.17794  0.73839  1.0000
  C   C84       1.0  0.39938  0.09270  0.69509  1.0000
  H   H81       1.0  0.13725  0.37458  0.69161  1.0000
  C   C85       1.0  0.33509  0.33715  0.72879  1.0000
  C   C86       1.0  0.13602  0.44027  0.58881  1.0000
  C   C87       1.0  0.02884  0.38945  0.70075  1.0000
  Fe  Fe11      1.0  0.26708  0.41831  0.72577  1.0000
  C   C88       1.0  0.27359  0.27861  0.70529  1.0000
  H   H82       1.0  0.17561  0.42359  0.66708  1.0000
  H   H83       1.0  0.04052  0.29950  0.60418  1.0000
  C   C89       1.0  0.30785  0.25596  0.70080  1.0000
  H   H84       1.0  0.15877  0.31593  0.68993  1.0000
  C   C90       1.0  0.14207  0.39801  0.73779  1.0000
  H   H85       1.0  0.16296  0.34788  0.73270  1.0000
  C   C91       1.0  0.28444  0.29608  0.70329  1.0000
  C   C92       1.0  0.30681  0.29354  0.70017  1.0000
  C   C93       1.0  0.37870  0.10189  0.72797  1.0000
  Fe  Fe12      1.0  0.29066  0.37381  0.73419  1.0000
  H   H86       1.0  0.04389  0.33815  0.56985  1.0000
  H   H87       1.0  0.09930  0.24997  0.54070  1.0000
  H   H88       1.0  0.20436  0.40481  0.72805  1.0000
  S   S21       1.0  0.30870  0.34389  0.72281  1.0000
  C   C94       1.0  0.03448  0.29939  0.58876  1.0000
  N   N5        1.0  0.05064  0.30440  0.56986  1.0000
  H   H89       1.0  0.28346  0.22570  0.73499  1.0000
  H   H90       1.0  0.33535  0.30399  0.72831  1.0000
  H   H91       1.0  0.13941  0.34816  0.72023  1.0000
  H   H92       1.0  0.12485  0.41035  0.60034  1.0000
  H   H93       1.0  0.14270  0.34051  0.68385  1.0000
  H   H94       1.0  0.31508  0.30721  0.69842  1.0000
  S   S22       1.0  0.25946  0.38684  0.72154  1.0000
  C   C95       1.0  0.09427  0.25934  0.55375  1.0000
  H   H95       1.0  0.29511  0.22886  0.67657  1.0000
  H   H96       1.0  0.27552  0.31179  0.70417  1.0000
  C   C96       1.0  0.40265  0.12610  0.70583  1.0000
  C   C97       1.0  0.34427  0.31589  0.73095  1.0000
  C   C98       1.0  0.42186  0.13062  0.69239  1.0000
  H   H97       1.0  0.27355  0.20775  0.72145  1.0000
  C   C99       1.0  0.42551  0.15139  0.68492  1.0000
  C   C100      1.0  0.00680  0.38725  0.70219  1.0000
  S   S23       1.0  0.03043  0.41999  0.62613  1.0000
  H   H98       1.0  0.06103  0.37419  0.70442  1.0000
  H   H99       1.0  0.21278  0.20463  0.66071  1.0000
  C   C101      1.0  0.40754  0.12752  0.64152  1.0000
  H   H100      1.0  0.15513  0.32378  0.72810  1.0000
  C   C102      1.0  0.03189  0.29490  0.69702  1.0000
  C   C103      1.0  0.01887  0.26683  0.72324  1.0000
  C   C104      1.0  0.05746  0.32493  0.57110  1.0000
  Fe  Fe13      1.0  0.48892  0.10053  0.66644  1.0000
  H   H101      1.0  0.18163  0.46048  0.70904  1.0000
  H   H102      1.0  0.43422  0.11809  0.68743  1.0000
  H   H103      1.0  0.24289  0.18259  0.72916  1.0000
  H   H104      1.0  0.44027  0.15442  0.67458  1.0000
  H   H105      1.0  0.00056  0.22996  0.73253  1.0000
  S   S24       1.0  0.48375  0.12909  0.68314  1.0000
  H   H106      1.0  0.07569  0.46788  0.64288  1.0000
  H   H107      1.0  0.33595  0.27157  0.69683  1.0000
  N   N6        1.0  0.27416  0.23936  0.70416  1.0000
  H   H108      1.0  0.37982  0.05528  0.60690  1.0000
  C   C105      1.0  0.05587  0.44655  0.63564  1.0000
  H   H109      1.0  0.24296  0.05223  0.72240  1.0000
  C   C106      1.0  0.22593  0.46862  0.68337  1.0000
  C   C107      1.0  0.37729  0.05970  0.64892  1.0000
  S   S25       1.0  0.31709  0.13791  0.72893  1.0000
  H   H110      1.0  0.06832  0.27717  0.53904  1.0000
  H   H111      1.0  0.40453  0.06041  0.61268  1.0000
  C   C108      1.0  0.31850  0.27349  0.69918  1.0000
  S   S26       1.0  0.13804  0.47801  0.62850  1.0000
  S   S27       1.0  0.02421  0.36184  0.65668  1.0000
  H   H112      1.0  0.29147  0.04446  0.71172  1.0000
  H   H113      1.0  0.18890  0.31220  0.70934  1.0000
  H   H114      1.0  0.07726  0.29210  0.60083  1.0000
  H   H115      1.0  0.29963  0.21419  0.71285  1.0000
  S   S28       1.0  0.25744  0.45021  0.70739  1.0000
  H   H116      1.0  0.19928  0.33466  0.71388  1.0000
  H   H117      1.0  0.26964  0.21967  0.68153  1.0000
  H   H118      1.0  0.00855  0.31404  0.67859  1.0000
  C   C109      1.0  0.28324  0.03268  0.72342  1.0000
  H   H119      1.0  0.34016  0.36906  0.72930  1.0000
  C   C110      1.0  0.36791  0.34662  0.73689  1.0000
  H   H120      1.0  0.20541  0.20064  0.72920  1.0000
  C   C111      1.0  0.46069  0.15294  0.72648  1.0000
  S   S29       1.0  0.30008  0.40582  0.73480  1.0000
  H   H121      1.0  0.27411  0.02522  0.71402  1.0000
  Fe  Fe14      1.0  0.30955  0.10481  0.73349  1.0000
  S   S30       1.0  0.41178  0.26031  0.72952  1.0000
  C   C112      1.0  0.34697  0.35256  0.73159  1.0000
  H   H122      1.0  0.33554  0.20975  0.72708  1.0000
  H   H123      1.0  0.11328  0.44420  0.71893  1.0000
  H   H124      1.0  0.41522  0.09149  0.68470  1.0000
  C   C113      1.0  0.03562  0.27798  0.71308  1.0000
  C   C114      1.0  0.10571  0.25555  0.57117  1.0000
  C   C115      1.0  0.48554  0.19517  0.70261  1.0000
  S   S31       1.0  0.00692  0.33117  0.62879  1.0000
  H   H125      1.0  0.24262  0.01664  0.73282  1.0000
  H   H126      1.0  0.00560  0.42771  0.70948  1.0000
  C   C116      1.0  0.12666  0.43335  0.72479  1.0000
  H   H127      1.0  0.05163  0.27346  0.71762  1.0000
  H   H128      1.0  0.99884  0.40400  0.66258  1.0000
  C   C117      1.0  0.25057  0.24333  0.71096  1.0000
  C   C118      1.0  0.03821  0.35221  0.71304  1.0000
  C   C119      1.0  0.99779  0.27235  0.71752  1.0000
  C   C120      1.0  0.30954  0.47680  0.73467  1.0000
  H   H129      1.0  0.14545  0.45775  0.72268  1.0000
  C   C121      1.0  0.18475  0.45691  0.72601  1.0000
  H   H130      1.0  0.17278  0.46744  0.73567  1.0000
  H   H131      1.0  0.20073  0.46162  0.72604  1.0000
  Fe  Fe15      1.0  0.16824  0.47588  0.64313  1.0000
  H   H132      1.0  0.37668  0.08504  0.73365  1.0000
  H   H133      1.0  0.49293  0.23787  0.65357  1.0000
  H   H134      1.0  0.24678  0.24854  0.72709  1.0000
  H   H135      1.0  0.14325  0.47122  0.57820  1.0000
  S   S32       1.0  0.99642  0.35237  0.57067  1.0000
  H   H136      1.0  0.28271  0.47772  0.71875  1.0000
  H   H137      1.0  0.31058  0.99234  0.67858  1.0000
  H   H138      1.0  0.37184  0.29345  0.73849  1.0000
  H   H139      1.0  0.37732  0.35853  0.73863  1.0000
  C   C122      1.0  0.35391  0.20064  0.77533  1.0000
  H   H140      1.0  0.40804  0.30254  0.79270  1.0000
  S   S33       1.0  0.38902  0.42923  0.89804  1.0000
  C   C123      1.0  0.31168  0.44007  0.81464  1.0000
  C   C124      1.0  0.32699  0.45293  0.81574  1.0000
  C   C125      1.0  0.08552  0.99646  0.91486  1.0000
  H   H141      1.0  0.42064  0.23689  0.86976  1.0000
  C   C126      1.0  0.21350  0.34692  0.75952  1.0000
  Fe  Fe16      1.0  0.19362  0.00733  0.84405  1.0000
  S   S34       1.0  0.18005  0.00245  0.81513  1.0000
  S   S35       1.0  0.22146  0.02571  0.84146  1.0000
  Fe  Fe17      1.0  0.14808  0.00807  0.83619  1.0000
  S   S36       1.0  0.11829  0.02734  0.82339  1.0000
  C   C127      1.0  0.14722  0.11534  0.77046  1.0000
  S   S37       1.0  0.26834  0.15022  0.75536  1.0000
  S   S38       1.0  0.16167  0.01470  0.86437  1.0000
  H   H142      1.0  0.17581  0.18549  0.74958  1.0000
  S   S39       1.0  0.23313  0.10339  0.76797  1.0000
  C   C128      1.0  0.26217  0.22051  0.77860  1.0000
  C   C129      1.0  0.14786  0.09495  0.78159  1.0000
  H   H143      1.0  0.07509  0.05623  0.90139  1.0000
  S   S40       1.0  0.27629  0.36953  0.76882  1.0000
  H   H144      1.0  0.45374  0.43590  0.89455  1.0000
  S   S41       1.0  0.46505  0.28586  0.88344  1.0000
  Fe  Fe18      1.0  0.30182  0.13840  0.76302  1.0000
  C   C130      1.0  0.33047  0.17506  0.77312  1.0000
  C   C131      1.0  0.34350  0.18316  0.78465  1.0000
  S   S42       1.0  0.41955  0.24066  0.82544  1.0000
  Fe  Fe19      1.0  0.03269  0.12733  0.85752  1.0000
  S   S43       1.0  0.03259  0.15868  0.86871  1.0000
  S   S44       1.0  0.06168  0.10379  0.86680  1.0000
  H   H145      1.0  0.07629  0.17223  0.78195  1.0000
  H   H146      1.0  0.24724  0.34211  0.74729  1.0000
  N   N7        1.0  0.09041  0.14008  0.79147  1.0000
  Fe  Fe20      1.0  0.02619  0.17275  0.83544  1.0000
  S   S45       1.0  0.03988  0.19833  0.81087  1.0000
  C   C132      1.0  0.35292  0.39294  0.82273  1.0000
  Fe  Fe21      1.0  0.99672  0.15883  0.87766  1.0000
  S   S46       1.0  0.02785  0.14158  0.82384  1.0000
  H   H147      1.0  0.23793  0.46017  0.82284  1.0000
  S   S47       1.0  0.13514  0.22100  0.79377  1.0000
  C   C133      1.0  0.06632  0.20463  0.80701  1.0000
  C   C134      1.0  0.08101  0.19602  0.82131  1.0000
  C   C135      1.0  0.10206  0.20120  0.81715  1.0000
  C   C136      1.0  0.10855  0.21496  0.79869  1.0000
  C   C137      1.0  0.09389  0.22342  0.78439  1.0000
  C   C138      1.0  0.07287  0.21832  0.78857  1.0000
  H   H148      1.0  0.07602  0.18570  0.83572  1.0000
  H   H149      1.0  0.11322  0.19484  0.82847  1.0000
  H   H150      1.0  0.09862  0.23413  0.77021  1.0000
  H   H151      1.0  0.06159  0.22507  0.77746  1.0000
  S   S48       1.0  0.41834  0.22176  0.76968  1.0000
  C   C139      1.0  0.32896  0.43336  0.77940  1.0000
  C   C140      1.0  0.32752  0.18480  0.75239  1.0000
  C   C141      1.0  0.42794  0.13196  0.77283  1.0000
  C   C142      1.0  0.45313  0.27451  0.86572  1.0000
  C   C143      1.0  0.45595  0.28006  0.84331  1.0000
  C   C144      1.0  0.44609  0.26970  0.83036  1.0000
  C   C145      1.0  0.43317  0.25412  0.83992  1.0000
  C   C146      1.0  0.43050  0.24887  0.86221  1.0000
  C   C147      1.0  0.44032  0.25897  0.87495  1.0000
  H   H152      1.0  0.46557  0.29228  0.83600  1.0000
  H   H153      1.0  0.44818  0.27396  0.81313  1.0000
  Fe  Fe22      1.0  0.26486  0.11590  0.75728  1.0000
  H   H154      1.0  0.31774  0.37547  0.81551  1.0000
  C   C148      1.0  0.10307  0.04935  0.83467  1.0000
  C   C149      1.0  0.11085  0.05881  0.84948  1.0000
  C   C150      1.0  0.09816  0.07591  0.85856  1.0000
  C   C151      1.0  0.07752  0.08365  0.85314  1.0000
  C   C152      1.0  0.06989  0.07457  0.83793  1.0000
  C   C153      1.0  0.08269  0.05753  0.82868  1.0000
  H   H155      1.0  0.12661  0.05293  0.85402  1.0000
  H   H156      1.0  0.10431  0.08304  0.87006  1.0000
  H   H157      1.0  0.05400  0.08037  0.83363  1.0000
  H   H158      1.0  0.07661  0.05039  0.81711  1.0000
  C   C154      1.0  0.22456  0.04718  0.82086  1.0000
  C   C155      1.0  0.24290  0.05726  0.81832  1.0000
  C   C156      1.0  0.24590  0.07437  0.80202  1.0000
  C   C157      1.0  0.23045  0.08160  0.78826  1.0000
  C   C158      1.0  0.21215  0.07152  0.79074  1.0000
  C   C159      1.0  0.20922  0.05431  0.80693  1.0000
  H   H159      1.0  0.25478  0.05185  0.82910  1.0000
  H   H160      1.0  0.25996  0.08215  0.80039  1.0000
  H   H161      1.0  0.20025  0.07697  0.78005  1.0000
  H   H162      1.0  0.19507  0.04665  0.80872  1.0000
  H   H163      1.0  0.35850  0.44675  0.76840  1.0000
  C   C160      1.0  0.35111  0.21018  0.75450  1.0000
  H   H164      1.0  0.35747  0.41652  0.84129  1.0000
  H   H165      1.0  0.34572  0.17575  0.80076  1.0000
  H   H166      1.0  0.45035  0.18664  0.74736  1.0000
  C   C161      1.0  0.41283  0.41601  0.88475  1.0000
  C   C162      1.0  0.42587  0.40017  0.89649  1.0000
  C   C163      1.0  0.44532  0.39005  0.88643  1.0000
  C   C164      1.0  0.45186  0.39566  0.86450  1.0000
  C   C165      1.0  0.43853  0.41107  0.85269  1.0000
  C   C166      1.0  0.41911  0.42114  0.86272  1.0000
  H   H167      1.0  0.42108  0.39595  0.91350  1.0000
  H   H168      1.0  0.45547  0.37828  0.89576  1.0000
  H   H169      1.0  0.44339  0.41550  0.83572  1.0000
  H   H170      1.0  0.40905  0.43292  0.85336  1.0000
  C   C167      1.0  0.31242  0.43029  0.79651  1.0000
  C   C168      1.0  0.34441  0.45499  0.79953  1.0000
  H   H171      1.0  0.32505  0.46130  0.82921  1.0000
  C   C169      1.0  0.22792  0.47575  0.75539  1.0000
  H   H172      1.0  0.36414  0.20665  0.78420  1.0000
  H   H173      1.0  0.17973  0.34684  0.77072  1.0000
  H   H174      1.0  0.20305  0.43672  0.75898  1.0000
  S   S49       1.0  0.38680  0.26573  0.77827  1.0000
  C   C170      1.0  0.11056  0.12513  0.78840  1.0000
  H   H175      1.0  0.29910  0.43780  0.82801  1.0000
  Fe  Fe23      1.0  0.41683  0.24749  0.79008  1.0000
  N   N8        1.0  0.18324  0.16521  0.77865  1.0000
  C   C171      1.0  0.16814  0.17492  0.76315  1.0000
  C   C172      1.0  0.19007  0.18225  0.78781  1.0000
  C   C173      1.0  0.20265  0.15433  0.76646  1.0000
  C   C174      1.0  0.17240  0.15099  0.79612  1.0000
  C   C175      1.0  0.15359  0.15903  0.80920  1.0000
  C   C176      1.0  0.18019  0.12912  0.80096  1.0000
  C   C177      1.0  0.14320  0.14604  0.82597  1.0000
  C   C178      1.0  0.16956  0.11622  0.81766  1.0000
  C   C179      1.0  0.15105  0.12463  0.83007  1.0000
  S   S50       1.0  0.99713  0.12668  0.86867  1.0000
  C   C180      1.0  0.38331  0.41233  0.81561  1.0000
  H   H176      1.0  0.16238  0.16265  0.75613  1.0000
  H   H177      1.0  0.17618  0.19278  0.79517  1.0000
  H   H178      1.0  0.11324  0.01616  0.86819  1.0000
  H   H179      1.0  0.20043  0.17557  0.80047  1.0000
  C   C181      1.0  0.47248  0.13562  0.75944  1.0000
  C   C182      1.0  0.43143  0.45122  0.92667  1.0000
  H   H180      1.0  0.21518  0.14743  0.77693  1.0000
  H   H181      1.0  0.14695  0.17557  0.80675  1.0000
  H   H182      1.0  0.19450  0.12151  0.79219  1.0000
  H   H183      1.0  0.12914  0.15271  0.83603  1.0000
  H   H184      1.0  0.17584  0.09958  0.82105  1.0000
  H   H185      1.0  0.14293  0.11456  0.84304  1.0000
  C   C183      1.0  0.23241  0.33535  0.75058  1.0000
  C   C184      1.0  0.28298  0.05387  0.75097  1.0000
  H   H186      1.0  0.09202  0.08068  0.91540  1.0000
  H   H187      1.0  0.22882  0.98448  0.79625  1.0000
  H   H188      1.0  0.47206  0.43479  0.85842  1.0000
  N   N9        1.0  0.42961  0.47151  0.91196  1.0000
  H   H189      1.0  0.10422  0.16914  0.78418  1.0000
  H   H190      1.0  0.05779  0.14308  0.78473  1.0000
  Fe  Fe24      1.0  0.36626  0.47895  0.83485  1.0000
  C   C185      1.0  0.10662  0.00380  0.88036  1.0000
  S   S51       1.0  0.36540  0.46914  0.80212  1.0000
  C   C186      1.0  0.46041  0.17288  0.75534  1.0000
  Fe  Fe25      1.0  0.28297  0.40266  0.76846  1.0000
  S   S52       1.0  0.29265  0.41387  0.79688  1.0000
  H   H191      1.0  0.29627  0.04282  0.75782  1.0000
  H   H192      1.0  0.35524  0.33405  0.79201  1.0000
  H   H193      1.0  0.15386  0.18492  0.77058  1.0000
  H   H194      1.0  0.06478  0.01069  0.88053  1.0000
  C   C187      1.0  0.25887  0.02643  0.75644  1.0000
  N   N10       1.0  0.29967  0.27134  0.77398  1.0000
  S   S53       1.0  0.34651  0.46047  0.86103  1.0000
  H   H195      1.0  0.33487  0.35505  0.83030  1.0000
  C   C188      1.0  0.29008  0.29199  0.76308  1.0000
  C   C189      1.0  0.28688  0.25404  0.77461  1.0000
  C   C190      1.0  0.29550  0.23269  0.78105  1.0000
  C   C191      1.0  0.26517  0.25784  0.77050  1.0000
  C   C192      1.0  0.28334  0.21624  0.78282  1.0000
  H   H196      1.0  0.12939  0.00748  0.91340  1.0000
  H   H197      1.0  0.37717  0.34805  0.78250  1.0000
  C   C193      1.0  0.45279  0.45060  0.88378  1.0000
  S   S54       1.0  0.31787  0.15294  0.78496  1.0000
  H   H198      1.0  0.40618  0.40597  0.78803  1.0000
  H   H199      1.0  0.07440  0.03561  0.87428  1.0000
  C   C194      1.0  0.36378  0.34632  0.79592  1.0000
  C   C195      1.0  0.23219  0.31494  0.74596  1.0000
  H   H200      1.0  0.39697  0.47940  0.92714  1.0000
  S   S55       1.0  0.21349  0.28051  0.74369  1.0000
  H   H201      1.0  0.07792  0.98447  0.90922  1.0000
  H   H202      1.0  0.31160  0.22846  0.78518  1.0000
  H   H203      1.0  0.38273  0.17324  0.75052  1.0000
  H   H204      1.0  0.29031  0.20006  0.78781  1.0000
  H   H205      1.0  0.26519  0.45907  0.82751  1.0000
  Fe  Fe26      1.0  0.37309  0.45958  0.88022  1.0000
  N   N11       1.0  0.42108  0.34295  0.85621  1.0000
  C   C196      1.0  0.41029  0.36516  0.85390  1.0000
  C   C197      1.0  0.41385  0.33281  0.87823  1.0000
  C   C198      1.0  0.44458  0.34289  0.85442  1.0000
  C   C199      1.0  0.41653  0.33209  0.83906  1.0000
  C   C200      1.0  0.42245  0.33996  0.81715  1.0000
  C   C201      1.0  0.40680  0.31331  0.84338  1.0000
  C   C202      1.0  0.41932  0.32942  0.80066  1.0000
  C   C203      1.0  0.40348  0.30309  0.82675  1.0000
  C   C204      1.0  0.40999  0.31095  0.80548  1.0000
  H   H206      1.0  0.39274  0.36599  0.85367  1.0000
  H   H207      1.0  0.41231  0.37340  0.86733  1.0000
  H   H208      1.0  0.41699  0.37476  0.83902  1.0000
  H   H209      1.0  0.42234  0.31636  0.88146  1.0000
  H   H210      1.0  0.39620  0.33256  0.88100  1.0000
  H   H211      1.0  0.41751  0.34141  0.89070  1.0000
  H   H212      1.0  0.45326  0.32647  0.85525  1.0000
  H   H213      1.0  0.45127  0.35207  0.83925  1.0000
  H   H214      1.0  0.44882  0.35008  0.86760  1.0000
  H   H215      1.0  0.43007  0.35406  0.81264  1.0000
  H   H216      1.0  0.40228  0.30574  0.85947  1.0000
  H   H217      1.0  0.42443  0.33534  0.78400  1.0000
  H   H218      1.0  0.39673  0.28837  0.83039  1.0000
  H   H219      1.0  0.07014  0.15474  0.81715  1.0000
  H   H220      1.0  0.32967  0.42618  0.76511  1.0000
  H   H221      1.0  0.45683  0.17352  0.77290  1.0000
  H   H222      1.0  0.12743  0.06971  0.92819  1.0000
  C   C205      1.0  0.24541  0.01432  0.74935  1.0000
  H   H223      1.0  0.28513  0.27772  0.80552  1.0000
  C   C206      1.0  0.26122  0.02240  0.77858  1.0000
  C   C207      1.0  0.38054  0.38696  0.79257  1.0000
  C   C208      1.0  0.46337  0.44967  0.86289  1.0000
  N   N12       1.0  0.34926  0.36645  0.79844  1.0000
  S   S56       1.0  0.14872  0.27740  0.76010  1.0000
  H   H224      1.0  0.47738  0.17564  0.74993  1.0000
  H   H225      1.0  0.33287  0.36388  0.77212  1.0000
  C   C209      1.0  0.43386  0.14946  0.75775  1.0000
  H   H226      1.0  0.28321  0.47078  0.78042  1.0000
  C   C210      1.0  0.36412  0.40779  0.82800  1.0000
  C   C211      1.0  0.36091  0.38191  0.80485  1.0000
  H   H227      1.0  0.27068  0.03107  0.78567  1.0000
  C   C212      1.0  0.32170  0.26623  0.76253  1.0000
  H   H228      1.0  0.19926  0.19267  0.77533  1.0000
  H   H229      1.0  0.16195  0.08330  0.77890  1.0000
  Fe  Fe27      1.0  0.18198  0.26891  0.74299  1.0000
  H   H230      1.0  0.07739  0.12782  0.76770  1.0000
  H   H231      1.0  0.09931  0.99377  0.87175  1.0000
  S   S57       1.0  0.18026  0.23416  0.74970  1.0000
  C   C213      1.0  0.12890  0.13032  0.77377  1.0000
  C   C214      1.0  0.33027  0.36136  0.81414  1.0000
  H   H232      1.0  0.39142  0.42450  0.81931  1.0000
  C   C215      1.0  0.13027  0.08945  0.79616  1.0000
  C   C216      1.0  0.23481  0.99934  0.76355  1.0000
  C   C217      1.0  0.18797  0.43103  0.75720  1.0000
  S   S58       1.0  0.39395  0.47677  0.85376  1.0000
  H   H233      1.0  0.33774  0.39093  0.83255  1.0000
  H   H234      1.0  0.23645  0.24463  0.76962  1.0000
  N   N13       1.0  0.26934  0.04267  0.74113  1.0000
  H   H235      1.0  0.32131  0.26211  0.74633  1.0000
  S   S59       1.0  0.29688  0.10419  0.76849  1.0000
  S   S60       1.0  0.36361  0.23210  0.74207  1.0000
  Fe  Fe28      1.0  0.14577  0.24272  0.76362  1.0000
  H   H236      1.0  0.35487  0.37892  0.76480  1.0000
  C   C218      1.0  0.41687  0.16421  0.74987  1.0000
  C   C219      1.0  0.23740  0.99581  0.78515  1.0000
  H   H237      1.0  0.27334  0.06272  0.76371  1.0000
  C   C220      1.0  0.25067  0.00722  0.79260  1.0000
  S   S61       1.0  0.25052  0.41678  0.75955  1.0000
  H   H238      1.0  0.33149  0.25288  0.77135  1.0000
  S   S62       1.0  0.43960  0.26563  0.76697  1.0000
  S   S63       1.0  0.21350  0.37253  0.76548  1.0000
  Fe  Fe29      1.0  0.39077  0.24213  0.75522  1.0000
  C   C221      1.0  0.19436  0.33801  0.76365  1.0000
  C   C222      1.0  0.34521  0.44522  0.78119  1.0000
  Fe  Fe30      1.0  0.48972  0.30826  0.87797  1.0000
  H   H239      1.0  0.40208  0.11636  0.79135  1.0000
  H   H240      1.0  0.09502  0.16104  0.76161  1.0000
  H   H241      1.0  0.39966  0.46780  0.90296  1.0000
  H   H242      1.0  0.32220  0.34931  0.80915  1.0000
  H   H243      1.0  0.25555  0.46011  0.76921  1.0000
  H   H244      1.0  0.48518  0.24142  0.85048  1.0000
  N   N14       1.0  0.09100  0.01342  0.89722  1.0000
  C   C223      1.0  0.12076  0.02331  0.91349  1.0000
  Fe  Fe31      1.0  0.40981  0.28240  0.75368  1.0000
  H   H245      1.0  0.17444  0.43958  0.76724  1.0000
  H   H246      1.0  0.30951  0.25933  0.80498  1.0000
  H   H247      1.0  0.19873  0.14146  0.75877  1.0000
  H   H248      1.0  0.06875  0.11689  0.79484  1.0000
  H   H249      1.0  0.07424  0.00306  0.92817  1.0000
  C   C224      1.0  0.10063  0.02910  0.90571  1.0000
  H   H250      1.0  0.12937  0.14574  0.76453  1.0000
  H   H251      1.0  0.25693  0.27351  0.76604  1.0000
  H   H252      1.0  0.28730  0.29063  0.74666  1.0000
  C   C225      1.0  0.13028  0.03783  0.92144  1.0000
  C   C226      1.0  0.07119  0.02259  0.88757  1.0000
  C   C227      1.0  0.39006  0.14445  0.77156  1.0000
  H   H253      1.0  0.16100  0.11947  0.75912  1.0000
  Fe  Fe32      1.0  0.24564  0.38415  0.75614  1.0000
  C   C228      1.0  0.46240  0.46761  0.84759  1.0000
  H   H254      1.0  0.37329  0.14275  0.77702  1.0000
  C   C229      1.0  0.24237  0.47294  0.77026  1.0000
  H   H255      1.0  0.25987  0.44878  0.80495  1.0000
  C   C230      1.0  0.07287  0.13157  0.78440  1.0000
  H   H256      1.0  0.09854  0.09911  0.81073  1.0000
  C   C231      1.0  0.34155  0.37511  0.77767  1.0000
  H   H257      1.0  0.25274  0.20772  0.78025  1.0000
  H   H258      1.0  0.43802  0.25457  0.89219  1.0000
  H   H259      1.0  0.14584  0.03305  0.92694  1.0000
  H   H260      1.0  0.22418  0.99072  0.75785  1.0000
  C   C232      1.0  0.09036  0.05018  0.90698  1.0000
  C   C233      1.0  0.11995  0.05844  0.92216  1.0000
  H   H261      1.0  0.24129  0.06600  0.74498  1.0000
  H   H262      1.0  0.08051  0.12786  0.82479  1.0000
  C   C234      1.0  0.11189  0.10426  0.79955  1.0000
  H   H263      1.0  0.43970  0.11997  0.77979  1.0000
  H   H264      1.0  0.18952  0.41408  0.76421  1.0000
  C   C235      1.0  0.39153  0.40192  0.79795  1.0000
  H   H265      1.0  0.42431  0.43903  0.92071  1.0000
  H   H266      1.0  0.31073  0.28692  0.79664  1.0000
  H   H267      1.0  0.13078  0.07348  0.80465  1.0000
  C   C236      1.0  0.30134  0.27396  0.79625  1.0000
  H   H268      1.0  0.37091  0.33990  0.81086  1.0000
  C   C237      1.0  0.25454  0.46184  0.81481  1.0000
  H   H269      1.0  0.05805  0.02880  0.89966  1.0000
  C   C238      1.0  0.10000  0.06456  0.91504  1.0000
  H   H270      1.0  0.33020  0.38990  0.77898  1.0000
  C   C239      1.0  0.40631  0.12962  0.77959  1.0000
  C   C240      1.0  0.25309  0.24126  0.77252  1.0000
  C   C241      1.0  0.19411  0.31760  0.75890  1.0000
  H   H271      1.0  0.44845  0.44506  0.92870  1.0000
  S   S64       1.0  0.47671  0.38435  0.85128  1.0000
  C   C242      1.0  0.08454  0.14263  0.81449  1.0000
  C   C243      1.0  0.39537  0.16167  0.75671  1.0000
  H   H272      1.0  0.38726  0.37980  0.77833  1.0000
  H   H273      1.0  0.25223  0.00479  0.80956  1.0000
  H   H274      1.0  0.30075  0.30438  0.76128  1.0000
  H   H275      1.0  0.12044  0.99345  0.88688  1.0000
  C   C244      1.0  0.44110  0.46983  0.89003  1.0000
  H   H276      1.0  0.42253  0.45298  0.94295  1.0000
  C   C245      1.0  0.09175  0.16147  0.77920  1.0000
  H   H277      1.0  0.33116  0.27956  0.76045  1.0000
  H   H278      1.0  0.27462  0.29842  0.77219  1.0000
  H   H279      1.0  0.17934  0.31076  0.76230  1.0000
  H   H280      1.0  0.47084  0.13480  0.77717  1.0000
  C   C246      1.0  0.21308  0.30600  0.75010  1.0000
  H   H281      1.0  0.09780  0.14780  0.82075  1.0000
  H   H282      1.0  0.28950  0.48212  0.80166  1.0000
  H   H283      1.0  0.47027  0.46667  0.83132  1.0000
  H   H284      1.0  0.21031  0.16528  0.75328  1.0000
  H   H285      1.0  0.10005  0.98781  0.92172  1.0000
  C   C247      1.0  0.40645  0.47868  0.91094  1.0000
  N   N15       1.0  0.25543  0.48291  0.80184  1.0000
  S   S65       1.0  0.48357  0.33577  0.89657  1.0000
  H   H286      1.0  0.31722  0.17893  0.74353  1.0000
  C   C248      1.0  0.33775  0.20235  0.74316  1.0000
  H   H287      1.0  0.14047  0.38148  0.74260  1.0000
  H   H288      1.0  0.17402  0.39385  0.74520  1.0000
  Fe  Fe33      1.0  0.43910  0.24146  0.74542  1.0000
  H   H289      1.0  0.33586  0.47987  0.75084  1.0000
  S   S66       1.0  0.40225  0.31782  0.74800  1.0000
  H   H290      1.0  0.23036  0.46531  0.74330  1.0000
  H   H291      1.0  0.48932  0.13847  0.75310  1.0000
  H   H292      1.0  0.45586  0.48301  0.92162  1.0000
  H   H293      1.0  0.47115  0.11991  0.75525  1.0000
  N   N16       1.0  0.45650  0.15251  0.75005  1.0000
  H   H294      1.0  0.49486  0.26766  0.81695  1.0000
  H   H295      1.0  0.37766  0.10957  0.74256  1.0000
  H   H296      1.0  0.41815  0.10157  0.73925  1.0000
  C   C249      1.0  0.37676  0.32527  0.73980  1.0000
  C   C250      1.0  0.16122  0.40528  0.73918  1.0000
  H   H297      1.0  0.24686  0.30614  0.73903  1.0000
  H   H298      1.0  0.29077  0.06578  0.73898  1.0000
  H   H299      1.0  0.23692  0.86838  0.08118  1.0000
  S   S67       1.0  0.47319  0.65334  0.17256  1.0000
  H   H300      1.0  0.43496  0.73557  0.10551  1.0000
  Fe  Fe34      1.0  0.03342  0.84035  0.18420  1.0000
  S   S68       1.0  0.03121  0.80883  0.17506  1.0000
  S   S69       1.0  0.05423  0.84551  0.20763  1.0000
  H   H301      1.0  0.00088  0.89483  0.23797  1.0000
  C   C251      1.0  0.08743  0.90114  0.07235  1.0000
  C   C252      1.0  0.24187  0.86439  0.06508  1.0000
  H   H302      1.0  0.00497  0.89594  0.17804  1.0000
  H   H303      1.0  0.40778  0.64262  0.05425  1.0000
  Fe  Fe35      1.0  0.03631  0.82568  0.14124  1.0000
  S   S70       1.0  0.05868  0.80980  0.11508  1.0000
  H   H304      1.0  0.30175  0.69646  0.02630  1.0000
  S   S71       1.0  0.04056  0.85642  0.15052  1.0000
  H   H305      1.0  0.23148  0.88129  0.01435  1.0000
  C   C253      1.0  0.44215  0.72076  0.11479  1.0000
  C   C254      1.0  0.23891  0.87121  0.02717  1.0000
  H   H306      1.0  0.04280  0.90341  0.21443  1.0000
  H   H307      1.0  0.07933  0.79111  0.15614  1.0000
  Fe  Fe36      1.0  0.00472  0.86494  0.15209  1.0000
  S   S72       1.0  0.39006  0.64636  0.00040  1.0000
  H   H308      1.0  0.10730  0.80277  0.18365  1.0000
  Fe  Fe37      1.0  0.15475  0.84281  0.02656  1.0000
  S   S73       1.0  0.18871  0.85069  0.01995  1.0000
  S   S74       1.0  0.13323  0.85473  0.05558  1.0000
  C   C255      1.0  0.00514  0.89028  0.22157  1.0000
  H   H309      1.0  0.38183  0.65236  0.06761  1.0000
  Fe  Fe38      1.0  0.19794  0.81700  0.01390  1.0000
  S   S75       1.0  0.22775  0.79506  0.02267  1.0000
  C   C256      1.0  0.31427  0.71827  0.21565  1.0000
  S   S76       1.0  0.16449  0.80855  0.02267  1.0000
  Fe  Fe39      1.0  0.28015  0.76574  0.12306  1.0000
  S   S77       1.0  0.27156  0.73498  0.11789  1.0000
  S   S78       1.0  0.25745  0.79499  0.11281  1.0000
  Fe  Fe40      1.0  0.32050  0.74452  0.14298  1.0000
  S   S79       1.0  0.31469  0.71220  0.13910  1.0000
  S   S80       1.0  0.35233  0.74447  0.15450  1.0000
  Fe  Fe41      1.0  0.30680  0.72678  0.10644  1.0000
  S   S81       1.0  0.32163  0.71802  0.07378  1.0000
  Fe  Fe42      1.0  0.28017  0.72372  0.15107  1.0000
  S   S82       1.0  0.26023  0.70425  0.17694  1.0000
  S   S83       1.0  0.31479  0.75852  0.10947  1.0000
  S   S84       1.0  0.28650  0.75505  0.15720  1.0000
  C   C257      1.0  0.23570  0.79538  0.04778  1.0000
  C   C258      1.0  0.25428  0.78212  0.05336  1.0000
  C   C259      1.0  0.26111  0.78200  0.07324  1.0000
  C   C260      1.0  0.24945  0.79527  0.08761  1.0000
  C   C261      1.0  0.23099  0.80868  0.08193  1.0000
  C   C262      1.0  0.22403  0.80867  0.06211  1.0000
  H   H310      1.0  0.26343  0.77186  0.04234  1.0000
  H   H311      1.0  0.27545  0.77168  0.07744  1.0000
  H   H312      1.0  0.22211  0.81919  0.09285  1.0000
  H   H313      1.0  0.20973  0.81902  0.05791  1.0000
  C   C263      1.0  0.33680  0.65277  0.05195  1.0000
  C   C264      1.0  0.32388  0.65527  0.07167  1.0000
  C   C265      1.0  0.31959  0.67505  0.07915  1.0000
  C   C266      1.0  0.32821  0.69234  0.06683  1.0000
  C   C267      1.0  0.34153  0.68966  0.04745  1.0000
  C   C268      1.0  0.34570  0.67002  0.03996  1.0000
  H   H314      1.0  0.31691  0.64198  0.08103  1.0000
  H   H315      1.0  0.30922  0.67703  0.09410  1.0000
  H   H316      1.0  0.34838  0.70298  0.03799  1.0000
  C   C269      1.0  0.19823  0.73953  0.20914  1.0000
  C   C270      1.0  0.20445  0.71813  0.21614  1.0000
  C   C271      1.0  0.22368  0.70743  0.20637  1.0000
  C   C272      1.0  0.23679  0.71812  0.18973  1.0000
  C   C273      1.0  0.23086  0.73967  0.18327  1.0000
  C   C274      1.0  0.21160  0.75030  0.19288  1.0000
  S   S85       1.0  0.46729  0.73438  0.21841  1.0000
  H   H317      1.0  0.22819  0.69074  0.21142  1.0000
  H   H318      1.0  0.24096  0.74809  0.17064  1.0000
  H   H319      1.0  0.20700  0.76693  0.18763  1.0000
  C   C275      1.0  0.08052  0.82143  0.09950  1.0000
  C   C276      1.0  0.08729  0.83904  0.10500  1.0000
  C   C277      1.0  0.10393  0.84858  0.09171  1.0000
  C   C278      1.0  0.11383  0.84082  0.07266  1.0000
  C   C279      1.0  0.10745  0.82289  0.06739  1.0000
  C   C280      1.0  0.09092  0.81319  0.08082  1.0000
  H   H320      1.0  0.07970  0.84543  0.11943  1.0000
  H   H321      1.0  0.10893  0.86229  0.09607  1.0000
  H   H322      1.0  0.11496  0.81671  0.05278  1.0000
  H   H323      1.0  0.08586  0.79951  0.07645  1.0000
  C   C281      1.0  0.48399  0.70853  0.18818  1.0000
  H   H324      1.0  0.44635  0.67874  0.12711  1.0000
  S   S86       1.0  0.34168  0.62802  0.04262  1.0000
  C   C282      1.0  0.02905  0.91628  0.21208  1.0000
  H   H325      1.0  0.11840  0.74522  0.17780  1.0000
  S   S87       1.0  0.99805  0.85157  0.18672  1.0000
  H   H326      1.0  0.46804  0.60115  0.05117  1.0000
  C   C283      1.0  0.23261  0.87645  0.04790  1.0000
  N   N17       1.0  0.03729  0.87505  0.07427  1.0000
  H   H327      1.0  0.10777  0.78901  0.15049  1.0000
  H   H328      1.0  0.03085  0.88577  0.18638  1.0000
  H   H329      1.0  0.32645  0.78222  0.21711  1.0000
  H   H330      1.0  0.01874  0.87704  0.22255  1.0000
  H   H331      1.0  0.26447  0.83758  0.07509  1.0000
  C   C284      1.0  0.46821  0.71192  0.20579  1.0000
  H   H332      1.0  0.44600  0.69177  0.14966  1.0000
  H   H333      1.0  0.36407  0.60901  0.07757  1.0000
  C   C285      1.0  0.44663  0.64901  0.02743  1.0000
  C   C286      1.0  0.35951  0.76778  0.21666  1.0000
  C   C287      1.0  0.33977  0.77290  0.20857  1.0000
  C   C288      1.0  0.33717  0.76579  0.18953  1.0000
  C   C289      1.0  0.35442  0.75376  0.17846  1.0000
  C   C290      1.0  0.37414  0.74893  0.18650  1.0000
  C   C291      1.0  0.37667  0.75583  0.20553  1.0000
  C   C292      1.0  0.32566  0.72153  0.23153  1.0000
  H   H334      1.0  0.32195  0.76975  0.18335  1.0000
  H   H335      1.0  0.38757  0.73978  0.17806  1.0000
  H   H336      1.0  0.39201  0.75202  0.21147  1.0000
  C   C293      1.0  0.45452  0.66191  0.03928  1.0000
  H   H337      1.0  0.45120  0.67891  0.03548  1.0000
  H   H338      1.0  0.38400  0.63440  0.04865  1.0000
  C   C294      1.0  0.45405  0.69713  0.21331  1.0000
  H   H339      1.0  0.43735  0.65610  0.01464  1.0000
  H   H340      1.0  0.39564  0.59688  0.05765  1.0000
  H   H341      1.0  0.13068  0.76893  0.17432  1.0000
  N   N18       1.0  0.39404  0.62006  0.07894  1.0000
  C   C295      1.0  0.37226  0.61534  0.08882  1.0000
  C   C296      1.0  0.40522  0.60131  0.06895  1.0000
  C   C297      1.0  0.40559  0.62561  0.09515  1.0000
  C   C298      1.0  0.42713  0.61664  0.09769  1.0000
  C   C299      1.0  0.39558  0.64100  0.10850  1.0000
  C   C300      1.0  0.43756  0.62222  0.11318  1.0000
  C   C301      1.0  0.40606  0.64626  0.12412  1.0000
  C   C302      1.0  0.42698  0.63679  0.12654  1.0000
  H   H342      1.0  0.37308  0.60340  0.10342  1.0000
  H   H343      1.0  0.40816  0.58727  0.08123  1.0000
  H   H344      1.0  0.42075  0.60436  0.05910  1.0000
  H   H345      1.0  0.43633  0.60534  0.08783  1.0000
  H   H346      1.0  0.37959  0.64921  0.10685  1.0000
  H   H347      1.0  0.45400  0.61520  0.11485  1.0000
  H   H348      1.0  0.39792  0.65787  0.13428  1.0000
  H   H349      1.0  0.43513  0.64075  0.13872  1.0000
  N   N19       1.0  0.42520  0.70860  0.12699  1.0000
  C   C303      1.0  0.41294  0.72123  0.14362  1.0000
  C   C304      1.0  0.43567  0.68869  0.13829  1.0000
  C   C305      1.0  0.41170  0.70381  0.11201  1.0000
  C   C306      1.0  0.42113  0.69217  0.09497  1.0000
  C   C307      1.0  0.38917  0.71076  0.11347  1.0000
  C   C308      1.0  0.40893  0.68815  0.08010  1.0000
  C   C309      1.0  0.37710  0.70660  0.09855  1.0000
  C   C310      1.0  0.38697  0.69547  0.08183  1.0000
  H   H350      1.0  0.40021  0.71278  0.15383  1.0000
  H   H351      1.0  0.42349  0.72452  0.15467  1.0000
  H   H352      1.0  0.40512  0.73685  0.13638  1.0000
  H   H353      1.0  0.42355  0.67911  0.14782  1.0000
  H   H354      1.0  0.43813  0.68628  0.09284  1.0000
  H   H355      1.0  0.38045  0.71972  0.12579  1.0000
  H   H356      1.0  0.41668  0.67951  0.06707  1.0000
  H   H357      1.0  0.35999  0.71241  0.09976  1.0000
  H   H358      1.0  0.37753  0.69272  0.07012  1.0000
  C   C311      1.0  0.08020  0.91509  0.08730  1.0000
  C   C312      1.0  0.25442  0.85338  0.02307  1.0000
  C   C313      1.0  0.26359  0.84145  0.04100  1.0000
  H   H359      1.0  0.02626  0.91165  0.17221  1.0000
  H   H360      1.0  0.22047  0.88994  0.05067  1.0000
  N   N20       1.0  0.20091  0.75674  0.11630  1.0000
  C   C314      1.0  0.21560  0.74950  0.09755  1.0000
  C   C315      1.0  0.21414  0.75620  0.13360  1.0000
  C   C316      1.0  0.18549  0.74146  0.12416  1.0000
  C   C317      1.0  0.18901  0.77792  0.10995  1.0000
  C   C318      1.0  0.17604  0.78112  0.09323  1.0000
  C   C319      1.0  0.18969  0.79578  0.12006  1.0000
  C   C320      1.0  0.16459  0.80092  0.08698  1.0000
  C   C321      1.0  0.17810  0.81549  0.11371  1.0000
  C   C322      1.0  0.16563  0.81806  0.09718  1.0000
  H   H361      1.0  0.22568  0.73413  0.10198  1.0000
  H   H362      1.0  0.20692  0.74735  0.08448  1.0000
  H   H363      1.0  0.22672  0.76114  0.09065  1.0000
  H   H364      1.0  0.22660  0.76690  0.12859  1.0000
  H   H365      1.0  0.22294  0.74012  0.13803  1.0000
  H   H366      1.0  0.20408  0.76071  0.14855  1.0000
  H   H367      1.0  0.17388  0.74665  0.13798  1.0000
  H   H368      1.0  0.17610  0.73952  0.11154  1.0000
  H   H369      1.0  0.19387  0.72546  0.12967  1.0000
  H   H370      1.0  0.17479  0.76838  0.08470  1.0000
  H   H371      1.0  0.19945  0.79512  0.13258  1.0000
  H   H372      1.0  0.15495  0.80311  0.07402  1.0000
  H   H373      1.0  0.17910  0.82896  0.12140  1.0000
  H   H374      1.0  0.15689  0.83343  0.09211  1.0000
  H   H375      1.0  0.45228  0.72519  0.12560  1.0000
  H   H376      1.0  0.36121  0.62959  0.09326  1.0000
  H   H377      1.0  0.45339  0.71163  0.10322  1.0000
  C   C323      1.0  0.39182  0.63819  0.06166  1.0000
  H   H378      1.0  0.35542  0.66841  0.02468  1.0000
  H   H379      1.0  0.44195  0.69949  0.22700  1.0000
  C   C324      1.0  0.46716  0.65302  0.05553  1.0000
  H   H380      1.0  0.44470  0.66769  0.20899  1.0000
  H   H381      1.0  0.33803  0.73152  0.22666  1.0000
  C   C325      1.0  0.45567  0.67909  0.20314  1.0000
  C   C326      1.0  0.32879  0.71293  0.99037  1.0000
  N   N21       1.0  0.28873  0.72171  0.00325  1.0000
  C   C327      1.0  0.09445  0.78018  0.15869  1.0000
  H   H382      1.0  0.05355  0.92704  0.10942  1.0000
  H   H383      1.0  0.26918  0.74974  0.98946  1.0000
  C   C328      1.0  0.09486  0.79286  0.19182  1.0000
  H   H384      1.0  0.07888  0.80278  0.19118  1.0000
  H   H385      1.0  0.09514  0.76638  0.15013  1.0000
  C   C329      1.0  0.45171  0.62704  0.03144  1.0000
  H   H386      1.0  0.01022  0.94439  0.17583  1.0000
  C   C330      1.0  0.25745  0.84707  0.06160  1.0000
  N   N22       1.0  0.09601  0.77351  0.18187  1.0000
  C   C331      1.0  0.11741  0.76067  0.18365  1.0000
  H   H387      1.0  0.09735  0.78918  0.20896  1.0000
  H   H388      1.0  0.31825  0.72545  0.19916  1.0000
  S   S88       1.0  0.49412  0.68373  0.12005  1.0000
  C   C332      1.0  0.46399  0.61813  0.04798  1.0000
  H   H389      1.0  0.06126  0.84924  0.06521  1.0000
  C   C333      1.0  0.07881  0.76129  0.19326  1.0000
  H   H390      1.0  0.05975  0.76402  0.16683  1.0000
  H   H391      1.0  0.03231  0.80928  0.22259  1.0000
  C   C334      1.0  0.47129  0.63103  0.06026  1.0000
  C   C335      1.0  0.06141  0.75793  0.18336  1.0000
  H   H392      1.0  0.99738  0.77102  0.19679  1.0000
  C   C336      1.0  0.04586  0.73848  0.21634  1.0000
  H   H393      1.0  0.26289  0.74343  0.01759  1.0000
  S   S89       1.0  0.44423  0.61020  0.01542  1.0000
  C   C337      1.0  0.07888  0.75271  0.21518  1.0000
  H   H394      1.0  0.05291  0.86824  0.04297  1.0000
  C   C338      1.0  0.04521  0.74671  0.19485  1.0000
  Fe  Fe43      1.0  0.41410  0.61696  0.99885  1.0000
  H   H395      1.0  0.03196  0.74452  0.18707  1.0000
  C   C339      1.0  0.02914  0.86250  0.09464  1.0000
  C   C340      1.0  0.29792  0.70573  0.22084  1.0000
  S   S90       1.0  0.39020  0.59469  0.01271  1.0000
  Fe  Fe44      1.0  0.36606  0.62405  0.01296  1.0000
  C   C341      1.0  0.06275  0.74137  0.22644  1.0000
  C   C342      1.0  0.01878  0.88842  0.06519  1.0000
  C   C343      1.0  0.48563  0.69054  0.17808  1.0000
  H   H396      1.0  0.19419  0.70968  0.22863  1.0000
  C   C344      1.0  0.07373  0.88816  0.06785  1.0000
  C   C345      1.0  0.47147  0.67576  0.18550  1.0000
  H   H397      1.0  0.01932  0.85068  0.09202  1.0000
  H   H398      1.0  0.03592  0.84952  0.05668  1.0000
  C   C346      1.0  0.01858  0.90012  0.18464  1.0000
  H   H399      1.0  0.03534  0.92896  0.19999  1.0000
  C   C347      1.0  0.27653  0.74324  0.00423  1.0000
  H   H400      1.0  0.00923  0.89888  0.07660  1.0000
  H   H401      1.0  0.02394  0.92289  0.22747  1.0000
  H   H402      1.0  0.12113  0.75727  0.20044  1.0000
  H   H403      1.0  0.28925  0.70310  0.20841  1.0000
  H   H404      1.0  0.01875  0.87244  0.10600  1.0000
  H   H405      1.0  0.25970  0.70730  0.00972  1.0000
  S   S91       1.0  0.00086  0.83544  0.13983  1.0000
  H   H406      1.0  0.09097  0.92500  0.09081  1.0000
  C   C348      1.0  0.05984  0.82297  0.22635  1.0000
  C   C349      1.0  0.04534  0.90322  0.09347  1.0000
  S   S92       1.0  0.47810  0.67007  0.06869  1.0000
  H   H407      1.0  0.03319  0.72998  0.22526  1.0000
  H   H408      1.0  0.10394  0.90000  0.06443  1.0000
  N   N23       1.0  0.26115  0.84844  0.00088  1.0000
  H   H409      1.0  0.09116  0.75514  0.22405  1.0000
  C   C350      1.0  0.05917  0.91618  0.09779  1.0000
  C   C351      1.0  0.04734  0.85993  0.05908  1.0000
  H   H410      1.0  0.49446  0.65034  0.00600  1.0000
  C   C352      1.0  0.05224  0.88868  0.07845  1.0000
  H   H411      1.0  0.02919  0.90459  0.10209  1.0000
  H   H412      1.0  0.49502  0.71988  0.18225  1.0000
  H   H413      1.0  0.02428  0.89873  0.05026  1.0000
  H   H414      1.0  0.30544  0.72269  0.02992  1.0000
  H   H415      1.0  0.33209  0.70449  0.00571  1.0000
  N   N24       1.0  0.01098  0.90837  0.20536  1.0000
  H   H416      1.0  0.00744  0.87870  0.06128  1.0000
  S   S93       1.0  0.17373  0.75335  0.21984  1.0000
  H   H417      1.0  0.08065  0.87752  0.05635  1.0000
  H   H418      1.0  0.04267  0.85368  0.10291  1.0000
  C   C353      1.0  0.24210  0.84720  0.99071  1.0000
  H   H419      1.0  0.27534  0.82750  0.03971  1.0000
  H   H420      1.0  0.28712  0.75442  0.00672  1.0000
  H   H421      1.0  0.23560  0.74556  0.23045  1.0000
  C   C354      1.0  0.04650  0.80729  0.23041  1.0000
  H   H422      1.0  0.48041  0.62398  0.07311  1.0000
  H   H423      1.0  0.28295  0.69149  0.99760  1.0000
  H   H424      1.0  0.27983  0.71383  0.03755  1.0000
  C   C355      1.0  0.29426  0.71332  0.02510  1.0000
  H   H425      1.0  0.23234  0.83552  0.00060  1.0000
  S   S94       1.0  0.14889  0.85334  0.99221  1.0000
  C   C356      1.0  0.27454  0.70794  0.99787  1.0000
  H   H426      1.0  0.29117  0.82828  0.00541  1.0000
  C   C357      1.0  0.07821  0.82018  0.23659  1.0000
  H   H427      1.0  0.48691  0.77543  0.20275  1.0000
  H   H428      1.0  0.28682  0.86726  0.99550  1.0000
  H   H429      1.0  0.26782  0.81470  0.00942  1.0000
  C   C358      1.0  0.27560  0.82803  0.99971  1.0000
  Fe  Fe45      1.0  0.99611  0.82140  0.17457  1.0000
  H   H430      1.0  0.47963  0.79259  0.23464  1.0000
  H   H431      1.0  0.08863  0.83226  0.23343  1.0000
  C   C359      1.0  0.40804  0.71784  0.35658  1.0000
  H   H432      1.0  0.39054  0.79248  0.31788  1.0000
  S   S95       1.0  0.31091  0.85980  0.45851  1.0000
  C   C360      1.0  0.00740  0.73330  0.28870  1.0000
  S   S96       1.0  0.07515  0.76286  0.27296  1.0000
  S   S97       1.0  0.36222  0.88604  0.46749  1.0000
  C   C361      1.0  0.29981  0.77017  0.45558  1.0000
  S   S98       1.0  0.19392  0.65962  0.44863  1.0000
  Fe  Fe46      1.0  0.29343  0.73240  0.37555  1.0000
  S   S99       1.0  0.29452  0.76491  0.35769  1.0000
  S   S100      1.0  0.31058  0.70292  0.36273  1.0000
  Fe  Fe47      1.0  0.26076  0.74775  0.41214  1.0000
  S   S101      1.0  0.25924  0.78177  0.39705  1.0000
  S   S102      1.0  0.24048  0.73940  0.44392  1.0000
  Fe  Fe48      1.0  0.25854  0.76900  0.36629  1.0000
  S   S103      1.0  0.23700  0.78407  0.34115  1.0000
  Fe  Fe49      1.0  0.29522  0.77432  0.39005  1.0000
  S   S104      1.0  0.32182  0.79190  0.39463  1.0000
  S   S105      1.0  0.25752  0.73569  0.38213  1.0000
  S   S106      1.0  0.29675  0.74113  0.40733  1.0000
  S   S107      1.0  0.46298  0.88860  0.37305  1.0000
  Fe  Fe50      1.0  0.42776  0.77014  0.27967  1.0000
  S   S108      1.0  0.44516  0.73717  0.27949  1.0000
  S   S109      1.0  0.43548  0.79549  0.29670  1.0000
  H   H433      1.0  0.24282  0.77632  0.25665  1.0000
  C   C362      1.0  0.25007  0.71490  0.28847  1.0000
  Fe  Fe51      1.0  0.41199  0.72779  0.28567  1.0000
  S   S110      1.0  0.40337  0.69956  0.30881  1.0000
  H   H434      1.0  0.00645  0.60677  0.44439  1.0000
  S   S111      1.0  0.39490  0.76036  0.28840  1.0000
  Fe  Fe52      1.0  0.13321  0.70310  0.27765  1.0000
  S   S112      1.0  0.11728  0.72346  0.30235  1.0000
  S   S113      1.0  0.12827  0.66890  0.28502  1.0000
  Fe  Fe53      1.0  0.14893  0.73550  0.29840  1.0000
  S   S114      1.0  0.16404  0.73369  0.32839  1.0000
  H   H435      1.0  0.28038  0.84479  0.43840  1.0000
  S   S115      1.0  0.16559  0.71339  0.27533  1.0000
  H   H436      1.0  0.36330  0.74805  0.37684  1.0000
  S   S116      1.0  0.03302  0.60428  0.35963  1.0000
  S   S117      1.0  0.04873  0.60827  0.41566  1.0000
  H   H437      1.0  0.11549  0.61654  0.36572  1.0000
  H   H438      1.0  0.28399  0.81782  0.41396  1.0000
  Fe  Fe54      1.0  0.01950  0.63667  0.34510  1.0000
  S   S118      1.0  0.03052  0.65825  0.31542  1.0000
  Fe  Fe55      1.0  0.02521  0.61755  0.39105  1.0000
  H   H439      1.0  0.40484  0.79849  0.33784  1.0000
  C   C363      1.0  0.10112  0.66582  0.29327  1.0000
  C   C364      1.0  0.09558  0.64594  0.30247  1.0000
  C   C365      1.0  0.07400  0.64353  0.31018  1.0000
  C   C366      1.0  0.05787  0.66089  0.30796  1.0000
  C   C367      1.0  0.06340  0.68065  0.29836  1.0000
  C   C368      1.0  0.08498  0.68318  0.29132  1.0000
  H   H440      1.0  0.10801  0.63241  0.30366  1.0000
  H   H441      1.0  0.06978  0.62814  0.31712  1.0000
  H   H442      1.0  0.05102  0.69409  0.29640  1.0000
  H   H443      1.0  0.08907  0.69854  0.28408  1.0000
  C   C369      1.0  0.35674  0.71351  0.26222  1.0000
  H   H444      1.0  0.46016  0.77538  0.40462  1.0000
  C   C370      1.0  0.47006  0.81028  0.33841  1.0000
  C   C371      1.0  0.45468  0.79320  0.31441  1.0000
  H   H445      1.0  0.17998  0.68320  0.40317  1.0000
  C   C372      1.0  0.46843  0.81421  0.40106  1.0000
  S   S119      1.0  0.42004  0.85131  0.46566  1.0000
  C   C373      1.0  0.33655  0.70303  0.34839  1.0000
  C   C374      1.0  0.34912  0.68363  0.34541  1.0000
  C   C375      1.0  0.36963  0.68288  0.33348  1.0000
  C   C376      1.0  0.37761  0.70152  0.32395  1.0000
  C   C377      1.0  0.36499  0.72104  0.32675  1.0000
  C   C378      1.0  0.34454  0.72181  0.33918  1.0000
  H   H446      1.0  0.34301  0.66907  0.35248  1.0000
  H   H447      1.0  0.37928  0.66776  0.33145  1.0000
  H   H448      1.0  0.37112  0.73549  0.31985  1.0000
  H   H449      1.0  0.33490  0.73686  0.34141  1.0000
  C   C379      1.0  0.21809  0.76937  0.33536  1.0000
  C   C380      1.0  0.21818  0.74811  0.34385  1.0000
  C   C381      1.0  0.20217  0.73706  0.34051  1.0000
  C   C382      1.0  0.18591  0.74708  0.32851  1.0000
  C   C383      1.0  0.18635  0.76803  0.31887  1.0000
  C   C384      1.0  0.20244  0.77916  0.32233  1.0000
  H   H450      1.0  0.23037  0.74013  0.35325  1.0000
  H   H451      1.0  0.20216  0.72079  0.34766  1.0000
  H   H452      1.0  0.17373  0.77595  0.30970  1.0000
  H   H453      1.0  0.20229  0.79560  0.31559  1.0000
  C   C385      1.0  0.08035  0.64588  0.45444  1.0000
  C   C386      1.0  0.08665  0.62417  0.45444  1.0000
  C   C387      1.0  0.07689  0.61304  0.44233  1.0000
  C   C388      1.0  0.06101  0.62346  0.42980  1.0000
  H   H454      1.0  0.37972  0.81373  0.33279  1.0000
  C   C389      1.0  0.06468  0.65639  0.44165  1.0000
  H   H455      1.0  0.09867  0.61587  0.46418  1.0000
  H   H456      1.0  0.08160  0.59616  0.44281  1.0000
  C   C390      1.0  0.20855  0.68019  0.44944  1.0000
  C   C391      1.0  0.22623  0.68347  0.43371  1.0000
  C   C392      1.0  0.23653  0.70129  0.43230  1.0000
  C   C393      1.0  0.22928  0.71587  0.44672  1.0000
  C   C394      1.0  0.21220  0.71213  0.46305  1.0000
  C   C395      1.0  0.20185  0.69430  0.46443  1.0000
  H   H457      1.0  0.23163  0.67248  0.42220  1.0000
  H   H458      1.0  0.24993  0.70382  0.41990  1.0000
  Fe  Fe56      1.0  0.33808  0.86315  0.47603  1.0000
  H   H459      1.0  0.46919  0.82352  0.34685  1.0000
  C   C396      1.0  0.43134  0.86373  0.44053  1.0000
  C   C397      1.0  0.45379  0.86114  0.43539  1.0000
  C   C398      1.0  0.46358  0.86947  0.41512  1.0000
  C   C399      1.0  0.45106  0.88020  0.39957  1.0000
  C   C400      1.0  0.42859  0.88378  0.40511  1.0000
  C   C401      1.0  0.41872  0.87541  0.42544  1.0000
  H   H460      1.0  0.46371  0.85241  0.44705  1.0000
  H   H461      1.0  0.48087  0.86744  0.41154  1.0000
  H   H462      1.0  0.41874  0.89236  0.39332  1.0000
  H   H463      1.0  0.40139  0.87752  0.42916  1.0000
  C   C402      1.0  0.31421  0.84080  0.44086  1.0000
  C   C403      1.0  0.33448  0.83008  0.43411  1.0000
  C   C404      1.0  0.33655  0.81522  0.41982  1.0000
  C   C405      1.0  0.31836  0.81062  0.41260  1.0000
  C   C406      1.0  0.29807  0.82110  0.41960  1.0000
  C   C407      1.0  0.29607  0.83635  0.43346  1.0000
  H   H464      1.0  0.34855  0.83346  0.43967  1.0000
  H   H465      1.0  0.35225  0.80702  0.41462  1.0000
  N   N25       1.0  0.23249  0.74555  0.26467  1.0000
  C   C408      1.0  0.02109  0.66526  0.48397  1.0000
  H   H466      1.0  0.01942  0.72264  0.29678  1.0000
  H   H467      1.0  0.27744  0.71333  0.33056  1.0000
  C   C409      1.0  0.21151  0.73744  0.26918  1.0000
  C   C410      1.0  0.32117  0.71215  0.25316  1.0000
  C   C411      1.0  0.29052  0.74467  0.48735  1.0000
  H   H468      1.0  0.20094  0.74450  0.25675  1.0000
  H   H469      1.0  0.25240  0.79984  0.45956  1.0000
  C   C412      1.0  0.01235  0.75341  0.28002  1.0000
  H   H470      1.0  0.29768  0.70435  0.48105  1.0000
  H   H471      1.0  0.17212  0.71135  0.43639  1.0000
  H   H472      1.0  0.44738  0.92887  0.44768  1.0000
  H   H473      1.0  0.34004  0.70438  0.30193  1.0000
  C   C413      1.0  0.03708  0.62872  0.48724  1.0000
  H   H474      1.0  0.36233  0.69803  0.25630  1.0000
  H   H475      1.0  0.27532  0.75102  0.45823  1.0000
  C   C414      1.0  0.25333  0.75020  0.29419  1.0000
  H   H476      1.0  0.32899  0.74985  0.25945  1.0000
  Fe  Fe57      1.0  0.16864  0.65269  0.47697  1.0000
  H   H477      1.0  0.09763  0.79940  0.25844  1.0000
  H   H478      1.0  0.43358  0.90915  0.44170  1.0000
  C   C415      1.0  0.14878  0.71401  0.39172  1.0000
  H   H479      1.0  0.31302  0.70481  0.29859  1.0000
  H   H480      1.0  0.36556  0.80698  0.37074  1.0000
  C   C416      1.0  0.38829  0.76061  0.35275  1.0000
  H   H481      1.0  0.36623  0.78082  0.38462  1.0000
  H   H482      1.0  0.35654  0.77641  0.32944  1.0000
  H   H483      1.0  0.34676  0.79963  0.34229  1.0000
  C   C417      1.0  0.38862  0.79738  0.33409  1.0000
  H   H484      1.0  0.10101  0.62888  0.34409  1.0000
  C   C418      1.0  0.37492  0.79082  0.37135  1.0000
  C   C419      1.0  0.05523  0.64532  0.42921  1.0000
  H   H485      1.0  0.42616  0.79725  0.43492  1.0000
  H   H486      1.0  0.45376  0.79488  0.43766  1.0000
  H   H487      1.0  0.43777  0.82042  0.43574  1.0000
  H   H488      1.0  0.05972  0.67319  0.44154  1.0000
  C   C420      1.0  0.11324  0.63108  0.35385  1.0000
  C   C421      1.0  0.35548  0.78323  0.34459  1.0000
  C   C422      1.0  0.16633  0.75287  0.38158  1.0000
  H   H489      1.0  0.12853  0.63191  0.34270  1.0000
  N   N26       1.0  0.37717  0.78265  0.35059  1.0000
  S   S120      1.0  0.13970  0.76237  0.27301  1.0000
  N   N27       1.0  0.10652  0.65013  0.36475  1.0000
  C   C423      1.0  0.08411  0.64928  0.37560  1.0000
  C   C424      1.0  0.10617  0.66924  0.34835  1.0000
  C   C425      1.0  0.12201  0.65068  0.37960  1.0000
  C   C426      1.0  0.14394  0.65206  0.37157  1.0000
  C   C427      1.0  0.11619  0.64906  0.40222  1.0000
  C   C428      1.0  0.15910  0.65151  0.38537  1.0000
  C   C429      1.0  0.13142  0.64870  0.41585  1.0000
  C   C430      1.0  0.15286  0.64971  0.40749  1.0000
  H   H490      1.0  0.08288  0.63451  0.38713  1.0000
  H   H491      1.0  0.07279  0.64932  0.36395  1.0000
  H   H492      1.0  0.07796  0.66314  0.38424  1.0000
  H   H493      1.0  0.09345  0.67018  0.33799  1.0000
  H   H494      1.0  0.10304  0.68393  0.35596  1.0000
  H   H495      1.0  0.12148  0.66956  0.33715  1.0000
  H   H496      1.0  0.14957  0.65318  0.35455  1.0000
  H   H497      1.0  0.10002  0.64774  0.40986  1.0000
  H   H498      1.0  0.17585  0.65216  0.37890  1.0000
  H   H499      1.0  0.12658  0.64728  0.43310  1.0000
  H   H500      1.0  0.16467  0.64889  0.41825  1.0000
  S   S121      1.0  0.01405  0.65037  0.37595  1.0000
  H   H501      1.0  0.15405  0.75081  0.37257  1.0000
  H   H502      1.0  0.36148  0.72620  0.24921  1.0000
  C   C431      1.0  0.15905  0.71232  0.42654  1.0000
  H   H503      1.0  0.47695  0.79590  0.26993  1.0000
  H   H504      1.0  0.29932  0.69214  0.27400  1.0000
  H   H505      1.0  0.00982  0.64149  0.42475  1.0000
  H   H506      1.0  0.19812  0.73007  0.41980  1.0000
  H   H507      1.0  0.28016  0.68663  0.24584  1.0000
  C   C432      1.0  0.41811  0.73324  0.34265  1.0000
  H   H508      1.0  0.48523  0.71032  0.25611  1.0000
  S   S122      1.0  0.42522  0.77583  0.24437  1.0000
  C   C433      1.0  0.26503  0.74159  0.31110  1.0000
  H   H509      1.0  0.14322  0.69830  0.39657  1.0000
  S   S123      1.0  0.36225  0.77541  0.24122  1.0000
  C   C434      1.0  0.29282  0.69649  0.24197  1.0000
  H   H510      1.0  0.14622  0.72518  0.43147  1.0000
  Fe  Fe58      1.0  0.10963  0.74794  0.27444  1.0000
  H   H511      1.0  0.33534  0.74224  0.28615  1.0000
  H   H512      1.0  0.33385  0.68503  0.28786  1.0000
  H   H513      1.0  0.29720  0.77747  0.43950  1.0000
  H   H514      1.0  0.48044  0.82076  0.25320  1.0000
  H   H515      1.0  0.15377  0.71555  0.37403  1.0000
  C   C435      1.0  0.02221  0.62416  0.47536  1.0000
  H   H516      1.0  0.48502  0.81663  0.28058  1.0000
  Fe  Fe59      1.0  0.44025  0.74186  0.24477  1.0000
  C   C436      1.0  0.39817  0.85279  0.37592  1.0000
  H   H517      1.0  0.04105  0.77696  0.24777  1.0000
  C   C437      1.0  0.32976  0.70191  0.29031  1.0000
  H   H518      1.0  0.27409  0.71619  0.46915  1.0000
  Fe  Fe60      1.0  0.39402  0.76262  0.25315  1.0000
  H   H519      1.0  0.32540  0.78761  0.45670  1.0000
  H   H520      1.0  0.25030  0.76724  0.29118  1.0000
  C   C438      1.0  0.32626  0.73823  0.27417  1.0000
  N   N28       1.0  0.33322  0.71621  0.26975  1.0000
  H   H521      1.0  0.19823  0.79026  0.38129  1.0000
  C   C439      1.0  0.26156  0.70648  0.30560  1.0000
  C   C440      1.0  0.30412  0.69970  0.25800  1.0000
  H   H522      1.0  0.48041  0.80248  0.40921  1.0000
  H   H523      1.0  0.02422  0.60814  0.47189  1.0000
  C   C441      1.0  0.22782  0.76899  0.26126  1.0000
  H   H524      1.0  0.21239  0.76337  0.40973  1.0000
  C   C442      1.0  0.37870  0.74455  0.36717  1.0000
  H   H525      1.0  0.20645  0.72342  0.47417  1.0000
  C   C443      1.0  0.44076  0.80499  0.42945  1.0000
  H   H526      1.0  0.34490  0.77429  0.35711  1.0000
  H   H527      1.0  0.39092  0.79142  0.37590  1.0000
  H   H528      1.0  0.04335  0.65370  0.41941  1.0000
  H   H529      1.0  0.16878  0.78369  0.36345  1.0000
  C   C444      1.0  0.17468  0.77200  0.37613  1.0000
  H   H530      1.0  0.26444  0.68954  0.31037  1.0000
  C   C445      1.0  0.19937  0.76053  0.40199  1.0000
  H   H531      1.0  0.38039  0.71138  0.37936  1.0000
  Fe  Fe61      1.0  0.15427  0.73924  0.25001  1.0000
  C   C446      1.0  0.26893  0.71982  0.31696  1.0000
  C   C447      1.0  0.41979  0.85495  0.37002  1.0000
  C   C448      1.0  0.38845  0.72350  0.36894  1.0000
  H   H532      1.0  0.41073  0.95273  0.45252  1.0000
  C   C449      1.0  0.24528  0.73705  0.28244  1.0000
  C   C450      1.0  0.17444  0.73688  0.39749  1.0000
  H   H533      1.0  0.00440  0.69876  0.31975  1.0000
  H   H534      1.0  0.01453  0.69101  0.28248  1.0000
  H   H535      1.0  0.43211  0.78120  0.40186  1.0000
  C   C451      1.0  0.28039  0.71080  0.48472  1.0000
  H   H536      1.0  0.40254  0.80888  0.41246  1.0000
  C   C452      1.0  0.40855  0.75436  0.34079  1.0000
  H   H537      1.0  0.41713  0.76536  0.32948  1.0000
  N   N29       1.0  0.44654  0.80800  0.40575  1.0000
  C   C453      1.0  0.44765  0.78756  0.39777  1.0000
  H   H538      1.0  0.02753  0.75787  0.28206  1.0000
  H   H539      1.0  0.44233  0.82408  0.32315  1.0000
  H   H540      1.0  0.45191  0.78930  0.37999  1.0000
  N   N30       1.0  0.41963  0.92242  0.47071  1.0000
  C   C454      1.0  0.40795  0.82161  0.40081  1.0000
  H   H541      1.0  0.43312  0.72864  0.33273  1.0000
  H   H542      1.0  0.41511  0.70138  0.35728  1.0000
  C   C455      1.0  0.47039  0.77549  0.31744  1.0000
  C   C456      1.0  0.40430  0.93758  0.45848  1.0000
  H   H543      1.0  0.42445  0.86813  0.35833  1.0000
  H   H544      1.0  0.20265  0.74109  0.28498  1.0000
  C   C457      1.0  0.00599  0.64014  0.46767  1.0000
  C   C458      1.0  0.43014  0.82365  0.39557  1.0000
  H   H545      1.0  0.46862  0.82966  0.40634  1.0000
  H   H546      1.0  0.47469  0.81530  0.38372  1.0000
  C   C459      1.0  0.06986  0.78600  0.25486  1.0000
  H   H547      1.0  0.49500  0.69000  0.24002  1.0000
  C   C460      1.0  0.45449  0.81039  0.32520  1.0000
  Fe  Fe62      1.0  0.99869  0.59735  0.36546  1.0000
  S   S124      1.0  0.40890  0.72909  0.25098  1.0000
  H   H548      1.0  0.24459  0.70394  0.28020  1.0000
  C   C461      1.0  0.19128  0.77574  0.38616  1.0000
  C   C462      1.0  0.48639  0.79317  0.34084  1.0000
  H   H549      1.0  0.47062  0.76206  0.30927  1.0000
  H   H550      1.0  0.40093  0.93116  0.44437  1.0000
  N   N31       1.0  0.16671  0.71607  0.40318  1.0000
  C   C463      1.0  0.19108  0.74143  0.40764  1.0000
  H   H551      1.0  0.18821  0.69188  0.47659  1.0000
  H   H552      1.0  0.13463  0.72616  0.39520  1.0000
  H   H553      1.0  0.19880  0.69965  0.40568  1.0000
  C   C464      1.0  0.43558  0.84073  0.37969  1.0000
  C   C465      1.0  0.39224  0.83617  0.39130  1.0000
  H   H554      1.0  0.37535  0.83476  0.39604  1.0000
  S   S125      1.0  0.12352  0.72661  0.24974  1.0000
  C   C466      1.0  0.48618  0.77549  0.33070  1.0000
  C   C467      1.0  0.18463  0.69921  0.39781  1.0000
  H   H555      1.0  0.30882  0.74093  0.28042  1.0000
  S   S126      1.0  0.14889  0.62700  0.47686  1.0000
  C   C468      1.0  0.08341  0.80156  0.25062  1.0000
  H   H556      1.0  0.19014  0.70077  0.38026  1.0000
  H   H557      1.0  0.38598  0.86420  0.36873  1.0000
  H   H558      1.0  0.45190  0.84390  0.37476  1.0000
  H   H559      1.0  0.36627  0.71428  0.27522  1.0000
  H   H560      1.0  0.15254  0.69704  0.43133  1.0000
  C   C469      1.0  0.25099  0.80038  0.47665  1.0000
  H   H561      1.0  0.21322  0.72008  0.26941  1.0000
  C   C470      1.0  0.28737  0.75489  0.46645  1.0000
  C   C471      1.0  0.31571  0.77584  0.46520  1.0000
  H   H562      1.0  0.27682  0.81817  0.47304  1.0000
  Fe  Fe63      1.0  0.38512  0.85842  0.48031  1.0000
  S   S127      1.0  0.09074  0.66036  0.47081  1.0000
  H   H563      1.0  0.21860  0.77512  0.27592  1.0000
  H   H564      1.0  0.49532  0.71257  0.28831  1.0000
  C   C472      1.0  0.05138  0.78903  0.24482  1.0000
  H   H565      1.0  0.44967  0.90243  0.46267  1.0000
  H   H566      1.0  0.27034  0.75197  0.32030  1.0000
  C   C473      1.0  0.43847  0.91552  0.45511  1.0000
  H   H567      1.0  0.40505  0.89562  0.46768  1.0000
  C   C474      1.0  0.00606  0.66089  0.47216  1.0000
  C   C475      1.0  0.42526  0.93214  0.48815  1.0000
  C   C476      1.0  0.31924  0.76622  0.48571  1.0000
  H   H568      1.0  0.38833  0.94121  0.46820  1.0000
  C   C477      1.0  0.48711  0.80879  0.26591  1.0000
  H   H569      1.0  0.26059  0.74364  0.24083  1.0000
  H   H570      1.0  0.22409  0.78301  0.48443  1.0000
  H   H571      1.0  0.21783  0.77484  0.24809  1.0000
  S   S128      1.0  0.14056  0.67688  0.48582  1.0000
  C   C478      1.0  0.26505  0.81067  0.48457  1.0000
  H   H572      1.0  0.27513  0.84932  0.48872  1.0000
  S   S129      1.0  0.36133  0.83501  0.48686  1.0000
  H   H573      1.0  0.24634  0.72129  0.24476  1.0000
  H   H574      1.0  0.24840  0.74384  0.48573  1.0000
  C   C479      1.0  0.40924  0.90362  0.48027  1.0000
  H   H575      1.0  0.06317  0.73524  0.24328  1.0000
  C   C480      1.0  0.24430  0.73870  0.24437  1.0000
  H   H576      1.0  0.46044  0.92506  0.48117  1.0000
  Fe  Fe64      1.0  0.12079  0.65059  0.48752  1.0000
  H   H577      1.0  0.02117  0.68128  0.48685  1.0000
  C   C481      1.0  0.99803  0.76764  0.26851  1.0000
  H   H578      1.0  0.00202  0.78315  0.26159  1.0000
  C   C482      1.0  0.99723  0.69025  0.28235  1.0000
  Fe  Fe65      1.0  0.35456  0.89227  0.50195  1.0000
  S   S130      1.0  0.37882  0.86606  0.51423  1.0000
  S   S131      1.0  0.34977  0.92466  0.51289  1.0000
  Fe  Fe66      1.0  0.35253  0.84588  0.51925  1.0000
  S   S132      1.0  0.34026  0.82952  0.55173  1.0000
  S   S133      1.0  0.32784  0.87260  0.50884  1.0000
  Fe  Fe67      1.0  0.14529  0.66406  0.51992  1.0000
  S   S134      1.0  0.17505  0.64196  0.51079  1.0000
  S   S135      1.0  0.14475  0.68114  0.54840  1.0000
  H   H579      1.0  0.39306  0.92601  0.63681  1.0000
  C   C483      1.0  0.28673  0.97596  0.69961  1.0000
  Fe  Fe68      1.0  0.15249  0.61843  0.51201  1.0000
  S   S136      1.0  0.16386  0.58548  0.52835  1.0000
  H   H580      1.0  0.16263  0.62378  0.64724  1.0000
  S   S137      1.0  0.12274  0.64003  0.52287  1.0000
  H   H581      1.0  0.23988  0.61335  0.58539  1.0000
  Fe  Fe69      1.0  0.27791  0.73837  0.58101  1.0000
  S   S138      1.0  0.25108  0.76509  0.57682  1.0000
  S   S139      1.0  0.30916  0.74057  0.55918  1.0000
  Fe  Fe70      1.0  0.24935  0.71037  0.61221  1.0000
  S   S140      1.0  0.22033  0.73497  0.60998  1.0000
  S   S141      1.0  0.24242  0.67870  0.63014  1.0000
  Fe  Fe71      1.0  0.23162  0.73974  0.57465  1.0000
  S   S142      1.0  0.21491  0.74101  0.54573  1.0000
  Fe  Fe72      1.0  0.24279  0.75766  0.61260  1.0000
  S   S143      1.0  0.23075  0.78048  0.63671  1.0000
  S   S144      1.0  0.25904  0.71351  0.57665  1.0000
  S   S145      1.0  0.27125  0.73257  0.61709  1.0000
  Fe  Fe73      1.0  0.13236  0.51164  0.63549  1.0000
  S   S146      1.0  0.11427  0.50397  0.66863  1.0000
  S   S147      1.0  0.11652  0.53942  0.61426  1.0000
  Fe  Fe74      1.0  0.25892  0.84500  0.73687  1.0000
  S   S148      1.0  0.23428  0.92410  0.72294  1.0000
  H   H582      1.0  0.15704  0.66015  0.63022  1.0000
  H   H583      1.0  0.07313  0.49532  0.60302  1.0000
  Fe  Fe75      1.0  0.25319  0.89164  0.71957  1.0000
  Fe  Fe76      1.0  0.14683  0.50005  0.67952  1.0000
  S   S149      1.0  0.15371  0.50796  0.71097  1.0000
  Fe  Fe77      1.0  0.38234  0.96660  0.66371  1.0000
  S   S150      1.0  0.16424  0.51024  0.64695  1.0000
  H   H584      1.0  0.24076  0.51742  0.69858  1.0000
  S   S151      1.0  0.40796  0.96512  0.63521  1.0000
  S   S152      1.0  0.38601  0.94360  0.59433  1.0000
  H   H585      1.0  0.43858  0.95643  0.53614  1.0000
  S   S153      1.0  0.38544  0.94417  0.69429  1.0000
  Fe  Fe78      1.0  0.29765  0.86871  0.72498  1.0000
  S   S154      1.0  0.28426  0.88876  0.69699  1.0000
  H   H586      1.0  0.35534  0.88806  0.63174  1.0000
  Fe  Fe79      1.0  0.27503  0.85860  0.69026  1.0000
  S   S155      1.0  0.28413  0.84768  0.65749  1.0000
  S   S156      1.0  0.29088  0.83822  0.71688  1.0000
  C   C484      1.0  0.36838  0.92512  0.70520  1.0000
  C   C485      1.0  0.37459  0.91028  0.72235  1.0000
  H   H587      1.0  0.33179  0.77057  0.49303  1.0000
  C   C486      1.0  0.34339  0.89293  0.72336  1.0000
  C   C487      1.0  0.33695  0.90783  0.70621  1.0000
  C   C488      1.0  0.34935  0.92405  0.69725  1.0000
  H   H588      1.0  0.39997  0.89942  0.67844  1.0000
  C   C489      1.0  0.16689  0.57499  0.61805  1.0000
  H   H589      1.0  0.40080  0.95690  0.53135  1.0000
  C   C490      1.0  0.37335  0.88053  0.65900  1.0000
  C   C491      1.0  0.22163  0.67041  0.55793  1.0000
  C   C492      1.0  0.30680  0.75096  0.49680  1.0000
  H   H590      1.0  0.19430  0.73668  0.69071  1.0000
  C   C493      1.0  0.18562  0.61924  0.56354  1.0000
  H   H591      1.0  0.28543  0.77529  0.70548  1.0000
  H   H592      1.0  0.17060  0.62052  0.55710  1.0000
  H   H593      1.0  0.13134  0.64185  0.57913  1.0000
  H   H594      1.0  0.20358  0.55820  0.67758  1.0000
  C   C494      1.0  0.45151  0.94078  0.50853  1.0000
  H   H595      1.0  0.25619  0.85255  0.51232  1.0000
  C   C495      1.0  0.25239  0.66905  0.65459  1.0000
  C   C496      1.0  0.26885  0.67755  0.66083  1.0000
  C   C497      1.0  0.27597  0.66978  0.68076  1.0000
  C   C498      1.0  0.26677  0.65340  0.69442  1.0000
  C   C499      1.0  0.25054  0.64475  0.68800  1.0000
  C   C500      1.0  0.24340  0.65254  0.66814  1.0000
  H   H596      1.0  0.27626  0.68991  0.65022  1.0000
  H   H597      1.0  0.28874  0.67631  0.68554  1.0000
  H   H598      1.0  0.23078  0.64578  0.66336  1.0000
  C   C501      1.0  0.24625  0.79876  0.64217  1.0000
  C   C502      1.0  0.23817  0.81053  0.65909  1.0000
  C   C503      1.0  0.24993  0.82513  0.66418  1.0000
  C   C504      1.0  0.26967  0.82852  0.65202  1.0000
  C   C505      1.0  0.27777  0.81685  0.63497  1.0000
  C   C506      1.0  0.26619  0.80185  0.63018  1.0000
  H   H599      1.0  0.22263  0.80848  0.66825  1.0000
  H   H600      1.0  0.24343  0.83413  0.67720  1.0000
  H   H601      1.0  0.29309  0.81927  0.62554  1.0000
  H   H602      1.0  0.27258  0.79286  0.61711  1.0000
  C   C507      1.0  0.15063  0.57322  0.55249  1.0000
  C   C508      1.0  0.13004  0.58154  0.56132  1.0000
  C   C509      1.0  0.11979  0.57095  0.58024  1.0000
  C   C510      1.0  0.13017  0.55221  0.59069  1.0000
  C   C511      1.0  0.15088  0.54403  0.58208  1.0000
  C   C512      1.0  0.16099  0.55445  0.56296  1.0000
  H   H603      1.0  0.12188  0.59592  0.55333  1.0000
  H   H604      1.0  0.10371  0.57733  0.58676  1.0000
  H   H605      1.0  0.15904  0.52960  0.58998  1.0000
  H   H606      1.0  0.17691  0.54789  0.55616  1.0000
  C   C513      1.0  0.16410  0.69803  0.54730  1.0000
  C   C514      1.0  0.17701  0.70411  0.52812  1.0000
  C   C515      1.0  0.19245  0.71742  0.52781  1.0000
  C   C516      1.0  0.19552  0.72421  0.54676  1.0000
  C   C517      1.0  0.18288  0.71784  0.56601  1.0000
  C   C518      1.0  0.16694  0.70514  0.56618  1.0000
  H   H607      1.0  0.17486  0.69881  0.51349  1.0000
  H   H608      1.0  0.20207  0.72242  0.51285  1.0000
  H   H609      1.0  0.18491  0.72327  0.58062  1.0000
  H   H610      1.0  0.15676  0.70089  0.58099  1.0000
  C   C519      1.0  0.35935  0.92952  0.53601  1.0000
  C   C520      1.0  0.37448  0.91483  0.54619  1.0000
  C   C521      1.0  0.38253  0.91959  0.56387  1.0000
  C   C522      1.0  0.37537  0.93894  0.57179  1.0000
  C   C523      1.0  0.36007  0.95356  0.56180  1.0000
  C   C524      1.0  0.35223  0.94890  0.54389  1.0000
  H   H611      1.0  0.38034  0.89999  0.54017  1.0000
  H   H612      1.0  0.39448  0.90823  0.57138  1.0000
  H   H613      1.0  0.35444  0.96852  0.56770  1.0000
  H   H614      1.0  0.34061  0.96042  0.53606  1.0000
  C   C525      1.0  0.31799  0.76516  0.55725  1.0000
  C   C526      1.0  0.33377  0.77125  0.54040  1.0000
  C   C527      1.0  0.34049  0.79116  0.53830  1.0000
  C   C528      1.0  0.33192  0.80471  0.55349  1.0000
  C   C529      1.0  0.31648  0.79842  0.57059  1.0000
  C   C530      1.0  0.30928  0.77883  0.57228  1.0000
  H   H615      1.0  0.34089  0.76047  0.52909  1.0000
  H   H616      1.0  0.35268  0.79579  0.52529  1.0000
  H   H617      1.0  0.30994  0.80875  0.58251  1.0000
  H   H618      1.0  0.29729  0.77411  0.58546  1.0000
  H   H619      1.0  0.32249  0.90688  0.69984  1.0000
  C   C531      1.0  0.25508  0.50807  0.70532  1.0000
  H   H620      1.0  0.20583  0.67528  0.55210  1.0000
  H   H621      1.0  0.23268  0.66291  0.54503  1.0000
  H   H622      1.0  0.38481  0.86914  0.69016  1.0000
  H   H623      1.0  0.28057  0.73051  0.53079  1.0000
  N   N32       1.0  0.27817  0.82352  0.51464  1.0000
  C   C532      1.0  0.30095  0.81614  0.50665  1.0000
  S   S157      1.0  0.35492  0.96943  0.64508  1.0000
  C   C533      1.0  0.27619  0.82125  0.53840  1.0000
  C   C534      1.0  0.26370  0.81164  0.50683  1.0000
  H   H624      1.0  0.38920  0.91102  0.72865  1.0000
  C   C535      1.0  0.24730  0.80170  0.52067  1.0000
  C   C536      1.0  0.35638  0.87925  0.64750  1.0000
  H   H625      1.0  0.25766  0.54805  0.69193  1.0000
  C   C537      1.0  0.40883  0.94134  0.50311  1.0000
  H   H626      1.0  0.12984  0.50179  0.55744  1.0000
  H   H627      1.0  0.39411  0.90774  0.49112  1.0000
  H   H628      1.0  0.30027  0.71086  0.51871  1.0000
  H   H629      1.0  0.07293  0.49130  0.56553  1.0000
  H   H630      1.0  0.04971  0.61649  0.49243  1.0000
  H   H631      1.0  0.42006  0.89177  0.48977  1.0000
  H   H632      1.0  0.25999  0.82812  0.54565  1.0000
  H   H633      1.0  0.27945  0.80434  0.54546  1.0000
  H   H634      1.0  0.28794  0.82959  0.54374  1.0000
  H   H635      1.0  0.31039  0.74423  0.51267  1.0000
  H   H636      1.0  0.24489  0.80157  0.53782  1.0000
  H   H637      1.0  0.39203  0.94156  0.50202  1.0000
  H   H638      1.0  0.41562  0.87686  0.66703  1.0000
  H   H639      1.0  0.36864  0.91810  0.63310  1.0000
  H   H640      1.0  0.41945  0.90328  0.65543  1.0000
  C   C538      1.0  0.13110  0.58044  0.63758  1.0000
  H   H641      1.0  0.39041  0.88852  0.61649  1.0000
  H   H642      1.0  0.13630  0.60495  0.59547  1.0000
  H   H643      1.0  0.18301  0.58026  0.61416  1.0000
  H   H644      1.0  0.13227  0.56362  0.64520  1.0000
  H   H645      1.0  0.12372  0.58114  0.62282  1.0000
  C   C539      1.0  0.24177  0.65214  0.58561  1.0000
  H   H646      1.0  0.25152  0.74969  0.51152  1.0000
  H   H647      1.0  0.23272  0.76999  0.68323  1.0000
  C   C540      1.0  0.15575  0.62678  0.63245  1.0000
  H   H648      1.0  0.16290  0.56722  0.66062  1.0000
  H   H649      1.0  0.15104  0.59302  0.66596  1.0000
  H   H650      1.0  0.25429  0.64449  0.57391  1.0000
  H   H651      1.0  0.26642  0.95768  0.72243  1.0000
  H   H652      1.0  0.34414  0.93568  0.68428  1.0000
  H   H653      1.0  0.08366  0.51979  0.59525  1.0000
  C   C541      1.0  0.28595  0.50964  0.72410  1.0000
  C   C542      1.0  0.08811  0.49829  0.56110  1.0000
  C   C543      1.0  0.19493  0.55136  0.69240  1.0000
  H   H654      1.0  0.09712  0.49157  0.54669  1.0000
  C   C544      1.0  0.35696  0.85622  0.68835  1.0000
  C   C545      1.0  0.43495  0.94979  0.52281  1.0000
  N   N33       1.0  0.22851  0.72786  0.68966  1.0000
  C   C546      1.0  0.20923  0.73613  0.67891  1.0000
  C   C547      1.0  0.24785  0.72825  0.67324  1.0000
  C   C548      1.0  0.22717  0.70537  0.69854  1.0000
  H   H655      1.0  0.24408  0.72489  0.50886  1.0000
  H   H656      1.0  0.24900  0.49508  0.71710  1.0000
  H   H657      1.0  0.21011  0.68125  0.59753  1.0000
  C   C549      1.0  0.27210  0.53916  0.69884  1.0000
  Fe  Fe80      1.0  0.38037  0.96957  0.61598  1.0000
  H   H658      1.0  0.18244  0.65222  0.56438  1.0000
  C   C550      1.0  0.23319  0.79161  0.51255  1.0000
  H   H659      1.0  0.20757  0.72625  0.66667  1.0000
  H   H660      1.0  0.20986  0.75240  0.67024  1.0000
  H   H661      1.0  0.24953  0.74435  0.66463  1.0000
  H   H662      1.0  0.24716  0.71850  0.66059  1.0000
  H   H663      1.0  0.26279  0.72204  0.68051  1.0000
  H   H664      1.0  0.21231  0.70359  0.71013  1.0000
  H   H665      1.0  0.22671  0.69569  0.68572  1.0000
  H   H666      1.0  0.23612  0.53852  0.72753  1.0000
  C   C551      1.0  0.18552  0.54920  0.73087  1.0000
  C   C552      1.0  0.29921  0.52048  0.73304  1.0000
  H   H667      1.0  0.27430  0.98174  0.68945  1.0000
  Fe  Fe81      1.0  0.22462  0.58932  0.73822  1.0000
  H   H668      1.0  0.27155  0.69756  0.49272  1.0000
  C   C553      1.0  0.14102  0.61647  0.60361  1.0000
  H   H669      1.0  0.17793  0.58865  0.65143  1.0000
  H   H670      1.0  0.24170  0.64242  0.60171  1.0000
  C   C554      1.0  0.21745  0.59784  0.57508  1.0000
  H   H671      1.0  0.32808  0.84569  0.68331  1.0000
  C   C555      1.0  0.11954  0.50660  0.57217  1.0000
  H   H672      1.0  0.22715  0.58249  0.57766  1.0000
  C   C556      1.0  0.22467  0.61583  0.57931  1.0000
  H   H673      1.0  0.24143  0.69794  0.70653  1.0000
  N   N34       1.0  0.39037  0.89359  0.64922  1.0000
  C   C557      1.0  0.19265  0.63732  0.56767  1.0000
  C   C558      1.0  0.22805  0.73371  0.72837  1.0000
  H   H674      1.0  0.09737  0.49880  0.61200  1.0000
  C   C559      1.0  0.23173  0.76301  0.69986  1.0000
  H   H675      1.0  0.04859  0.65275  0.50011  1.0000
  C   C560      1.0  0.34032  0.86676  0.65624  1.0000
  C   C561      1.0  0.40705  0.89312  0.66319  1.0000
  C   C562      1.0  0.16148  0.58420  0.65360  1.0000
  S   S158      1.0  0.21185  0.57889  0.71084  1.0000
  H   H676      1.0  0.14120  0.66951  0.59632  1.0000
  C   C563      1.0  0.28805  0.74363  0.72254  1.0000
  C   C564      1.0  0.28321  0.71846  0.51963  1.0000
  C   C565      1.0  0.37306  0.86874  0.67986  1.0000
  C   C566      1.0  0.38066  0.91588  0.64436  1.0000
  C   C567      1.0  0.25445  0.73703  0.50111  1.0000
  C   C568      1.0  0.19808  0.59959  0.56700  1.0000
  C   C569      1.0  0.17061  0.52705  0.71102  1.0000
  C   C570      1.0  0.44686  0.93200  0.49145  1.0000
  C   C571      1.0  0.20488  0.66640  0.59481  1.0000
  C   C572      1.0  0.15268  0.64784  0.62279  1.0000
  H   H677      1.0  0.12968  0.50502  0.58517  1.0000
  H   H678      1.0  0.27308  0.70613  0.52735  1.0000
  H   H679      1.0  0.41484  0.89519  0.62154  1.0000
  H   H680      1.0  0.31222  0.82419  0.51306  1.0000
  H   H681      1.0  0.18854  0.67085  0.59008  1.0000
  S   S159      1.0  0.24235  0.86366  0.70979  1.0000
  C   C573      1.0  0.18217  0.53572  0.69205  1.0000
  C   C574      1.0  0.08826  0.50231  0.59804  1.0000
  C   C575      1.0  0.27311  0.84627  0.50654  1.0000
  H   H682      1.0  0.29911  0.91234  0.73522  1.0000
  H   H683      1.0  0.28387  0.85585  0.51165  1.0000
  C   C576      1.0  0.40135  0.88620  0.62886  1.0000
  C   C577      1.0  0.14982  0.61041  0.62317  1.0000
  H   H684      1.0  0.16909  0.55794  0.62485  1.0000
  H   H685      1.0  0.37265  0.92229  0.65913  1.0000
  H   H686      1.0  0.16058  0.57591  0.60264  1.0000
  H   H687      1.0  0.24351  0.63197  0.69829  1.0000
  H   H688      1.0  0.11384  0.52383  0.56850  1.0000
  H   H689      1.0  0.22741  0.68533  0.55957  1.0000
  C   C578      1.0  0.13807  0.63754  0.59412  1.0000
  S   S160      1.0  0.26061  0.58559  0.73128  1.0000
  H   H690      1.0  0.33260  0.95440  0.73384  1.0000
  H   H691      1.0  0.27898  0.55105  0.70533  1.0000
  H   H692      1.0  0.26574  0.50093  0.69193  1.0000
  H   H693      1.0  0.24709  0.66724  0.58737  1.0000
  C   C579      1.0  0.34065  0.85524  0.67658  1.0000
  C   C580      1.0  0.41367  0.95007  0.52009  1.0000
  N   N35       1.0  0.22023  0.65582  0.57843  1.0000
  H   H694      1.0  0.22631  0.71750  0.73468  1.0000
  C   C581      1.0  0.36219  0.89432  0.73137  1.0000
  S   S161      1.0  0.27548  0.64414  0.71953  1.0000
  N   N36       1.0  0.15236  0.58799  0.63306  1.0000
  H   H695      1.0  0.18119  0.53047  0.67707  1.0000
  H   H696      1.0  0.11956  0.59007  0.64849  1.0000
  N   N37       1.0  0.32166  0.87892  0.59008  1.0000
  C   C582      1.0  0.30833  0.86171  0.59799  1.0000
  C   C583      1.0  0.31736  0.88770  0.56798  1.0000
  C   C584      1.0  0.34454  0.86921  0.58921  1.0000
  C   C585      1.0  0.31741  0.89604  0.60369  1.0000
  C   C586      1.0  0.30169  0.89620  0.62225  1.0000
  C   C587      1.0  0.32944  0.91318  0.59865  1.0000
  C   C588      1.0  0.29900  0.91207  0.63534  1.0000
  C   C589      1.0  0.32665  0.92898  0.61181  1.0000
  C   C590      1.0  0.31156  0.92834  0.63023  1.0000
  H   H697      1.0  0.31215  0.84894  0.58761  1.0000
  H   H698      1.0  0.31111  0.85404  0.61443  1.0000
  H   H699      1.0  0.29086  0.86759  0.59824  1.0000
  H   H700      1.0  0.30057  0.89589  0.56796  1.0000
  H   H701      1.0  0.31976  0.87508  0.55751  1.0000
  H   H702      1.0  0.32824  0.89929  0.55996  1.0000
  H   H703      1.0  0.34863  0.86291  0.60556  1.0000
  H   H704      1.0  0.34817  0.85577  0.57969  1.0000
  H   H705      1.0  0.35578  0.88049  0.58143  1.0000
  H   H706      1.0  0.29133  0.88417  0.62718  1.0000
  H   H707      1.0  0.34111  0.91448  0.58442  1.0000
  H   H708      1.0  0.28705  0.91169  0.64955  1.0000
  H   H709      1.0  0.33621  0.94185  0.60761  1.0000
  H   H710      1.0  0.30941  0.94059  0.64043  1.0000
  C   C591      1.0  0.22965  0.74131  0.70604  1.0000
  C   C592      1.0  0.14378  0.65319  0.60373  1.0000
  C   C593      1.0  0.19649  0.55833  0.71174  1.0000
  H   H711      1.0  0.22077  0.78412  0.52340  1.0000
  H   H712      1.0  0.46807  0.94048  0.51082  1.0000
  C   C594      1.0  0.30714  0.98188  0.69343  1.0000
  H   H713      1.0  0.35680  0.84761  0.70444  1.0000
  C   C595      1.0  0.21261  0.63626  0.57532  1.0000
  N   N38       1.0  0.27750  0.72802  0.49814  1.0000
  H   H714      1.0  0.32737  0.86598  0.64740  1.0000
  H   H715      1.0  0.30502  0.79888  0.51159  1.0000
  H   H716      1.0  0.20351  0.65600  0.61052  1.0000
  H   H717      1.0  0.08338  0.51553  0.55629  1.0000
  H   H718      1.0  0.40799  0.86913  0.63153  1.0000
  H   H719      1.0  0.19281  0.58577  0.56308  1.0000
  N   N39       1.0  0.10135  0.49419  0.57885  1.0000
  H   H720      1.0  0.23380  0.79282  0.70981  1.0000
  C   C596      1.0  0.23220  0.77627  0.71497  1.0000
  N   N40       1.0  0.26646  0.52129  0.71539  1.0000
  C   C597      1.0  0.28553  0.76556  0.72101  1.0000
  H   H721      1.0  0.33938  0.97806  0.70099  1.0000
  H   H722      1.0  0.29000  0.73634  0.70807  1.0000
  C   C598      1.0  0.28239  0.96218  0.71855  1.0000
  C   C599      1.0  0.25123  0.52980  0.73312  1.0000
  C   C600      1.0  0.32329  0.97398  0.70614  1.0000
  C   C601      1.0  0.29169  0.48737  0.72516  1.0000
  H   H723      1.0  0.29569  0.53734  0.73329  1.0000
  H   H724      1.0  0.28405  0.53348  0.68550  1.0000
  C   C602      1.0  0.17252  0.53368  0.73046  1.0000
  C   C603      1.0  0.31912  0.96026  0.72515  1.0000
  C   C604      1.0  0.29844  0.95395  0.73198  1.0000
  C   C605      1.0  0.03650  0.64919  0.49157  1.0000
  C   C606      1.0  0.23045  0.76839  0.73670  1.0000
  S   S162      1.0  0.32857  0.87248  0.73576  1.0000
  C   C607      1.0  0.23503  0.79094  0.49061  1.0000
  H   H725      1.0  0.28028  0.79215  0.73837  1.0000
  H   H726      1.0  0.30476  0.81950  0.48893  1.0000
  H   H727      1.0  0.23533  0.49814  0.82726  1.0000
  H   H728      1.0  0.34258  0.57772  0.93198  1.0000
  H   H729      1.0  0.18649  0.55460  0.74582  1.0000
  Fe  Fe82      1.0  0.38380  0.64138  0.96794  1.0000
  H   H730      1.0  0.16354  0.52711  0.74521  1.0000
  S   S163      1.0  0.37749  0.66648  0.93983  1.0000
  S   S164      1.0  0.19349  0.93711  0.81835  1.0000
  H   H731      1.0  0.26347  0.49621  0.82799  1.0000
  S   S165      1.0  0.37730  0.56492  0.96695  1.0000
  H   H732      1.0  0.19427  0.51820  0.77168  1.0000
  S   S166      1.0  0.41055  0.61406  0.96465  1.0000
  S   S167      1.0  0.15108  0.96452  0.90880  1.0000
  Fe  Fe83      1.0  0.26750  0.71682  0.90250  1.0000
  S   S168      1.0  0.23973  0.70293  0.89535  1.0000
  S   S169      1.0  0.27968  0.70283  0.93384  1.0000
  Fe  Fe84      1.0  0.26747  0.74908  0.86183  1.0000
  S   S170      1.0  0.23999  0.73734  0.85202  1.0000
  S   S171      1.0  0.28320  0.77565  0.84117  1.0000
  Fe  Fe85      1.0  0.22578  0.73696  0.88663  1.0000
  S   S172      1.0  0.19113  0.75180  0.89239  1.0000
  Fe  Fe86      1.0  0.25688  0.70497  0.86159  1.0000
  S   S173      1.0  0.26657  0.68138  0.83799  1.0000
  S   S174      1.0  0.25227  0.75074  0.89596  1.0000
  S   S175      1.0  0.28564  0.71665  0.86937  1.0000
  S   S176      1.0  0.14838  0.97347  0.84864  1.0000
  S   S177      1.0  0.35273  0.51084  0.84465  1.0000
  S   S178      1.0  0.29808  0.50703  0.87197  1.0000
  Fe  Fe87      1.0  0.37683  0.50604  0.86770  1.0000
  S   S179      1.0  0.39252  0.53305  0.87496  1.0000
  H   H733      1.0  0.32554  0.92329  0.75463  1.0000
  H   H734      1.0  0.22666  0.74123  0.76034  1.0000
  H   H735      1.0  0.19883  0.96720  0.77902  1.0000
  H   H736      1.0  0.36727  0.88293  0.74462  1.0000
  C   C608      1.0  0.28665  0.92025  0.74674  1.0000
  Fe  Fe88      1.0  0.25991  0.57465  0.76659  1.0000
  S   S180      1.0  0.22410  0.57644  0.77331  1.0000
  S   S181      1.0  0.28199  0.54512  0.77684  1.0000
  H   H737      1.0  0.25145  0.51504  0.80813  1.0000
  Fe  Fe89      1.0  0.16160  0.81959  0.98781  1.0000
  Fe  Fe90      1.0  0.22534  0.61009  0.77814  1.0000
  S   S182      1.0  0.20824  0.62602  0.80655  1.0000
  C   C609      1.0  0.18578  0.93322  0.91537  1.0000
  S   S183      1.0  0.26132  0.60697  0.77359  1.0000
  H   H738      1.0  0.27845  0.86215  0.97139  1.0000
  H   H739      1.0  0.21220  0.89932  0.88168  1.0000
  S   S184      1.0  0.24221  0.81978  0.75834  1.0000
  Fe  Fe91      1.0  0.25772  0.61841  0.73902  1.0000
  S   S185      1.0  0.22177  0.62325  0.74385  1.0000
  Fe  Fe92      1.0  0.18163  0.96852  0.83047  1.0000
  H   H740      1.0  0.30758  0.92134  0.77908  1.0000
  C   C610      1.0  0.22142  0.91071  0.76564  1.0000
  H   H741      1.0  0.27733  0.62154  0.87402  1.0000
  H   H742      1.0  0.21170  0.90044  0.79909  1.0000
  H   H743      1.0  0.22684  0.89486  0.76198  1.0000
  C   C611      1.0  0.21258  0.91389  0.78667  1.0000
  H   H744      1.0  0.29164  0.75094  0.80132  1.0000
  H   H745      1.0  0.25562  0.74634  0.79556  1.0000
  C   C612      1.0  0.25722  0.59182  0.86183  1.0000
  C   C613      1.0  0.27400  0.60488  0.82695  1.0000
  C   C614      1.0  0.16455  0.94133  0.92252  1.0000
  H   H746      1.0  0.34964  0.58623  0.90433  1.0000
  C   C615      1.0  0.21438  0.94830  0.75422  1.0000
  C   C616      1.0  0.29310  0.51809  0.84571  1.0000
  C   C617      1.0  0.30631  0.51060  0.82805  1.0000
  C   C618      1.0  0.30314  0.51971  0.80717  1.0000
  C   C619      1.0  0.28647  0.53626  0.80357  1.0000
  C   C620      1.0  0.27283  0.54370  0.82115  1.0000
  C   C621      1.0  0.27602  0.53441  0.84222  1.0000
  H   H747      1.0  0.31496  0.73596  0.78820  1.0000
  H   H748      1.0  0.31360  0.51363  0.79373  1.0000
  H   H749      1.0  0.25951  0.55608  0.81849  1.0000
  H   H750      1.0  0.26528  0.53971  0.85581  1.0000
  H   H751      1.0  0.27178  0.93968  0.78178  1.0000
  H   H752      1.0  0.24697  0.51694  0.74603  1.0000
  H   H753      1.0  0.26118  0.72079  0.81070  1.0000
  C   C622      1.0  0.27139  0.78870  0.81855  1.0000
  C   C623      1.0  0.25174  0.78422  0.81475  1.0000
  C   C624      1.0  0.24283  0.79408  0.79636  1.0000
  C   C625      1.0  0.25339  0.80876  0.78170  1.0000
  C   C626      1.0  0.27288  0.81368  0.78556  1.0000
  C   C627      1.0  0.28187  0.80362  0.80398  1.0000
  H   H754      1.0  0.24318  0.77334  0.82599  1.0000
  H   H755      1.0  0.22772  0.79030  0.79346  1.0000
  H   H756      1.0  0.28117  0.82498  0.77421  1.0000
  H   H757      1.0  0.29708  0.80726  0.80680  1.0000
  C   C628      1.0  0.24780  0.66958  0.82820  1.0000
  C   C629      1.0  0.22858  0.66490  0.84077  1.0000
  C   C630      1.0  0.21597  0.65211  0.83375  1.0000
  C   C631      1.0  0.22222  0.64454  0.81391  1.0000
  C   C632      1.0  0.24052  0.65071  0.80076  1.0000
  C   C633      1.0  0.25358  0.66261  0.80813  1.0000
  H   H758      1.0  0.22401  0.67017  0.85633  1.0000
  H   H759      1.0  0.20166  0.64763  0.84391  1.0000
  H   H760      1.0  0.24489  0.64600  0.78502  1.0000
  H   H761      1.0  0.26839  0.66607  0.79832  1.0000
  C   C634      1.0  0.18530  0.90458  0.94555  1.0000
  C   C635      1.0  0.16395  0.91246  0.95254  1.0000
  C   C636      1.0  0.15369  0.93084  0.94114  1.0000
  H   H762      1.0  0.27964  0.82424  0.98300  1.0000
  H   H763      1.0  0.35702  0.72329  0.94077  1.0000
  C   C637      1.0  0.15935  0.79015  0.94649  1.0000
  C   C638      1.0  0.14743  0.78439  0.93235  1.0000
  C   C639      1.0  0.15759  0.77281  0.91593  1.0000
  C   C640      1.0  0.17981  0.76644  0.91355  1.0000
  C   C641      1.0  0.19201  0.77232  0.92751  1.0000
  C   C642      1.0  0.18177  0.78433  0.94393  1.0000
  H   H764      1.0  0.13014  0.78867  0.93425  1.0000
  H   H765      1.0  0.14805  0.76832  0.90527  1.0000
  H   H766      1.0  0.20920  0.76742  0.92582  1.0000
  H   H767      1.0  0.19110  0.78855  0.95491  1.0000
  C   C643      1.0  0.38228  0.55646  0.94118  1.0000
  C   C644      1.0  0.39469  0.56657  0.92356  1.0000
  C   C645      1.0  0.39763  0.55932  0.90339  1.0000
  C   C646      1.0  0.38813  0.54201  0.90054  1.0000
  C   C647      1.0  0.37561  0.53211  0.91814  1.0000
  C   C648      1.0  0.37285  0.53918  0.93829  1.0000
  H   H768      1.0  0.40220  0.57981  0.92552  1.0000
  H   H769      1.0  0.40743  0.56710  0.88995  1.0000
  H   H770      1.0  0.36802  0.51893  0.91638  1.0000
  H   H771      1.0  0.36314  0.53128  0.95174  1.0000
  H   H772      1.0  0.21269  0.90917  0.92148  1.0000
  C   C649      1.0  0.35014  0.67536  0.93754  1.0000
  C   C650      1.0  0.33423  0.67152  0.95495  1.0000
  C   C651      1.0  0.31263  0.67941  0.95326  1.0000
  C   C652      1.0  0.30673  0.69144  0.93427  1.0000
  C   C653      1.0  0.32253  0.69494  0.91663  1.0000
  C   C654      1.0  0.34422  0.68692  0.91829  1.0000
  H   H773      1.0  0.33862  0.66327  0.97005  1.0000
  H   H774      1.0  0.30050  0.67656  0.96688  1.0000
  H   H775      1.0  0.31815  0.70427  0.90193  1.0000
  H   H776      1.0  0.35647  0.68999  0.90477  1.0000
  C   C655      1.0  0.19613  0.91504  0.92693  1.0000
  S   S186      1.0  0.19766  0.97290  0.85795  1.0000
  H   H777      1.0  0.36656  0.60467  0.93683  1.0000
  C   C656      1.0  0.30776  0.72247  0.98650  1.0000
  C   C657      1.0  0.44071  0.48787  0.87407  1.0000
  N   N41       1.0  0.14624  0.85998  0.91856  1.0000
  C   C658      1.0  0.16637  0.85218  0.92794  1.0000
  C   C659      1.0  0.13092  0.87181  0.93410  1.0000
  C   C660      1.0  0.13651  0.84135  0.91602  1.0000
  C   C661      1.0  0.15106  0.87393  0.89808  1.0000
  C   C662      1.0  0.15003  0.86810  0.87773  1.0000
  C   C663      1.0  0.15732  0.89396  0.89803  1.0000
  C   C664      1.0  0.15404  0.88198  0.85878  1.0000
  C   C665      1.0  0.16108  0.90778  0.87904  1.0000
  C   C666      1.0  0.15932  0.90186  0.85946  1.0000
  H   H778      1.0  0.16338  0.84177  0.94351  1.0000
  H   H779      1.0  0.17819  0.84279  0.91710  1.0000
  H   H780      1.0  0.17413  0.86532  0.93115  1.0000
  H   H781      1.0  0.25758  0.63201  0.85655  1.0000
  H   H782      1.0  0.13805  0.88420  0.93956  1.0000
  C   C667      1.0  0.20544  0.95151  0.77536  1.0000
  H   H783      1.0  0.14804  0.83010  0.90683  1.0000
  H   H784      1.0  0.13157  0.83201  0.93177  1.0000
  H   H785      1.0  0.12176  0.84618  0.90814  1.0000
  H   H786      1.0  0.14597  0.85300  0.87601  1.0000
  H   H787      1.0  0.15936  0.89913  0.91270  1.0000
  H   H788      1.0  0.15295  0.87744  0.84340  1.0000
  H   H789      1.0  0.16547  0.92320  0.87946  1.0000
  H   H790      1.0  0.16227  0.91264  0.84476  1.0000
  C   C668      1.0  0.30986  0.64335  0.91135  1.0000
  C   C669      1.0  0.30143  0.65794  0.89508  1.0000
  C   C670      1.0  0.32717  0.64155  0.86847  1.0000
  C   C671      1.0  0.31005  0.65705  0.87371  1.0000
  H   H791      1.0  0.28841  0.67035  0.89918  1.0000
  H   H792      1.0  0.33413  0.64120  0.85185  1.0000
  H   H793      1.0  0.30364  0.66865  0.86124  1.0000
  N   N42       1.0  0.21636  0.82055  0.86191  1.0000
  C   C672      1.0  0.23770  0.80831  0.86509  1.0000
  C   C673      1.0  0.19956  0.80976  0.87640  1.0000
  C   C674      1.0  0.21299  0.81989  0.83953  1.0000
  C   C675      1.0  0.21542  0.84227  0.86691  1.0000
  C   C676      1.0  0.21318  0.86053  0.85124  1.0000
  C   C677      1.0  0.21698  0.84564  0.88803  1.0000
  C   C678      1.0  0.21209  0.88080  0.85665  1.0000
  C   C679      1.0  0.21570  0.86600  0.89329  1.0000
  C   C680      1.0  0.21322  0.88353  0.87762  1.0000
  H   H794      1.0  0.24103  0.80679  0.88187  1.0000
  H   H795      1.0  0.23905  0.79190  0.86135  1.0000
  H   H796      1.0  0.25091  0.81577  0.85449  1.0000
  H   H797      1.0  0.19916  0.79376  0.87229  1.0000
  H   H798      1.0  0.18331  0.81895  0.87542  1.0000
  H   H799      1.0  0.20234  0.80704  0.89344  1.0000
  H   H800      1.0  0.22611  0.82609  0.82762  1.0000
  H   H801      1.0  0.21291  0.80343  0.83656  1.0000
  H   H802      1.0  0.19727  0.82896  0.83591  1.0000
  H   H803      1.0  0.21233  0.85967  0.83464  1.0000
  H   H804      1.0  0.21930  0.83250  0.90064  1.0000
  H   H805      1.0  0.21026  0.89457  0.84448  1.0000
  H   H806      1.0  0.21674  0.86825  0.90958  1.0000
  C   C681      1.0  0.31623  0.59771  0.84440  1.0000
  S   S187      1.0  0.35793  0.62132  0.98075  1.0000
  H   H807      1.0  0.26939  0.71339  0.98176  1.0000
  H   H808      1.0  0.40339  0.49467  0.90178  1.0000
  N   N43       1.0  0.29340  0.93940  0.75196  1.0000
  H   H809      1.0  0.28555  0.61493  0.81713  1.0000
  H   H810      1.0  0.24161  0.60175  0.85893  1.0000
  C   C682      1.0  0.20770  0.50549  0.77137  1.0000
  H   H811      1.0  0.29327  0.69572  0.79902  1.0000
  C   C683      1.0  0.22203  0.50280  0.78639  1.0000
  H   H812      1.0  0.27868  0.49903  0.77964  1.0000
  C   C684      1.0  0.32307  0.73282  0.94908  1.0000
  H   H813      1.0  0.43522  0.50343  0.91264  1.0000
  Fe  Fe93      1.0  0.33297  0.49223  0.87081  1.0000
  C   C685      1.0  0.29917  0.56931  0.86640  1.0000
  H   H814      1.0  0.23072  0.77882  0.74834  1.0000
  C   C686      1.0  0.25111  0.49880  0.81693  1.0000
  H   H815      1.0  0.32640  0.51845  0.74982  1.0000
  H   H816      1.0  0.43202  0.50301  0.87752  1.0000
  C   C687      1.0  0.22834  0.74718  0.74338  1.0000
  H   H817      1.0  0.27701  0.58942  0.82069  1.0000
  H   H818      1.0  0.31760  0.94582  0.76919  1.0000
  S   S188      1.0  0.19562  0.82513  0.97872  1.0000
  N   N44       1.0  0.27584  0.60198  0.85016  1.0000
  H   H819      1.0  0.31896  0.49753  0.83041  1.0000
  N   N45       1.0  0.28489  0.72754  0.78335  1.0000
  C   C688      1.0  0.26241  0.72959  0.79416  1.0000
  C   C689      1.0  0.29271  0.70471  0.78263  1.0000
  C   C690      1.0  0.29837  0.73511  0.79671  1.0000
  H   H820      1.0  0.25769  0.61263  0.82364  1.0000
  H   H821      1.0  0.27991  0.77085  0.77343  1.0000
  C   C691      1.0  0.29696  0.58961  0.85386  1.0000
  H   H822      1.0  0.21879  0.51388  0.79786  1.0000
  H   H823      1.0  0.25185  0.72317  0.78531  1.0000
  C   C692      1.0  0.34633  0.71355  0.97407  1.0000
  H   H824      1.0  0.35095  0.59254  0.83972  1.0000
  H   H825      1.0  0.28183  0.69710  0.77525  1.0000
  H   H826      1.0  0.45010  0.50061  0.84119  1.0000
  H   H827      1.0  0.29954  0.72464  0.81229  1.0000
  H   H828      1.0  0.30923  0.70225  0.77367  1.0000
  H   H829      1.0  0.25747  0.58923  0.87947  1.0000
  H   H830      1.0  0.32172  0.58698  0.91548  1.0000
  C   C693      1.0  0.20459  0.93426  0.79163  1.0000
  H   H831      1.0  0.34929  0.61538  0.87984  1.0000
  H   H832      1.0  0.30273  0.64543  0.92755  1.0000
  H   H833      1.0  0.15549  0.90467  0.96695  1.0000
  C   C694      1.0  0.22252  0.92787  0.74934  1.0000
  H   H834      1.0  0.27944  0.96499  0.76980  1.0000
  C   C695      1.0  0.33570  0.62683  0.88460  1.0000
  S   S189      1.0  0.26735  0.87316  0.74804  1.0000
  H   H835      1.0  0.32076  0.54230  0.87840  1.0000
  S   S190      1.0  0.19917  0.88187  0.95956  1.0000
  C   C696      1.0  0.32721  0.62717  0.90656  1.0000
  C   C697      1.0  0.27551  0.94993  0.76625  1.0000
  C   C698      1.0  0.33800  0.56645  0.85978  1.0000
  C   C699      1.0  0.33767  0.58980  0.91847  1.0000
  C   C700      1.0  0.33641  0.58627  0.84740  1.0000
  H   H836      1.0  0.32480  0.62806  0.95068  1.0000
  C   C701      1.0  0.28557  0.74027  0.76181  1.0000
  H   H837      1.0  0.28507  0.63327  0.84693  1.0000
  C   C702      1.0  0.28258  0.76265  0.75961  1.0000
  N   N46       1.0  0.33679  0.61162  0.92334  1.0000
  C   C703      1.0  0.35894  0.61558  0.92392  1.0000
  H   H838      1.0  0.35904  0.63201  0.92698  1.0000
  H   H839      1.0  0.35364  0.55740  0.86172  1.0000
  H   H840      1.0  0.28363  0.90848  0.76126  1.0000
  H   H841      1.0  0.28978  0.73859  0.96064  1.0000
  C   C704      1.0  0.31944  0.55801  0.86924  1.0000
  H   H842      1.0  0.13731  0.93704  0.94685  1.0000
  C   C705      1.0  0.32463  0.61264  0.94516  1.0000
  C   C706      1.0  0.31688  0.50977  0.74264  1.0000
  H   H843      1.0  0.30767  0.61011  0.94578  1.0000
  H   H844      1.0  0.28557  0.56152  0.87387  1.0000
  H   H845      1.0  0.36968  0.61343  0.90864  1.0000
  H   H846      1.0  0.33185  0.60029  0.95731  1.0000
  H   H847      1.0  0.25681  0.57651  0.85631  1.0000
  H   H848      1.0  0.19438  0.94118  0.90116  1.0000
  C   C707      1.0  0.27397  0.62302  0.85722  1.0000
  Fe  Fe94      1.0  0.38467  0.59415  0.97875  1.0000
  H   H849      1.0  0.12580  0.86125  0.94904  1.0000
  H   H850      1.0  0.31576  0.61281  0.83430  1.0000
  H   H851      1.0  0.11624  0.87954  0.92701  1.0000
  S   S191      1.0  0.14510  0.80465  0.96682  1.0000
  H   H852      1.0  0.28980  0.71422  0.74257  1.0000
  C   C708      1.0  0.43821  0.48720  0.92154  1.0000
  H   H853      1.0  0.32075  0.73969  0.93282  1.0000
  C   C709      1.0  0.31189  0.93228  0.76420  1.0000
  H   H854      1.0  0.21475  0.96157  0.74156  1.0000
  H   H855      1.0  0.26026  0.95359  0.75911  1.0000
  H   H856      1.0  0.27161  0.92380  0.73943  1.0000
  C   C710      1.0  0.23993  0.48640  0.78621  1.0000
  C   C711      1.0  0.27755  0.48374  0.79033  1.0000
  C   C712      1.0  0.45109  0.48668  0.85317  1.0000
  H   H857      1.0  0.19963  0.49442  0.74410  1.0000
  H   H858      1.0  0.43044  0.48832  0.93834  1.0000
  Fe  Fe95      1.0  0.18349  0.85830  0.98523  1.0000
  C   C713      1.0  0.34349  0.72354  0.95350  1.0000
  C   C714      1.0  0.30541  0.73218  0.96523  1.0000
  C   C715      1.0  0.28798  0.73107  0.74259  1.0000
  C   C716      1.0  0.21066  0.49205  0.75585  1.0000
  H   H859      1.0  0.24664  0.84228  0.97447  1.0000
  H   H860      1.0  0.36214  0.70561  0.97717  1.0000
  S   S192      1.0  0.35640  0.48881  0.89453  1.0000
  Fe  Fe96      1.0  0.16439  0.97951  0.87543  1.0000
  H   H861      1.0  0.26214  0.88098  0.98693  1.0000
  C   C717      1.0  0.32208  0.48799  0.74341  1.0000
  C   C718      1.0  0.28270  0.77504  0.73953  1.0000
  H   H862      1.0  0.25810  0.54096  0.74067  1.0000
  H   H863      1.0  0.23144  0.86255  0.98841  1.0000
  H   H864      1.0  0.49180  0.61977  0.98846  1.0000
  C   C719      1.0  0.27265  0.86543  0.98812  1.0000
  H   H865      1.0  0.70324  0.42628  0.04935  1.0000
  S   S193      1.0  0.67881  0.44632  0.17528  1.0000
  H   H866      1.0  0.62589  0.34773  0.11275  1.0000
  H   H867      1.0  0.87021  0.01279  0.07891  1.0000
  H   H868      1.0  0.81080  0.20905  0.18332  1.0000
  H   H869      1.0  0.78844  0.21507  0.20278  1.0000
  H   H870      1.0  0.64398  0.36034  0.13602  1.0000
  Fe  Fe97      1.0  0.86565  0.01353  0.14807  1.0000
  S   S194      1.0  0.88560  0.00932  0.17509  1.0000
  S   S195      1.0  0.87816  0.03574  0.11883  1.0000
  H   H871      1.0  0.60471  0.44191  0.00009  1.0000
  C   C720      1.0  0.87427  0.02377  0.06464  1.0000
  Fe  Fe98      1.0  0.85379  0.01155  0.19626  1.0000
  C   C721      1.0  0.62963  0.37607  0.07706  1.0000
  H   H872      1.0  0.81161  0.19752  0.21087  1.0000
  S   S196      1.0  0.83375  0.01756  0.16933  1.0000
  Fe  Fe99      1.0  0.86179  0.16964  0.03444  1.0000
  S   S197      1.0  0.82767  0.16404  0.03822  1.0000
  S   S198      1.0  0.87381  0.18332  0.05981  1.0000
  H   H873      1.0  0.74590  0.46488  0.12892  1.0000
  S   S199      1.0  0.69001  0.45998  0.07488  1.0000
  C   C722      1.0  0.89902  0.04619  0.04336  1.0000
  H   H874      1.0  0.78892  0.47437  0.22776  1.0000
  H   H875      1.0  0.74110  0.47421  0.19070  1.0000
  Fe  Fe100     1.0  0.84183  0.13113  0.03201  1.0000
  S   S200      1.0  0.82813  0.10322  0.05303  1.0000
  Fe  Fe101     1.0  0.83087  0.17280  0.00238  1.0000
  S   S201      1.0  0.87599  0.13619  0.03009  1.0000
  Fe  Fe102     1.0  0.75492  0.28324  0.15482  1.0000
  S   S202      1.0  0.72700  0.27386  0.14274  1.0000
  S   S203      1.0  0.74576  0.31391  0.16922  1.0000
  Fe  Fe103     1.0  0.78604  0.24627  0.13749  1.0000
  S   S204      1.0  0.76066  0.23487  0.12388  1.0000
  S   S205      1.0  0.81885  0.22674  0.13755  1.0000
  Fe  Fe104     1.0  0.75002  0.26914  0.11288  1.0000
  S   S206      1.0  0.74433  0.28236  0.07892  1.0000
  Fe  Fe105     1.0  0.74036  0.24070  0.15512  1.0000
  S   S207      1.0  0.72211  0.21454  0.17211  1.0000
  S   S208      1.0  0.77732  0.28035  0.12405  1.0000
  S   S209      1.0  0.76638  0.25024  0.16965  1.0000
  Fe  Fe106     1.0  0.64955  0.38414  0.00775  1.0000
  S   S210      1.0  0.62381  0.36312  0.01629  1.0000
  S   S211      1.0  0.63879  0.41547  0.02084  1.0000
  S   S212      1.0  0.65043  0.47042  0.12648  1.0000
  H   H876      1.0  0.63956  0.33561  0.09031  1.0000
  Fe  Fe107     1.0  0.65110  0.33732  0.02319  1.0000
  S   S213      1.0  0.65087  0.31533  0.05444  1.0000
  S   S214      1.0  0.67630  0.35874  0.01647  1.0000
  C   C723      1.0  0.71813  0.29223  0.07321  1.0000
  C   C724      1.0  0.69993  0.28873  0.08809  1.0000
  C   C725      1.0  0.67926  0.29587  0.08231  1.0000
  C   C726      1.0  0.67677  0.30635  0.06162  1.0000
  C   C727      1.0  0.69502  0.30989  0.04690  1.0000
  C   C728      1.0  0.71558  0.30318  0.05279  1.0000
  H   H877      1.0  0.70173  0.28011  0.10384  1.0000
  H   H878      1.0  0.66520  0.29290  0.09373  1.0000
  H   H879      1.0  0.69338  0.31731  0.03073  1.0000
  H   H880      1.0  0.72955  0.30613  0.04124  1.0000
  H   H881      1.0  0.81268  0.11816  0.09397  1.0000
  H   H882      1.0  0.80637  0.14601  0.08596  1.0000
  H   H883      1.0  0.72762  0.24064  0.20318  1.0000
  H   H884      1.0  0.85213  0.05145  0.02211  1.0000
  C   C729      1.0  0.85702  0.19501  0.08093  1.0000
  C   C730      1.0  0.83564  0.20434  0.07964  1.0000
  C   C731      1.0  0.82351  0.21434  0.09682  1.0000
  C   C732      1.0  0.83271  0.21465  0.11534  1.0000
  C   C733      1.0  0.85379  0.20477  0.11666  1.0000
  C   C734      1.0  0.86589  0.19524  0.09954  1.0000
  H   H885      1.0  0.82871  0.20438  0.06524  1.0000
  H   H886      1.0  0.80722  0.22194  0.09564  1.0000
  H   H887      1.0  0.86105  0.20497  0.13082  1.0000
  H   H888      1.0  0.88238  0.18821  0.10064  1.0000
  H   H889      1.0  0.90524  0.02563  0.07259  1.0000
  C   C735      1.0  0.64646  0.37601  0.12831  1.0000
  H   H890      1.0  0.57653  0.44988  0.99981  1.0000
  C   C736      1.0  0.64813  0.38186  0.10566  1.0000
  H   H891      1.0  0.65437  0.33751  0.11106  1.0000
  C   C737      1.0  0.71965  0.18920  0.21085  1.0000
  C   C738      1.0  0.86424  0.04618  0.03260  1.0000
  N   N47       1.0  0.64662  0.36703  0.09074  1.0000
  C   C739      1.0  0.72236  0.20938  0.20000  1.0000
  C   C740      1.0  0.72633  0.22036  0.23362  1.0000
  H   H892      1.0  0.71693  0.17713  0.20210  1.0000
  H   H893      1.0  0.66720  0.35173  0.06577  1.0000
  H   H894      1.0  0.84207  0.15442  0.08033  1.0000
  C   C741      1.0  0.84195  0.08536  0.07215  1.0000
  C   C742      1.0  0.86377  0.08521  0.07305  1.0000
  C   C743      1.0  0.87438  0.07029  0.08788  1.0000
  C   C744      1.0  0.86334  0.05543  0.10207  1.0000
  C   C745      1.0  0.84138  0.05595  0.10161  1.0000
  C   C746      1.0  0.83079  0.07077  0.08662  1.0000
  H   H895      1.0  0.87261  0.09632  0.06214  1.0000
  H   H896      1.0  0.89137  0.06999  0.08811  1.0000
  H   H897      1.0  0.83269  0.04460  0.11243  1.0000
  H   H898      1.0  0.81390  0.07079  0.08610  1.0000
  H   H899      1.0  0.85709  0.15522  0.15803  1.0000
  C   C747      1.0  0.79591  0.08416  0.23533  1.0000
  H   H900      1.0  0.71053  0.47504  0.17074  1.0000
  H   H901      1.0  0.81544  0.04879  0.20015  1.0000
  N   N48       1.0  0.88860  0.07062  0.00996  1.0000
  C   C748      1.0  0.81431  0.05689  0.21391  1.0000
  C   C749      1.0  0.75863  0.31991  0.18955  1.0000
  C   C750      1.0  0.74805  0.33542  0.20213  1.0000
  C   C751      1.0  0.75837  0.34179  0.21740  1.0000
  C   C752      1.0  0.77962  0.33314  0.21973  1.0000
  C   C753      1.0  0.79006  0.31734  0.20743  1.0000
  C   C754      1.0  0.77957  0.31064  0.19247  1.0000
  H   H902      1.0  0.73177  0.34252  0.20009  1.0000
  H   H903      1.0  0.80647  0.31050  0.20919  1.0000
  H   H904      1.0  0.78789  0.29872  0.18281  1.0000
  C   C755      1.0  0.67530  0.44742  0.06048  1.0000
  C   C756      1.0  0.65327  0.45349  0.05987  1.0000
  C   C757      1.0  0.64236  0.44353  0.04767  1.0000
  C   C758      1.0  0.65324  0.42715  0.03628  1.0000
  C   C759      1.0  0.67517  0.42071  0.03730  1.0000
  C   C760      1.0  0.68616  0.43095  0.04916  1.0000
  H   H905      1.0  0.64472  0.46615  0.06845  1.0000
  H   H906      1.0  0.62541  0.44864  0.04702  1.0000
  H   H907      1.0  0.68380  0.40829  0.02845  1.0000
  C   C761      1.0  0.79780  0.07375  0.21734  1.0000
  C   C762      1.0  0.70023  0.44677  0.18938  1.0000
  C   C763      1.0  0.70409  0.43081  0.20649  1.0000
  C   C764      1.0  0.72085  0.43082  0.21827  1.0000
  C   C765      1.0  0.73423  0.44647  0.21274  1.0000
  C   C766      1.0  0.73061  0.46227  0.19538  1.0000
  C   C767      1.0  0.71343  0.46262  0.18390  1.0000
  H   H908      1.0  0.69377  0.41867  0.21096  1.0000
  C   C768      1.0  0.64141  0.34613  0.10185  1.0000
  C   C769      1.0  0.66743  0.36347  0.07667  1.0000
  N   N49       1.0  0.74687  0.24402  0.02744  1.0000
  C   C770      1.0  0.72994  0.24401  0.04636  1.0000
  C   C771      1.0  0.75961  0.22258  0.02849  1.0000
  H   H909      1.0  0.87425  0.10140  0.99631  1.0000
  C   C772      1.0  0.73675  0.25066  0.00760  1.0000
  C   C773      1.0  0.77989  0.18978  0.17575  1.0000
  C   C774      1.0  0.85940  0.03125  0.05043  1.0000
  C   C775      1.0  0.72079  0.18445  0.23294  1.0000
  C   C776      1.0  0.82671  0.16879  0.17403  1.0000
  C   C777      1.0  0.84344  0.15235  0.17013  1.0000
  H   H910      1.0  0.85543  0.08364  0.00619  1.0000
  H   H911      1.0  0.73691  0.23959  0.06169  1.0000
  H   H912      1.0  0.77010  0.25407  0.04346  1.0000
  C   C778      1.0  0.87053  0.08829  0.00928  1.0000
  H   H913      1.0  0.76738  0.21826  0.04334  1.0000
  S   S215      1.0  0.84923  0.02850  0.22538  1.0000
  H   H914      1.0  0.76643  0.16608  0.21153  1.0000
  H   H915      1.0  0.90742  0.08734  0.02490  1.0000
  H   H916      1.0  0.74940  0.21018  0.02857  1.0000
  H   H917      1.0  0.85563  0.11956  0.17874  1.0000
  S   S216      1.0  0.75541  0.44653  0.22746  1.0000
  N   N50       1.0  0.82809  0.13721  0.10974  1.0000
  C   C779      1.0  0.82518  0.12860  0.19735  1.0000
  H   H918      1.0  0.84384  0.02582  0.05356  1.0000
  H   H919      1.0  0.63344  0.39061  0.06618  1.0000
  H   H920      1.0  0.62747  0.36479  0.06636  1.0000
  C   C780      1.0  0.83316  0.11910  0.12643  1.0000
  C   C781      1.0  0.81748  0.11413  0.14428  1.0000
  C   C782      1.0  0.85310  0.10543  0.12514  1.0000
  C   C783      1.0  0.82146  0.09656  0.15974  1.0000
  C   C784      1.0  0.85689  0.08788  0.14071  1.0000
  C   C785      1.0  0.84111  0.08342  0.15793  1.0000
  H   H921      1.0  0.81757  0.17076  0.10727  1.0000
  H   H922      1.0  0.80858  0.15656  0.13250  1.0000
  H   H923      1.0  0.80184  0.12361  0.14626  1.0000
  H   H924      1.0  0.86589  0.10760  0.11200  1.0000
  H   H925      1.0  0.80917  0.09300  0.17311  1.0000
  H   H926      1.0  0.87199  0.07728  0.13909  1.0000
  H   H927      1.0  0.84406  0.06961  0.16977  1.0000
  N   N51       1.0  0.77814  0.39518  0.17898  1.0000
  C   C786      1.0  0.77608  0.37600  0.16996  1.0000
  C   C787      1.0  0.80110  0.39411  0.18156  1.0000
  C   C788      1.0  0.76554  0.39467  0.20065  1.0000
  C   C789      1.0  0.76975  0.41434  0.16506  1.0000
  C   C790      1.0  0.78222  0.43072  0.15597  1.0000
  C   C791      1.0  0.74827  0.41720  0.16054  1.0000
  C   C792      1.0  0.77364  0.44866  0.14302  1.0000
  C   C793      1.0  0.73993  0.43511  0.14744  1.0000
  C   C794      1.0  0.75257  0.45082  0.13873  1.0000
  H   H928      1.0  0.78399  0.37657  0.15304  1.0000
  H   H929      1.0  0.78361  0.36132  0.17921  1.0000
  H   H930      1.0  0.75905  0.37390  0.17031  1.0000
  H   H931      1.0  0.81167  0.39416  0.16586  1.0000
  H   H932      1.0  0.80686  0.37937  0.19199  1.0000
  H   H933      1.0  0.80359  0.40744  0.18950  1.0000
  H   H934      1.0  0.74841  0.39312  0.20070  1.0000
  H   H935      1.0  0.77218  0.38125  0.21202  1.0000
  H   H936      1.0  0.76582  0.40937  0.20740  1.0000
  H   H937      1.0  0.79856  0.43021  0.15879  1.0000
  H   H938      1.0  0.73756  0.40584  0.16752  1.0000
  H   H939      1.0  0.78327  0.46112  0.13642  1.0000
  H   H940      1.0  0.72331  0.43724  0.14463  1.0000
  H   H941      1.0  0.74992  0.35356  0.22714  1.0000
  H   H942      1.0  0.75315  0.27511  0.03074  1.0000
  H   H943      1.0  0.65210  0.42243  0.14390  1.0000
  C   C795      1.0  0.64787  0.39056  0.14184  1.0000
  H   H944      1.0  0.82786  0.18400  0.16432  1.0000
  C   C796      1.0  0.73784  0.23712  0.99186  1.0000
  C   C797      1.0  0.80113  0.20199  0.19801  1.0000
  H   H945      1.0  0.76395  0.19237  0.21716  1.0000
  C   C798      1.0  0.82232  0.15709  0.11938  1.0000
  C   C799      1.0  0.82905  0.05033  0.22851  1.0000
  H   H946      1.0  0.74615  0.22114  0.99343  1.0000
  C   C800      1.0  0.58731  0.40856  0.99688  1.0000
  H   H947      1.0  0.79043  0.19523  0.16090  1.0000
  H   H948      1.0  0.72320  0.28233  0.01499  1.0000
  C   C801      1.0  0.76167  0.25898  0.02904  1.0000
  C   C802      1.0  0.67097  0.47412  0.22623  1.0000
  H   H949      1.0  0.65367  0.40832  0.08060  1.0000
  H   H950      1.0  0.77236  0.17648  0.17257  1.0000
  N   N52       1.0  0.73399  0.34437  0.10379  1.0000
  C   C803      1.0  0.72150  0.32725  0.11451  1.0000
  C   C804      1.0  0.73606  0.34411  0.08027  1.0000
  C   C805      1.0  0.75595  0.33944  0.10991  1.0000
  C   C806      1.0  0.72352  0.36482  0.11067  1.0000
  C   C807      1.0  0.71759  0.38300  0.09592  1.0000
  C   C808      1.0  0.71953  0.36716  0.13280  1.0000
  C   C809      1.0  0.70839  0.40223  0.10302  1.0000
  C   C810      1.0  0.71007  0.38641  0.13970  1.0000
  C   C811      1.0  0.70464  0.40394  0.12482  1.0000
  H   H951      1.0  0.70463  0.33061  0.11104  1.0000
  H   H952      1.0  0.72867  0.31183  0.10911  1.0000
  H   H953      1.0  0.72111  0.32462  0.13222  1.0000
  H   H954      1.0  0.72012  0.34727  0.07450  1.0000
  H   H955      1.0  0.74377  0.32840  0.07577  1.0000
  H   H956      1.0  0.74638  0.35573  0.07109  1.0000
  H   H957      1.0  0.75576  0.33721  0.12759  1.0000
  H   H958      1.0  0.76468  0.32452  0.10434  1.0000
  H   H959      1.0  0.76566  0.35229  0.10288  1.0000
  H   H960      1.0  0.72005  0.38293  0.07879  1.0000
  H   H961      1.0  0.72381  0.35410  0.14497  1.0000
  H   H962      1.0  0.70411  0.41601  0.09156  1.0000
  H   H963      1.0  0.70688  0.38780  0.15668  1.0000
  H   H964      1.0  0.69735  0.41890  0.13017  1.0000
  H   H965      1.0  0.64643  0.38591  0.15907  1.0000
  C   C812      1.0  0.65103  0.41118  0.13335  1.0000
  S   S217      1.0  0.86444  0.18084  0.99887  1.0000
  C   C813      1.0  0.65312  0.41725  0.11125  1.0000
  S   S218      1.0  0.69919  0.48280  0.12386  1.0000
  H   H966      1.0  0.65592  0.43320  0.10458  1.0000
  H   H967      1.0  0.72021  0.25980  0.04725  1.0000
  C   C814      1.0  0.65179  0.40285  0.09760  1.0000
  H   H968      1.0  0.83618  0.16084  0.12594  1.0000
  H   H969      1.0  0.68077  0.35747  0.08629  1.0000
  H   H970      1.0  0.85042  0.12667  0.08303  1.0000
  Fe  Fe108     1.0  0.67258  0.47365  0.14930  1.0000
  Fe  Fe109     1.0  0.87510  0.14670  0.99475  1.0000
  C   C815      1.0  0.84269  0.13231  0.18180  1.0000
  C   C816      1.0  0.72579  0.22495  0.21140  1.0000
  H   H971      1.0  0.78388  0.17296  0.22832  1.0000
  N   N53       1.0  0.79173  0.18353  0.19448  1.0000
  C   C817      1.0  0.80959  0.13377  0.09991  1.0000
  H   H972      1.0  0.72303  0.41894  0.23191  1.0000
  H   H973      1.0  0.86074  0.14315  0.09830  1.0000
  C   C818      1.0  0.84618  0.14033  0.09219  1.0000
  H   H974      1.0  0.82452  0.11294  0.20636  1.0000
  S   S219      1.0  0.84141  0.13928  0.99631  1.0000
  H   H975      1.0  0.79448  0.13412  0.11139  1.0000
  H   H976      1.0  0.61390  0.38018  0.08700  1.0000
  H   H977      1.0  0.67141  0.37817  0.06616  1.0000
  C   C819      1.0  0.89408  0.03107  0.06101  1.0000
  H   H978      1.0  0.76669  0.20304  0.17843  1.0000
  C   C820      1.0  0.88403  0.05447  0.02873  1.0000
  C   C821      1.0  0.72507  0.27123  0.00367  1.0000
  H   H979      1.0  0.77282  0.22157  0.01475  1.0000
  H   H980      1.0  0.77409  0.26016  0.01463  1.0000
  C   C822      1.0  0.80847  0.14496  0.20152  1.0000
  H   H981      1.0  0.90452  0.04748  0.98992  1.0000
  C   C823      1.0  0.77592  0.17837  0.21370  1.0000
  H   H982      1.0  0.71859  0.23279  0.04592  1.0000
  H   H983      1.0  0.78624  0.07858  0.20616  1.0000
  C   C824      1.0  0.80893  0.16573  0.19021  1.0000
  H   H984      1.0  0.79541  0.14088  0.21378  1.0000
  H   H985      1.0  0.73993  0.00503  0.22521  1.0000
  H   H986      1.0  0.91443  0.05149  0.04191  1.0000
  H   H987      1.0  0.92309  0.06808  0.00866  1.0000
  H   H988      1.0  0.57088  0.41101  0.00602  1.0000
  Fe  Fe110     1.0  0.67626  0.48108  0.10081  1.0000
  H   H989      1.0  0.86690  0.09480  0.02472  1.0000
  H   H990      1.0  0.59904  0.40678  0.00847  1.0000
  S   S220      1.0  0.65569  0.32790  0.99018  1.0000
  C   C825      1.0  0.90838  0.07997  0.01010  1.0000
  C   C826      1.0  0.73626  0.99288  0.23851  1.0000
  H   H991      1.0  0.66084  0.46237  0.22566  1.0000
  H   H992      1.0  0.80671  0.00959  0.23488  1.0000
  S   S221      1.0  0.79404  0.34235  0.23694  1.0000
  H   H993      1.0  0.91090  0.09270  0.99631  1.0000
  C   C827      1.0  0.89118  0.06095  0.99004  1.0000
  H   H994      1.0  0.58950  0.39307  0.99084  1.0000
  C   C828      1.0  0.59185  0.44511  0.98952  1.0000
  Fe  Fe111     1.0  0.91306  0.45911  0.35668  1.0000
  S   S222      1.0  0.88841  0.46954  0.38351  1.0000
  S   S223      1.0  0.93844  0.43089  0.36309  1.0000
  H   H995      1.0  0.76292  0.06249  0.26454  1.0000
  C   C829      1.0  0.59313  0.99597  0.40203  1.0000
  S   S224      1.0  0.83333  0.46089  0.36346  1.0000
  H   H996      1.0  0.75394  0.02010  0.32323  1.0000
  S   S225      1.0  0.89016  0.46141  0.33280  1.0000
  H   H997      1.0  0.79121  0.24428  0.46407  1.0000
  H   H998      1.0  0.86832  0.42298  0.41532  1.0000
  Fe  Fe112     1.0  0.74947  0.38787  0.29105  1.0000
  S   S226      1.0  0.78159  0.36770  0.29043  1.0000
  S   S227      1.0  0.72126  0.38481  0.31658  1.0000
  Fe  Fe113     1.0  0.79459  0.39857  0.28226  1.0000
  S   S228      1.0  0.82452  0.40285  0.29479  1.0000
  H   H999      1.0  0.77534  0.10100  0.48390  1.0000
  S   S229      1.0  0.76252  0.41872  0.28565  1.0000
  C   C830      1.0  0.83492  0.26498  0.46985  1.0000
  H   H1000     1.0  0.77449  0.05761  0.31038  1.0000
  Fe  Fe114     1.0  0.73846  0.16011  0.28203  1.0000
  S   S230      1.0  0.77389  0.14977  0.27498  1.0000
  S   S231      1.0  0.72604  0.19422  0.27196  1.0000
  Fe  Fe115     1.0  0.73038  0.11775  0.30883  1.0000
  S   S232      1.0  0.76526  0.10413  0.30389  1.0000
  S   S233      1.0  0.70681  0.10102  0.33311  1.0000
  Fe  Fe116     1.0  0.77125  0.13588  0.30978  1.0000
  S   S234      1.0  0.79042  0.14109  0.33484  1.0000
  Fe  Fe117     1.0  0.76430  0.11933  0.26963  1.0000
  C   C831      1.0  0.85613  0.42371  0.40444  1.0000
  S   S235      1.0  0.73649  0.14826  0.31705  1.0000
  S   S236      1.0  0.72869  0.13081  0.27431  1.0000
  Fe  Fe118     1.0  0.91422  0.34553  0.46604  1.0000
  H   H1001     1.0  0.77923  0.11399  0.44768  1.0000
  S   S237      1.0  0.93850  0.35115  0.43634  1.0000
  C   C832      1.0  0.83030  0.46811  0.27152  1.0000
  S   S238      1.0  0.83457  0.35284  0.46806  1.0000
  S   S239      1.0  0.89034  0.32279  0.46995  1.0000
  C   C833      1.0  0.68195  0.10747  0.42929  1.0000
  Fe  Fe119     1.0  0.77407  0.24919  0.37913  1.0000
  S   S240      1.0  0.74186  0.25310  0.39948  1.0000
  S   S241      1.0  0.77702  0.23772  0.34706  1.0000
  Fe  Fe120     1.0  0.79448  0.27287  0.40676  1.0000
  S   S242      1.0  0.76413  0.27810  0.42943  1.0000
  S   S243      1.0  0.82474  0.28652  0.40767  1.0000
  Fe  Fe121     1.0  0.76099  0.24458  0.42699  1.0000
  S   S244      1.0  0.75029  0.22358  0.45724  1.0000
  Fe  Fe122     1.0  0.74805  0.28604  0.39982  1.0000
  S   S245      1.0  0.72271  0.31433  0.39749  1.0000
  S   S246      1.0  0.79310  0.23829  0.40665  1.0000
  S   S247      1.0  0.77853  0.28309  0.37726  1.0000
  N   N54       1.0  0.57809  0.98765  0.42038  1.0000
  C   C834      1.0  0.89923  0.37647  0.37287  1.0000
  H   H1002     1.0  0.82757  0.38911  0.39112  1.0000
  H   H1003     1.0  0.55252  0.99532  0.40066  1.0000
  H   H1004     1.0  0.57334  0.98684  0.45473  1.0000
  C   C835      1.0  0.83165  0.33352  0.45220  1.0000
  C   C836      1.0  0.81124  0.32820  0.45152  1.0000
  C   C837      1.0  0.80878  0.31329  0.43852  1.0000
  C   C838      1.0  0.82672  0.30385  0.42583  1.0000
  C   C839      1.0  0.84695  0.30936  0.42635  1.0000
  C   C840      1.0  0.84937  0.32406  0.43936  1.0000
  H   H1005     1.0  0.79735  0.33547  0.46125  1.0000
  H   H1006     1.0  0.79303  0.30928  0.43818  1.0000
  H   H1007     1.0  0.86087  0.30238  0.41642  1.0000
  S   S248      1.0  0.63859  0.01148  0.41971  1.0000
  C   C841      1.0  0.78776  0.16792  0.33814  1.0000
  C   C842      1.0  0.78197  0.18372  0.32157  1.0000
  C   C843      1.0  0.77922  0.20504  0.32447  1.0000
  C   C844      1.0  0.78167  0.21073  0.34412  1.0000
  C   C845      1.0  0.78742  0.19498  0.36078  1.0000
  C   C846      1.0  0.79079  0.17360  0.35765  1.0000
  H   H1008     1.0  0.77967  0.17952  0.30646  1.0000
  H   H1009     1.0  0.77487  0.21713  0.31149  1.0000
  H   H1010     1.0  0.78949  0.19930  0.37592  1.0000
  H   H1011     1.0  0.79556  0.16143  0.37039  1.0000
  C   C847      1.0  0.83813  0.39706  0.42739  1.0000
  H   H1012     1.0  0.85833  0.33963  0.38736  1.0000
  H   H1013     1.0  0.70480  0.98693  0.28647  1.0000
  C   C848      1.0  0.77091  0.14263  0.46341  1.0000
  H   H1014     1.0  0.80944  0.08582  0.26371  1.0000
  C   C849      1.0  0.58248  0.99470  0.44012  1.0000
  C   C850      1.0  0.68757  0.04015  0.31956  1.0000
  C   C851      1.0  0.68530  0.04470  0.34054  1.0000
  C   C852      1.0  0.69094  0.06362  0.34445  1.0000
  C   C853      1.0  0.69904  0.07798  0.32743  1.0000
  C   C854      1.0  0.70093  0.07367  0.30637  1.0000
  C   C855      1.0  0.69513  0.05478  0.30244  1.0000
  H   H1015     1.0  0.67926  0.03363  0.35381  1.0000
  H   H1016     1.0  0.68920  0.06699  0.36075  1.0000
  H   H1017     1.0  0.70658  0.08501  0.29315  1.0000
  H   H1018     1.0  0.69656  0.05146  0.28616  1.0000
  C   C856      1.0  0.72237  0.36432  0.33819  1.0000
  C   C857      1.0  0.70710  0.36641  0.35634  1.0000
  C   C858      1.0  0.70741  0.35081  0.37422  1.0000
  C   C859      1.0  0.72284  0.33281  0.37407  1.0000
  C   C860      1.0  0.73805  0.33039  0.35575  1.0000
  C   C861      1.0  0.73790  0.34626  0.33780  1.0000
  H   H1019     1.0  0.69500  0.38025  0.35666  1.0000
  H   H1020     1.0  0.69558  0.35272  0.38825  1.0000
  H   H1021     1.0  0.74982  0.31638  0.35543  1.0000
  H   H1022     1.0  0.74956  0.34449  0.32367  1.0000
  H   H1023     1.0  0.78287  0.19083  0.43730  1.0000
  C   C862      1.0  0.93654  0.40910  0.38379  1.0000
  C   C863      1.0  0.91986  0.40853  0.40115  1.0000
  C   C864      1.0  0.92011  0.39102  0.41767  1.0000
  C   C865      1.0  0.93694  0.37399  0.41673  1.0000
  C   C866      1.0  0.95345  0.37482  0.39939  1.0000
  C   C867      1.0  0.95329  0.39219  0.38316  1.0000
  H   H1024     1.0  0.90689  0.42152  0.40188  1.0000
  H   H1025     1.0  0.90728  0.39063  0.43097  1.0000
  H   H1026     1.0  0.96651  0.36185  0.39845  1.0000
  H   H1027     1.0  0.96630  0.39246  0.36996  1.0000
  C   C868      1.0  0.83035  0.44497  0.34429  1.0000
  C   C869      1.0  0.80989  0.44367  0.33938  1.0000
  C   C870      1.0  0.80758  0.43068  0.32436  1.0000
  C   C871      1.0  0.82576  0.41891  0.31429  1.0000
  C   C872      1.0  0.84601  0.41990  0.31960  1.0000
  C   C873      1.0  0.84824  0.43265  0.33460  1.0000
  H   H1028     1.0  0.79586  0.45285  0.34708  1.0000
  H   H1029     1.0  0.79181  0.42988  0.32054  1.0000
  H   H1030     1.0  0.86013  0.41067  0.31210  1.0000
  H   H1031     1.0  0.86381  0.43225  0.33918  1.0000
  H   H1032     1.0  0.76980  0.29444  0.26877  1.0000
  H   H1033     1.0  0.67618  0.12465  0.42937  1.0000
  H   H1034     1.0  0.66753  0.09917  0.43378  1.0000
  H   H1035     1.0  0.69195  0.10178  0.44241  1.0000
  C   C874      1.0  0.55593  0.99736  0.41673  1.0000
  C   C875      1.0  0.72153  0.99794  0.25623  1.0000
  H   H1036     1.0  0.93997  0.47331  0.39567  1.0000
  C   C876      1.0  0.80172  0.25068  0.47228  1.0000
  Fe  Fe123     1.0  0.76268  0.41693  0.25080  1.0000
  C   C877      1.0  0.92525  0.42766  0.47417  1.0000
  H   H1037     1.0  0.83861  0.05580  0.25781  1.0000
  H   H1038     1.0  0.55344  0.01475  0.41691  1.0000
  H   H1039     1.0  0.80975  0.44592  0.25055  1.0000
  H   H1040     1.0  0.68791  0.45501  0.25065  1.0000
  H   H1041     1.0  0.59038  0.99131  0.38674  1.0000
  C   C878      1.0  0.93529  0.46176  0.40992  1.0000
  H   H1042     1.0  0.87708  0.40443  0.36750  1.0000
  H   H1043     1.0  0.83196  0.38168  0.42909  1.0000
  C   C879      1.0  0.93332  0.40630  0.47475  1.0000
  H   H1044     1.0  0.84051  0.40891  0.37348  1.0000
  C   C880      1.0  0.81068  0.07773  0.24990  1.0000
  C   C881      1.0  0.74659  0.03227  0.31111  1.0000
  C   C882      1.0  0.80015  0.45470  0.26335  1.0000
  H   H1045     1.0  0.92792  0.44973  0.40414  1.0000
  S   S249      1.0  0.74682  0.38761  0.25644  1.0000
  H   H1046     1.0  0.63932  0.06562  0.46550  1.0000
  S   S250      1.0  0.79610  0.39923  0.24678  1.0000
  C   C883      1.0  0.79033  0.98643  0.25647  1.0000
  H   H1047     1.0  0.78366  0.38270  0.39516  1.0000
  S   S251      1.0  0.68215  0.01580  0.31456  1.0000
  C   C884      1.0  0.68377  0.03476  0.44473  1.0000
  H   H1048     1.0  0.81093  0.26695  0.28261  1.0000
  H   H1049     1.0  0.68392  0.01149  0.42382  1.0000
  H   H1050     1.0  0.82399  0.40900  0.43151  1.0000
  H   H1051     1.0  0.86316  0.42996  0.38802  1.0000
  C   C885      1.0  0.90534  0.35848  0.38690  1.0000
  H   H1052     1.0  0.71153  0.12892  0.43040  1.0000
  H   H1053     1.0  0.66384  0.10342  0.39662  1.0000
  C   C886      1.0  0.86837  0.38721  0.39930  1.0000
  N   N55       1.0  0.78641  0.35718  0.37667  1.0000
  C   C887      1.0  0.77241  0.36908  0.36093  1.0000
  C   C888      1.0  0.78224  0.33496  0.38052  1.0000
  C   C889      1.0  0.77977  0.36633  0.39702  1.0000
  C   C890      1.0  0.80964  0.35770  0.36941  1.0000
  C   C891      1.0  0.79060  0.16191  0.42351  1.0000
  C   C892      1.0  0.81784  0.36722  0.34866  1.0000
  H   H1054     1.0  0.77458  0.38605  0.35735  1.0000
  C   C893      1.0  0.83998  0.36672  0.34227  1.0000
  C   C894      1.0  0.85452  0.35691  0.35617  1.0000
  H   H1055     1.0  0.77550  0.36224  0.34561  1.0000
  H   H1056     1.0  0.75502  0.36860  0.36699  1.0000
  H   H1057     1.0  0.87164  0.35647  0.35105  1.0000
  H   H1058     1.0  0.79142  0.32502  0.39287  1.0000
  H   H1059     1.0  0.78676  0.32757  0.36555  1.0000
  H   H1060     1.0  0.76496  0.33376  0.38635  1.0000
  C   C895      1.0  0.78217  0.17397  0.43989  1.0000
  H   H1061     1.0  0.76213  0.36696  0.40231  1.0000
  H   H1062     1.0  0.78758  0.35681  0.41054  1.0000
  S   S252      1.0  0.63537  0.00302  0.36299  1.0000
  H   H1063     1.0  0.80757  0.37504  0.33694  1.0000
  C   C896      1.0  0.63946  0.04221  0.44472  1.0000
  H   H1064     1.0  0.84593  0.37382  0.32629  1.0000
  H   H1065     1.0  0.79618  0.30164  0.26360  1.0000
  C   C897      1.0  0.77250  0.16454  0.45955  1.0000
  H   H1066     1.0  0.74994  0.10708  0.47316  1.0000
  S   S253      1.0  0.64903  0.12070  0.47898  1.0000
  H   H1067     1.0  0.71080  0.07353  0.42175  1.0000
  H   H1068     1.0  0.75424  0.11925  0.35969  1.0000
  H   H1069     1.0  0.79187  0.05186  0.28653  1.0000
  C   C898      1.0  0.75176  0.05582  0.27825  1.0000
  H   H1070     1.0  0.74476  0.06930  0.28721  1.0000
  H   H1071     1.0  0.73852  0.05097  0.27157  1.0000
  H   H1072     1.0  0.81950  0.41669  0.39376  1.0000
  N   N56       1.0  0.84938  0.40270  0.40542  1.0000
  H   H1073     1.0  0.84229  0.43580  0.40909  1.0000
  N   N57       1.0  0.71307  0.20251  0.34985  1.0000
  C   C899      1.0  0.69997  0.19522  0.33595  1.0000
  C   C900      1.0  0.72348  0.22018  0.33679  1.0000
  C   C901      1.0  0.73023  0.18514  0.35572  1.0000
  C   C902      1.0  0.69962  0.20838  0.36979  1.0000
  C   C903      1.0  0.68634  0.19418  0.38255  1.0000
  C   C904      1.0  0.70038  0.22741  0.37789  1.0000
  C   C905      1.0  0.67419  0.19898  0.40189  1.0000
  C   C906      1.0  0.68829  0.23195  0.39736  1.0000
  C   C907      1.0  0.67520  0.21779  0.40931  1.0000
  H   H1074     1.0  0.68561  0.20707  0.33296  1.0000
  H   H1075     1.0  0.70927  0.19262  0.31997  1.0000
  H   H1076     1.0  0.69441  0.17987  0.34282  1.0000
  H   H1077     1.0  0.71136  0.23408  0.33258  1.0000
  H   H1078     1.0  0.73264  0.21557  0.32141  1.0000
  H   H1079     1.0  0.73540  0.22514  0.34522  1.0000
  H   H1080     1.0  0.72365  0.17073  0.36426  1.0000
  H   H1081     1.0  0.74111  0.18047  0.34131  1.0000
  H   H1082     1.0  0.74031  0.18993  0.36634  1.0000
  H   H1083     1.0  0.68568  0.17900  0.37800  1.0000
  H   H1084     1.0  0.71042  0.23895  0.36970  1.0000
  H   H1085     1.0  0.66450  0.18772  0.41164  1.0000
  H   H1086     1.0  0.68935  0.24639  0.40343  1.0000
  H   H1087     1.0  0.66626  0.22111  0.42465  1.0000
  N   N58       1.0  0.95397  0.45164  0.42089  1.0000
  C   C908      1.0  0.78043  0.04509  0.29993  1.0000
  C   C909      1.0  0.70382  0.18575  0.47086  1.0000
  C   C910      1.0  0.94696  0.43580  0.43910  1.0000
  C   C911      1.0  0.93184  0.44223  0.45661  1.0000
  C   C912      1.0  0.95459  0.41380  0.44005  1.0000
  S   S254      1.0  0.69963  0.11170  0.48639  1.0000
  C   C913      1.0  0.94784  0.39939  0.45768  1.0000
  H   H1088     1.0  0.96487  0.43072  0.39699  1.0000
  Fe  Fe124     1.0  0.86555  0.47297  0.35911  1.0000
  H   H1089     1.0  0.80049  0.44379  0.27870  1.0000
  H   H1090     1.0  0.89867  0.34098  0.41816  1.0000
  H   H1091     1.0  0.86701  0.36508  0.42932  1.0000
  Fe  Fe125     1.0  0.67559  0.13984  0.47798  1.0000
  H   H1092     1.0  0.96551  0.40716  0.42727  1.0000
  H   H1093     1.0  0.77413  0.31814  0.27717  1.0000
  C   C914      1.0  0.76644  0.99922  0.28669  1.0000
  Fe  Fe126     1.0  0.65206  0.99198  0.39227  1.0000
  N   N59       1.0  0.78632  0.28958  0.29669  1.0000
  H   H1094     1.0  0.82488  0.25376  0.44374  1.0000
  C   C915      1.0  0.79514  0.26757  0.29311  1.0000
  C   C916      1.0  0.76568  0.28955  0.31131  1.0000
  C   C917      1.0  0.80173  0.29856  0.30648  1.0000
  C   C918      1.0  0.81065  0.31714  0.29685  1.0000
  C   C919      1.0  0.80804  0.28879  0.32651  1.0000
  C   C920      1.0  0.82441  0.32565  0.30710  1.0000
  C   C921      1.0  0.82184  0.29738  0.33660  1.0000
  C   C922      1.0  0.82992  0.31583  0.32695  1.0000
  C   C923      1.0  0.96289  0.46821  0.42883  1.0000
  Fe  Fe127     1.0  0.86665  0.34975  0.48063  1.0000
  H   H1095     1.0  0.82990  0.45592  0.28596  1.0000
  H   H1096     1.0  0.54377  0.99052  0.42932  1.0000
  H   H1097     1.0  0.95365  0.38263  0.45796  1.0000
  H   H1098     1.0  0.71356  0.01404  0.25667  1.0000
  H   H1099     1.0  0.75360  0.28293  0.30454  1.0000
  H   H1100     1.0  0.76755  0.27985  0.32710  1.0000
  H   H1101     1.0  0.86499  0.32838  0.43892  1.0000
  H   H1102     1.0  0.80223  0.27440  0.33461  1.0000
  H   H1103     1.0  0.70096  0.03155  0.44491  1.0000
  H   H1104     1.0  0.82626  0.28966  0.35202  1.0000
  H   H1105     1.0  0.84062  0.32240  0.33482  1.0000
  Fe  Fe128     1.0  0.66795  0.99599  0.34423  1.0000
  C   C924      1.0  0.82093  0.25613  0.46043  1.0000
  C   C925      1.0  0.77972  0.13072  0.44635  1.0000
  C   C926      1.0  0.73147  0.20751  0.45443  1.0000
  H   H1106     1.0  0.84886  0.39597  0.43982  1.0000
  C   C927      1.0  0.73028  0.20185  0.43446  1.0000
  H   H1107     1.0  0.74063  0.20777  0.42040  1.0000
  C   C928      1.0  0.67135  0.05009  0.45668  1.0000
  H   H1108     1.0  0.67504  0.12779  0.38978  1.0000
  C   C929      1.0  0.78146  0.30151  0.27570  1.0000
  C   C930      1.0  0.64913  0.05396  0.45636  1.0000
  C   C931      1.0  0.71606  0.18800  0.43275  1.0000
  H   H1109     1.0  0.71546  0.18344  0.41732  1.0000
  H   H1110     1.0  0.72926  0.14456  0.47330  1.0000
  H   H1111     1.0  0.79806  0.16934  0.40829  1.0000
  S   S255      1.0  0.68553  0.16216  0.44836  1.0000
  C   C932      1.0  0.70283  0.17988  0.45094  1.0000
  C   C933      1.0  0.77125  0.02015  0.27981  1.0000
  H   H1112     1.0  0.84962  0.26956  0.46047  1.0000
  N   N60       1.0  0.69400  0.10300  0.40817  1.0000
  H   H1113     1.0  0.68548  0.07152  0.41397  1.0000
  C   C934      1.0  0.69992  0.07976  0.40943  1.0000
  C   C935      1.0  0.71356  0.11342  0.40183  1.0000
  C   C936      1.0  0.72012  0.12641  0.41482  1.0000
  H   H1114     1.0  0.74253  0.14693  0.41789  1.0000
  C   C937      1.0  0.78942  0.14033  0.42673  1.0000
  C   C938      1.0  0.84702  0.34749  0.37658  1.0000
  C   C939      1.0  0.97080  0.44251  0.40459  1.0000
  C   C940      1.0  0.67914  0.11028  0.39194  1.0000
  C   C941      1.0  0.73815  0.13677  0.40785  1.0000
  H   H1115     1.0  0.62219  0.04497  0.44508  1.0000
  C   C942      1.0  0.65186  0.02681  0.43286  1.0000
  C   C943      1.0  0.89330  0.35461  0.40700  1.0000
  N   N61       1.0  0.76252  0.03790  0.29215  1.0000
  H   H1116     1.0  0.83083  0.33998  0.29953  1.0000
  C   C944      1.0  0.72659  0.11099  0.38188  1.0000
  Fe  Fe129     1.0  0.78026  0.36996  0.25506  1.0000
  H   H1117     1.0  0.78979  0.03179  0.30937  1.0000
  C   C945      1.0  0.88096  0.39058  0.37886  1.0000
  H   H1118     1.0  0.80725  0.32544  0.28139  1.0000
  C   C946      1.0  0.74465  0.12127  0.37512  1.0000
  C   C947      1.0  0.75038  0.13420  0.38803  1.0000
  H   H1119     1.0  0.70800  0.07481  0.39389  1.0000
  H   H1120     1.0  0.72282  0.10115  0.37128  1.0000
  C   C948      1.0  0.71822  0.19944  0.47261  1.0000
  H   H1121     1.0  0.76433  0.14220  0.38258  1.0000
  C   C949      1.0  0.83356  0.40439  0.39033  1.0000
  C   C950      1.0  0.67416  0.02338  0.43268  1.0000
  H   H1122     1.0  0.68607  0.10557  0.37599  1.0000
  H   H1123     1.0  0.75864  0.30584  0.31447  1.0000
  C   C951      1.0  0.82496  0.34787  0.38312  1.0000
  H   H1124     1.0  0.78410  0.26040  0.28546  1.0000
  H   H1125     1.0  0.90906  0.37983  0.35752  1.0000
  H   H1126     1.0  0.79766  0.25696  0.30827  1.0000
  H   H1127     1.0  0.92492  0.45859  0.45683  1.0000
  H   H1128     1.0  0.91990  0.34789  0.38256  1.0000
  S   S256      1.0  0.89045  0.37303  0.47544  1.0000
  C   C952      1.0  0.87514  0.36875  0.41327  1.0000
  H   H1129     1.0  0.81995  0.34016  0.39898  1.0000
  H   H1130     1.0  0.79601  0.13102  0.41389  1.0000
  H   H1131     1.0  0.79059  0.03866  0.25471  1.0000
  C   C953      1.0  0.75898  0.11030  0.48556  1.0000
  H   H1132     1.0  0.61005  0.98975  0.40419  1.0000
  H   H1133     1.0  0.98547  0.43479  0.41170  1.0000
  H   H1134     1.0  0.72880  0.23250  0.24241  1.0000
  H   H1135     1.0  0.59178  0.01351  0.40005  1.0000
  H   H1136     1.0  0.73962  0.04616  0.31954  1.0000
  S   S257      1.0  0.68448  0.06376  0.47168  1.0000
  H   H1137     1.0  0.73280  0.02638  0.30640  1.0000
  H   H1138     1.0  0.75546  0.99522  0.30097  1.0000
  N   N62       1.0  0.80881  0.47442  0.26425  1.0000
  C   C954      1.0  0.73751  0.14407  0.48753  1.0000
  C   C955      1.0  0.72406  0.20004  0.24439  1.0000
  H   H1139     1.0  0.59985  0.99157  0.44198  1.0000
  H   H1140     1.0  0.71202  0.48044  0.25099  1.0000
  S   S258      1.0  0.68507  0.98689  0.37316  1.0000
  C   C956      1.0  0.78593  0.02332  0.26074  1.0000
  N   N63       1.0  0.75990  0.13325  0.48417  1.0000
  H   H1141     1.0  0.76591  0.17470  0.47162  1.0000
  H   H1142     1.0  0.75747  0.25704  0.47939  1.0000
  H   H1143     1.0  0.79311  0.47627  0.29662  1.0000
  H   H1144     1.0  0.96929  0.47978  0.41540  1.0000
  H   H1145     1.0  0.71887  0.16879  0.24114  1.0000
  H   H1146     1.0  0.57828  0.01211  0.43982  1.0000
  H   H1147     1.0  0.71906  0.20379  0.48809  1.0000
  H   H1148     1.0  0.84232  0.46145  0.25876  1.0000
  C   C957      1.0  0.68624  0.47000  0.24026  1.0000
  H   H1149     1.0  0.78302  0.45782  0.26062  1.0000
  H   H1150     1.0  0.69353  0.17971  0.48493  1.0000
  H   H1151     1.0  0.97580  0.45474  0.39115  1.0000
  H   H1152     1.0  0.97622  0.46109  0.43825  1.0000
  C   C958      1.0  0.79528  0.00671  0.24927  1.0000
  H   H1153     1.0  0.91376  0.43286  0.48744  1.0000
  C   C959      1.0  0.82722  0.06082  0.24648  1.0000
  H   H1154     1.0  0.95060  0.47765  0.43925  1.0000
  H   H1155     1.0  0.92253  0.47048  0.42055  1.0000
  H   H1156     1.0  0.83649  0.48139  0.27643  1.0000
  H   H1157     1.0  0.92816  0.39503  0.48839  1.0000
  S   S259      1.0  0.77487  0.10513  0.23880  1.0000
  S   S260      1.0  0.92294  0.33344  0.49918  1.0000
  H   H1158     1.0  0.58105  0.13404  0.64859  1.0000
  Fe  Fe130     1.0  0.51888  0.12454  0.68520  1.0000
  S   S261      1.0  0.52743  0.14409  0.65360  1.0000
  C   C960      1.0  0.52147  0.25324  0.71499  1.0000
  C   C961      1.0  0.58093  0.15895  0.69299  1.0000
  Fe  Fe131     1.0  0.52977  0.11395  0.63947  1.0000
  S   S262      1.0  0.55944  0.09955  0.61881  1.0000
  S   S263      1.0  0.52683  0.13243  0.71618  1.0000
  S   S264      1.0  0.52365  0.09384  0.67174  1.0000
  H   H1159     1.0  0.88447  0.33433  0.61530  1.0000
  H   H1160     1.0  0.72271  0.20739  0.61986  1.0000
  C   C962      1.0  0.81078  0.26259  0.50335  1.0000
  H   H1161     1.0  0.76333  0.12885  0.51779  1.0000
  S   S265      1.0  0.96674  0.34742  0.67827  1.0000
  C   C963      1.0  0.68050  0.21046  0.64119  1.0000
  H   H1162     1.0  0.70439  0.21165  0.60003  1.0000
  C   C964      1.0  0.56298  0.14851  0.69458  1.0000
  H   H1163     1.0  0.54472  0.18681  0.65845  1.0000
  S   S266      1.0  0.91377  0.27656  0.66607  1.0000
  S   S267      1.0  0.88477  0.18173  0.69448  1.0000
  H   H1164     1.0  0.67844  0.15734  0.64980  1.0000
  S   S268      1.0  0.87083  0.34145  0.51553  1.0000
  S   S269      1.0  0.89243  0.28293  0.52459  1.0000
  Fe  Fe132     1.0  0.89841  0.36027  0.50887  1.0000
  S   S270      1.0  0.90607  0.37750  0.53458  1.0000
  C   C965      1.0  0.92498  0.31939  0.59427  1.0000
  C   C966      1.0  0.66362  0.11859  0.59248  1.0000
  H   H1165     1.0  0.51441  0.20619  0.64012  1.0000
  Fe  Fe133     1.0  0.68863  0.11702  0.52051  1.0000
  S   S271      1.0  0.66637  0.14662  0.51182  1.0000
  S   S272      1.0  0.71225  0.11507  0.54432  1.0000
  Fe  Fe134     1.0  0.64171  0.12480  0.51411  1.0000
  S   S273      1.0  0.60830  0.13770  0.52936  1.0000
  H   H1166     1.0  0.78719  0.26079  0.72653  1.0000
  H   H1167     1.0  0.86210  0.32227  0.61310  1.0000
  S   S274      1.0  0.66358  0.09521  0.52488  1.0000
  H   H1168     1.0  0.72785  0.13605  0.50163  1.0000
  Fe  Fe135     1.0  0.76711  0.21141  0.62472  1.0000
  S   S275      1.0  0.77996  0.18153  0.61064  1.0000
  S   S276      1.0  0.74899  0.20370  0.65764  1.0000
  Fe  Fe136     1.0  0.79145  0.23812  0.58751  1.0000
  S   S277      1.0  0.80593  0.21016  0.57116  1.0000
  S   S278      1.0  0.79847  0.27029  0.57149  1.0000
  Fe  Fe137     1.0  0.77292  0.20040  0.57925  1.0000
  S   S279      1.0  0.75385  0.19508  0.55401  1.0000
  Fe  Fe138     1.0  0.81126  0.19469  0.60446  1.0000
  S   S280      1.0  0.84278  0.17614  0.61231  1.0000
  S   S281      1.0  0.75796  0.22966  0.59377  1.0000
  S   S282      1.0  0.79879  0.22337  0.62025  1.0000
  C   C967      1.0  0.95930  0.26820  0.72076  1.0000
  H   H1169     1.0  0.60557  0.14832  0.59402  1.0000
  H   H1170     1.0  0.62451  0.09026  0.64132  1.0000
  S   S283      1.0  0.86922  0.24305  0.69524  1.0000
  S   S284      1.0  0.60834  0.17958  0.70774  1.0000
  C   C968      1.0  0.74154  0.17284  0.55294  1.0000
  C   C969      1.0  0.74715  0.15318  0.56488  1.0000
  C   C970      1.0  0.73770  0.13566  0.56245  1.0000
  C   C971      1.0  0.72247  0.13774  0.54829  1.0000
  C   C972      1.0  0.71637  0.15759  0.53696  1.0000
  C   C973      1.0  0.72607  0.17496  0.53907  1.0000
  H   H1171     1.0  0.75917  0.15133  0.57550  1.0000
  H   H1172     1.0  0.74253  0.12034  0.57127  1.0000
  H   H1173     1.0  0.70449  0.15953  0.52620  1.0000
  H   H1174     1.0  0.72159  0.19014  0.52981  1.0000
  C   C974      1.0  0.86607  0.27851  0.53635  1.0000
  C   C975      1.0  0.86276  0.25976  0.55014  1.0000
  C   C976      1.0  0.84198  0.25664  0.56045  1.0000
  C   C977      1.0  0.82452  0.27261  0.55763  1.0000
  C   C978      1.0  0.82781  0.29112  0.54363  1.0000
  C   C979      1.0  0.84834  0.29383  0.53271  1.0000
  H   H1175     1.0  0.87627  0.24760  0.55275  1.0000
  H   H1176     1.0  0.83953  0.24203  0.57075  1.0000
  H   H1177     1.0  0.81434  0.30333  0.54090  1.0000
  H   H1178     1.0  0.85021  0.30766  0.52117  1.0000
  C   C980      1.0  0.87173  0.18088  0.67235  1.0000
  C   C981      1.0  0.85551  0.19683  0.66564  1.0000
  C   C982      1.0  0.84591  0.19542  0.64756  1.0000
  C   C983      1.0  0.85265  0.17813  0.63613  1.0000
  C   C984      1.0  0.86878  0.16232  0.64303  1.0000
  C   C985      1.0  0.87807  0.16356  0.66114  1.0000
  H   H1179     1.0  0.85056  0.21022  0.67426  1.0000
  H   H1180     1.0  0.83381  0.20792  0.64219  1.0000
  H   H1181     1.0  0.87417  0.14898  0.63430  1.0000
  H   H1182     1.0  0.89051  0.15112  0.66628  1.0000
  C   C986      1.0  0.97113  0.36001  0.56106  1.0000
  C   C987      1.0  0.96915  0.35561  0.54067  1.0000
  C   C988      1.0  0.94936  0.36072  0.53254  1.0000
  C   C989      1.0  0.93120  0.37042  0.54465  1.0000
  C   C990      1.0  0.93321  0.37509  0.56497  1.0000
  C   C991      1.0  0.95303  0.36982  0.57321  1.0000
  H   H1183     1.0  0.78732  0.21500  0.51482  1.0000
  H   H1184     1.0  0.94832  0.35751  0.51669  1.0000
  H   H1185     1.0  0.91938  0.38281  0.57440  1.0000
  H   H1186     1.0  0.95428  0.37336  0.58891  1.0000
  C   C992      1.0  0.95118  0.32850  0.67460  1.0000
  C   C993      1.0  0.95251  0.32185  0.65458  1.0000
  C   C994      1.0  0.94092  0.30594  0.65221  1.0000
  C   C995      1.0  0.92786  0.29659  0.66979  1.0000
  C   C996      1.0  0.92617  0.30347  0.68975  1.0000
  C   C997      1.0  0.93774  0.31947  0.69212  1.0000
  H   H1187     1.0  0.96232  0.32908  0.64086  1.0000
  H   H1188     1.0  0.94226  0.30068  0.63676  1.0000
  H   H1189     1.0  0.91586  0.29660  0.70333  1.0000
  H   H1190     1.0  0.93643  0.32472  0.70760  1.0000
  C   C998      1.0  0.68762  0.24080  0.68804  1.0000
  C   C999      1.0  0.69961  0.25034  0.66965  1.0000
  C   C1000     1.0  0.71804  0.23886  0.65940  1.0000
  C   C1001     1.0  0.72464  0.21794  0.66781  1.0000
  C   C1002     1.0  0.71265  0.20845  0.68612  1.0000
  C   C1003     1.0  0.69413  0.21979  0.69612  1.0000
  H   H1191     1.0  0.69464  0.26665  0.66339  1.0000
  H   H1192     1.0  0.72740  0.24637  0.64543  1.0000
  H   H1193     1.0  0.71783  0.19232  0.69280  1.0000
  C   C1004     1.0  0.57206  0.11011  0.59340  1.0000
  C   C1005     1.0  0.56452  0.13000  0.58299  1.0000
  C   C1006     1.0  0.57574  0.13816  0.56332  1.0000
  C   C1007     1.0  0.59470  0.12667  0.55402  1.0000
  C   C1008     1.0  0.60232  0.10688  0.56452  1.0000
  C   C1009     1.0  0.59094  0.09859  0.58401  1.0000
  H   H1194     1.0  0.55002  0.13904  0.59003  1.0000
  H   H1195     1.0  0.56971  0.15347  0.55523  1.0000
  H   H1196     1.0  0.61684  0.09786  0.55750  1.0000
  H   H1197     1.0  0.59684  0.08313  0.59186  1.0000
  H   H1198     1.0  0.56194  0.24346  0.71849  1.0000
  S   S285      1.0  0.89146  0.26283  0.72921  1.0000
  H   H1199     1.0  0.56002  0.14196  0.68103  1.0000
  S   S286      1.0  0.91847  0.22390  0.70407  1.0000
  H   H1200     1.0  0.97923  0.29519  0.69553  1.0000
  H   H1201     1.0  0.84605  0.19764  0.72472  1.0000
  C   C1010     1.0  0.98610  0.23781  0.72520  1.0000
  H   H1202     1.0  0.59328  0.15407  0.63013  1.0000
  H   H1203     1.0  0.97315  0.30889  0.56331  1.0000
  C   C1011     1.0  0.95592  0.31062  0.56814  1.0000
  H   H1204     1.0  0.77675  0.22085  0.48978  1.0000
  H   H1205     1.0  0.88370  0.34357  0.55709  1.0000
  C   C1012     1.0  0.94235  0.30841  0.55385  1.0000
  N   N64       1.0  0.61320  0.12366  0.63368  1.0000
  H   H1206     1.0  0.65521  0.10530  0.62487  1.0000
  H   H1207     1.0  0.75799  0.27779  0.49470  1.0000
  C   C1013     1.0  0.79606  0.25364  0.49417  1.0000
  H   H1208     1.0  0.86179  0.34689  0.57827  1.0000
  H   H1209     1.0  0.52658  0.25828  0.72907  1.0000
  H   H1210     1.0  0.96823  0.38911  0.68666  1.0000
  C   C1014     1.0  0.99458  0.28975  0.70106  1.0000
  C   C1015     1.0  0.94726  0.31622  0.58824  1.0000
  C   C1016     1.0  0.50663  0.22989  0.66125  1.0000
  H   H1211     1.0  0.74616  0.23150  0.69537  1.0000
  H   H1212     1.0  0.51491  0.21357  0.73151  1.0000
  H   H1213     1.0  0.88735  0.35491  0.57958  1.0000
  H   H1214     1.0  0.54210  0.20159  0.72533  1.0000
  H   H1215     1.0  0.62603  0.14534  0.64870  1.0000
  C   C1017     1.0  0.65688  0.13168  0.57456  1.0000
  N   N65       1.0  0.89614  0.23333  0.62289  1.0000
  C   C1018     1.0  0.90280  0.22522  0.64436  1.0000
  C   C1019     1.0  0.89668  0.21478  0.61173  1.0000
  C   C1020     1.0  0.91220  0.24639  0.61047  1.0000
  C   C1021     1.0  0.87479  0.24661  0.62500  1.0000
  C   C1022     1.0  0.87066  0.26317  0.63783  1.0000
  C   C1023     1.0  0.85805  0.24449  0.61354  1.0000
  C   C1024     1.0  0.85104  0.27654  0.63940  1.0000
  C   C1025     1.0  0.83860  0.25821  0.61493  1.0000
  C   C1026     1.0  0.83506  0.27414  0.62784  1.0000
  H   H1216     1.0  0.88995  0.21767  0.65524  1.0000
  H   H1217     1.0  0.91744  0.21317  0.64352  1.0000
  H   H1218     1.0  0.90681  0.23775  0.65238  1.0000
  H   H1219     1.0  0.88438  0.20473  0.61996  1.0000
  H   H1220     1.0  0.91249  0.20442  0.61133  1.0000
  H   H1221     1.0  0.89402  0.21953  0.59469  1.0000
  H   H1222     1.0  0.91352  0.25999  0.61862  1.0000
  H   H1223     1.0  0.92853  0.23704  0.60837  1.0000
  H   H1224     1.0  0.90787  0.25285  0.59421  1.0000
  H   H1225     1.0  0.88268  0.26600  0.64668  1.0000
  H   H1226     1.0  0.85954  0.23242  0.60331  1.0000
  H   H1227     1.0  0.84834  0.28890  0.64956  1.0000
  H   H1228     1.0  0.82619  0.25660  0.60574  1.0000
  H   H1229     1.0  0.81994  0.28469  0.62871  1.0000
  H   H1230     1.0  0.80789  0.26559  0.51980  1.0000
  Fe  Fe139     1.0  0.89992  0.25582  0.69535  1.0000
  C   C1027     1.0  0.53184  0.21678  0.72795  1.0000
  C   C1028     1.0  0.87952  0.34256  0.57481  1.0000
  H   H1231     1.0  0.49863  0.17236  0.68123  1.0000
  S   S287      1.0  0.66492  0.25552  0.70096  1.0000
  N   N66       1.0  0.70429  0.18206  0.62124  1.0000
  C   C1029     1.0  0.59186  0.13694  0.63321  1.0000
  C   C1030     1.0  0.68660  0.18896  0.63788  1.0000
  S   S288      1.0  0.60947  0.23595  0.71446  1.0000
  C   C1031     1.0  0.69567  0.17221  0.60561  1.0000
  H   H1232     1.0  0.76931  0.24277  0.66551  1.0000
  C   C1032     1.0  0.58513  0.16724  0.71062  1.0000
  H   H1233     1.0  0.56878  0.22197  0.70335  1.0000
  C   C1033     1.0  0.82988  0.26817  0.49124  1.0000
  C   C1034     1.0  0.87991  0.32083  0.60911  1.0000
  H   H1234     1.0  0.88689  0.30583  0.61827  1.0000
  C   C1035     1.0  0.74907  0.23999  0.70758  1.0000
  H   H1235     1.0  0.64003  0.20579  0.68281  1.0000
  C   C1036     1.0  0.62259  0.12873  0.65174  1.0000
  H   H1236     1.0  0.63775  0.11822  0.65466  1.0000
  Fe  Fe140     1.0  0.86238  0.24707  0.73009  1.0000
  C   C1037     1.0  0.60966  0.10122  0.63819  1.0000
  H   H1237     1.0  0.65951  0.23276  0.65961  1.0000
  C   C1038     1.0  0.54909  0.14614  0.71384  1.0000
  C   C1039     1.0  0.55746  0.23682  0.70506  1.0000
  H   H1238     1.0  0.96010  0.26714  0.70339  1.0000
  N   N67       1.0  0.78805  0.23826  0.69180  1.0000
  C   C1040     1.0  0.80884  0.24408  0.69490  1.0000
  C   C1041     1.0  0.79105  0.21499  0.69224  1.0000
  C   C1042     1.0  0.78320  0.24850  0.67025  1.0000
  C   C1043     1.0  0.76991  0.24474  0.70820  1.0000
  C   C1044     1.0  0.77207  0.25624  0.72475  1.0000
  Fe  Fe141     1.0  0.90806  0.22976  0.73816  1.0000
  H   H1239     1.0  0.94905  0.30484  0.53788  1.0000
  H   H1240     1.0  0.77924  0.26594  0.66969  1.0000
  C   C1045     1.0  0.96873  0.40068  0.69767  1.0000
  H   H1241     1.0  0.82214  0.23902  0.68237  1.0000
  H   H1242     1.0  0.80811  0.26148  0.69401  1.0000
  H   H1243     1.0  0.75677  0.24647  0.53781  1.0000
  H   H1244     1.0  0.79371  0.20665  0.70844  1.0000
  H   H1245     1.0  0.80507  0.20946  0.68060  1.0000
  N   N68       1.0  0.77548  0.24790  0.50626  1.0000
  H   H1246     1.0  0.77698  0.20939  0.68781  1.0000
  H   H1247     1.0  0.79703  0.24520  0.65759  1.0000
  H   H1248     1.0  0.84084  0.27511  0.49844  1.0000
  N   N69       1.0  0.99083  0.40584  0.69636  1.0000
  H   H1249     1.0  0.91036  0.31078  0.54750  1.0000
  H   H1250     1.0  0.58323  0.13321  0.62081  1.0000
  H   H1251     1.0  0.60393  0.09643  0.62437  1.0000
  H   H1252     1.0  0.73483  0.16166  0.61946  1.0000
  N   N70       1.0  0.53464  0.23331  0.70914  1.0000
  H   H1253     1.0  0.52301  0.26646  0.70160  1.0000
  C   C1046     1.0  0.62169  0.14009  0.59468  1.0000
  H   H1254     1.0  0.95788  0.31889  0.59892  1.0000
  H   H1255     1.0  0.59157  0.16073  0.67800  1.0000
  C   C1047     1.0  0.71543  0.19960  0.60903  1.0000
  H   H1256     1.0  0.98302  0.34819  0.53104  1.0000
  H   H1257     1.0  0.63059  0.15193  0.56136  1.0000
  C   C1048     1.0  0.91066  0.31689  0.58019  1.0000
  Fe  Fe142     1.0  0.99239  0.35505  0.65055  1.0000
  C   C1049     1.0  0.65273  0.20115  0.67025  1.0000
  H   H1258     1.0  0.56065  0.24811  0.69019  1.0000
  H   H1259     1.0  0.64952  0.16832  0.67784  1.0000
  H   H1260     1.0  0.68521  0.21237  0.71036  1.0000
  S   S289      1.0  0.98834  0.38218  0.62402  1.0000
  Fe  Fe143     1.0  0.88694  0.21176  0.70693  1.0000
  C   C1050     1.0  0.92007  0.31171  0.55962  1.0000
  H   H1261     1.0  0.55385  0.19887  0.68965  1.0000
  N   N71       1.0  0.88699  0.32128  0.58568  1.0000
  H   H1262     1.0  0.68282  0.18336  0.59810  1.0000
  C   C1051     1.0  0.65819  0.18000  0.66739  1.0000
  C   C1052     1.0  0.54073  0.20805  0.68198  1.0000
  H   H1263     1.0  0.98490  0.36331  0.71112  1.0000
  C   C1053     1.0  0.51874  0.21201  0.65363  1.0000
  C   C1054     1.0  0.77465  0.22517  0.50618  1.0000
  H   H1264     1.0  0.71443  0.15158  0.63908  1.0000
  H   H1265     1.0  0.85869  0.30712  0.58423  1.0000
  H   H1266     1.0  0.75042  0.10389  0.50136  1.0000
  H   H1267     1.0  0.95716  0.41487  0.69288  1.0000
  Fe  Fe144     1.0  0.64145  0.23728  0.72404  1.0000
  H   H1268     1.0  0.87711  0.30765  0.56054  1.0000
  C   C1055     1.0  0.55317  0.15454  0.73151  1.0000
  C   C1056     1.0  0.77206  0.25159  0.52904  1.0000
  H   H1269     1.0  0.67977  0.10990  0.59121  1.0000
  H   H1270     1.0  0.81376  0.23644  0.71063  1.0000
  H   H1271     1.0  0.96236  0.39408  0.71425  1.0000
  C   C1057     1.0  0.67478  0.17393  0.65139  1.0000
  Fe  Fe145     1.0  0.61390  0.20204  0.72946  1.0000
  C   C1058     1.0  0.57113  0.16514  0.72990  1.0000
  H   H1272     1.0  0.98512  0.42917  0.66871  1.0000
  H   H1273     1.0  0.97772  0.43564  0.70754  1.0000
  H   H1274     1.0  0.88346  0.28913  0.58357  1.0000
  C   C1059     1.0  0.87623  0.30559  0.57828  1.0000
  H   H1275     1.0  0.61147  0.12683  0.66711  1.0000
  H   H1276     1.0  0.50100  0.25052  0.68467  1.0000
  H   H1277     1.0  0.72880  0.19389  0.59684  1.0000
  H   H1278     1.0  0.59721  0.09828  0.65234  1.0000
  H   H1279     1.0  0.71565  0.24283  0.72137  1.0000
  H   H1280     1.0  0.77128  0.26860  0.53049  1.0000
  C   C1060     1.0  0.99000  0.42164  0.71098  1.0000
  C   C1061     1.0  0.51148  0.23698  0.67926  1.0000
  C   C1062     1.0  0.72072  0.16636  0.63139  1.0000
  H   H1281     1.0  0.68857  0.22307  0.63197  1.0000
  H   H1282     1.0  0.66773  0.13317  0.55963  1.0000
  C   C1063     1.0  0.64945  0.11616  0.61163  1.0000
  C   C1064     1.0  0.52886  0.22629  0.69011  1.0000
  H   H1283     1.0  0.70840  0.16751  0.59239  1.0000
  C   C1065     1.0  0.62805  0.12695  0.61338  1.0000
  C   C1066     1.0  0.66374  0.21633  0.65710  1.0000
  H   H1284     1.0  0.68874  0.15767  0.61310  1.0000
  C   C1067     1.0  0.63599  0.14235  0.57564  1.0000
  H   H1285     1.0  0.75882  0.22068  0.51404  1.0000
  H   H1286     1.0  0.98924  0.23627  0.70781  1.0000
  H   H1287     1.0  0.91941  0.32434  0.60981  1.0000
  H   H1288     1.0  0.72683  0.17295  0.64396  1.0000
  C   C1068     1.0  0.73150  0.24638  0.72245  1.0000
  C   C1069     1.0  0.53571  0.20106  0.66403  1.0000
  C   C1070     1.0  0.75736  0.26057  0.49589  1.0000
  Fe  Fe146     1.0  0.89504  0.31498  0.50450  1.0000
  H   H1289     1.0  0.74151  0.25728  0.50491  1.0000
  C   C1071     1.0  0.77104  0.13616  0.50198  1.0000
  H   H1290     1.0  0.73668  0.16054  0.49068  1.0000
  C   C1072     1.0  0.81064  0.16247  0.73432  1.0000
  S   S290      1.0  0.64709  0.20286  0.73716  1.0000
  H   H1291     1.0  0.77059  0.15310  0.50345  1.0000
  H   H1292     1.0  0.84053  0.16476  0.71325  1.0000
  H   H1293     1.0  0.97294  0.22841  0.73265  1.0000
  C   C1073     1.0  0.82872  0.17193  0.72525  1.0000
  H   H1294     1.0  0.49843  0.19052  0.71230  1.0000
  H   H1295     1.0  0.78510  0.24242  0.53784  1.0000
  H   H1296     1.0  0.95352  0.28480  0.72360  1.0000
  H   H1297     1.0  0.98599  0.41466  0.72802  1.0000
  H   H1298     1.0  0.50417  0.25138  0.71956  1.0000
  H   H1299     1.0  0.94652  0.25883  0.72925  1.0000
  H   H1300     1.0  0.78821  0.12892  0.49971  1.0000
  N   N72       1.0  0.98034  0.26029  0.72853  1.0000
  Fe  Fe147     1.0  0.67262  0.09254  0.48939  1.0000
  H   H1301     1.0  0.80838  0.14788  0.72928  1.0000
  C   C1074     1.0  0.83182  0.19053  0.73178  1.0000
  C   C1075     1.0  0.73417  0.25759  0.73846  1.0000
  Fe  Fe148     1.0  0.53342  0.31903  0.85622  1.0000
  S   S291      1.0  0.56467  0.30401  0.83913  1.0000
  S   S292      1.0  0.53034  0.34841  0.87175  1.0000
  H   H1302     1.0  0.61283  0.32159  0.87262  1.0000
  C   C1076     1.0  0.57666  0.22307  0.83496  1.0000
  H   H1303     1.0  0.76741  0.19310  0.80577  1.0000
  H   H1304     1.0  0.87611  0.15531  0.92814  1.0000
  S   S293      1.0  0.96700  0.14050  0.81647  1.0000
  S   S294      1.0  0.63985  0.20438  0.80139  1.0000
  C   C1077     1.0  0.57891  0.20786  0.82134  1.0000
  S   S295      1.0  0.56462  0.26507  0.75439  1.0000
  H   H1305     1.0  0.52233  0.26530  0.80450  1.0000
  Fe  Fe149     1.0  0.51838  0.32818  0.90190  1.0000
  S   S296      1.0  0.59733  0.20891  0.76198  1.0000
  C   C1078     1.0  0.79558  0.17165  0.74992  1.0000
  C   C1079     1.0  0.65426  0.29177  0.81858  1.0000
  S   S297      1.0  0.71108  0.34038  0.96347  1.0000
  C   C1080     1.0  0.93545  0.15438  0.86657  1.0000
  H   H1306     1.0  0.62193  0.29716  0.92757  1.0000
  Fe  Fe150     1.0  0.73811  0.23668  0.84178  1.0000
  S   S298      1.0  0.74326  0.26945  0.84468  1.0000
  S   S299      1.0  0.72805  0.23311  0.81023  1.0000
  Fe  Fe151     1.0  0.75636  0.21823  0.88382  1.0000
  S   S300      1.0  0.76242  0.24972  0.88985  1.0000
  S   S301      1.0  0.76859  0.18792  0.90395  1.0000
  Fe  Fe152     1.0  0.72998  0.26167  0.87941  1.0000
  S   S302      1.0  0.70188  0.28309  0.89453  1.0000
  Fe  Fe153     1.0  0.77501  0.25417  0.85465  1.0000
  S   S303      1.0  0.80798  0.26264  0.84190  1.0000
  S   S304      1.0  0.72275  0.22960  0.87589  1.0000
  S   S305      1.0  0.77094  0.22202  0.84924  1.0000
  H   H1307     1.0  0.80134  0.21861  0.78500  1.0000
  H   H1308     1.0  0.96137  0.13037  0.91196  1.0000
  C   C1081     1.0  0.95132  0.13965  0.92342  1.0000
  S   S306      1.0  0.53027  0.32476  0.93432  1.0000
  H   H1309     1.0  0.65554  0.27329  0.77117  1.0000
  S   S307      1.0  0.52301  0.29858  0.88665  1.0000
  C   C1082     1.0  0.61904  0.28119  0.89079  1.0000
  S   S308      1.0  0.93287  0.22604  0.76064  1.0000
  H   H1310     1.0  0.61470  0.43358  0.95247  1.0000
  H   H1311     1.0  0.64774  0.33433  0.84617  1.0000
  C   C1083     1.0  0.95846  0.16351  0.79921  1.0000
  C   C1084     1.0  0.93979  0.16490  0.78966  1.0000
  C   C1085     1.0  0.93195  0.18381  0.77726  1.0000
  C   C1086     1.0  0.94269  0.20144  0.77456  1.0000
  C   C1087     1.0  0.96153  0.19987  0.78377  1.0000
  H   H1312     1.0  0.93122  0.15143  0.79209  1.0000
  Fe  Fe154     1.0  0.63005  0.21332  0.76824  1.0000
  C   C1088     1.0  0.81371  0.26200  0.81408  1.0000
  C   C1089     1.0  0.79709  0.26633  0.80143  1.0000
  C   C1090     1.0  0.80173  0.26597  0.77924  1.0000
  C   C1091     1.0  0.82288  0.26042  0.76968  1.0000
  C   C1092     1.0  0.83953  0.25592  0.78231  1.0000
  C   C1093     1.0  0.83497  0.25701  0.80445  1.0000
  H   H1313     1.0  0.78069  0.27040  0.80870  1.0000
  H   H1314     1.0  0.78885  0.26984  0.76952  1.0000
  H   H1315     1.0  0.85592  0.25171  0.77503  1.0000
  H   H1316     1.0  0.84789  0.25370  0.81416  1.0000
  C   C1094     1.0  0.70881  0.32491  0.94378  1.0000
  C   C1095     1.0  0.68872  0.32400  0.93808  1.0000
  C   C1096     1.0  0.68692  0.31118  0.92290  1.0000
  C   C1097     1.0  0.70518  0.29914  0.91325  1.0000
  C   C1098     1.0  0.72536  0.30011  0.91877  1.0000
  C   C1099     1.0  0.72716  0.31302  0.93398  1.0000
  H   H1317     1.0  0.67454  0.33341  0.94517  1.0000
  H   H1318     1.0  0.67129  0.31062  0.91865  1.0000
  H   H1319     1.0  0.73954  0.29094  0.91135  1.0000
  H   H1320     1.0  0.74274  0.31368  0.93831  1.0000
  C   C1100     1.0  0.94227  0.17170  0.93966  1.0000
  C   C1101     1.0  0.92519  0.16330  0.95353  1.0000
  H   H1321     1.0  0.66848  0.29415  0.77660  1.0000
  H   H1322     1.0  0.91535  0.17247  0.96521  1.0000
  C   C1102     1.0  0.79486  0.19378  0.96513  1.0000
  C   C1103     1.0  0.78055  0.21032  0.95600  1.0000
  C   C1104     1.0  0.77218  0.20853  0.93743  1.0000
  C   C1105     1.0  0.77792  0.19006  0.92794  1.0000
  H   H1323     1.0  0.62525  0.41903  0.97590  1.0000
  H   H1324     1.0  0.77627  0.22478  0.96305  1.0000
  H   H1325     1.0  0.76119  0.22140  0.93055  1.0000
  C   C1106     1.0  0.72816  0.24404  0.97326  1.0000
  C   C1107     1.0  0.86064  0.17264  0.87904  1.0000
  C   C1108     1.0  0.66478  0.21141  0.80390  1.0000
  C   C1109     1.0  0.67110  0.20975  0.82429  1.0000
  C   C1110     1.0  0.69042  0.21649  0.82658  1.0000
  C   C1111     1.0  0.70369  0.22445  0.80843  1.0000
  C   C1112     1.0  0.69750  0.22575  0.78808  1.0000
  C   C1113     1.0  0.67800  0.21952  0.78582  1.0000
  H   H1326     1.0  0.66093  0.20343  0.83832  1.0000
  H   H1327     1.0  0.69518  0.21527  0.84232  1.0000
  H   H1328     1.0  0.70772  0.23176  0.77397  1.0000
  H   H1329     1.0  0.67327  0.22083  0.77006  1.0000
  C   C1114     1.0  0.55218  0.33556  0.94014  1.0000
  C   C1115     1.0  0.55980  0.32870  0.95998  1.0000
  C   C1116     1.0  0.57754  0.33649  0.96500  1.0000
  C   C1117     1.0  0.58769  0.35140  0.95024  1.0000
  C   C1118     1.0  0.57993  0.35841  0.93050  1.0000
  C   C1119     1.0  0.56234  0.35050  0.92541  1.0000
  H   H1330     1.0  0.55201  0.31718  0.97150  1.0000
  H   H1331     1.0  0.58761  0.37005  0.91903  1.0000
  H   H1332     1.0  0.55657  0.35603  0.91015  1.0000
  C   C1120     1.0  0.56349  0.29308  0.81595  1.0000
  C   C1121     1.0  0.57845  0.27555  0.81111  1.0000
  C   C1122     1.0  0.57863  0.26679  0.79240  1.0000
  C   C1123     1.0  0.56397  0.27571  0.77819  1.0000
  C   C1124     1.0  0.54872  0.29311  0.78314  1.0000
  C   C1125     1.0  0.54835  0.30170  0.80212  1.0000
  H   H1333     1.0  0.58966  0.26847  0.82211  1.0000
  H   H1334     1.0  0.58994  0.25294  0.78911  1.0000
  H   H1335     1.0  0.53733  0.30007  0.77220  1.0000
  H   H1336     1.0  0.53678  0.31531  0.80572  1.0000
  H   H1337     1.0  0.50644  0.22368  0.86188  1.0000
  H   H1338     1.0  0.94543  0.18735  0.94077  1.0000
  C   C1126     1.0  0.67244  0.28039  0.82769  1.0000
  S   S309      1.0  0.60983  0.36218  0.95552  1.0000
  C   C1127     1.0  0.50131  0.23216  0.84651  1.0000
  C   C1128     1.0  0.56926  0.41260  0.95617  1.0000
  S   S310      1.0  0.65528  0.37886  0.97315  1.0000
  H   H1339     1.0  0.92009  0.20564  0.87422  1.0000
  Fe  Fe155     1.0  0.99255  0.14441  0.83582  1.0000
  H   H1340     1.0  0.68006  0.26527  0.82312  1.0000
  H   H1341     1.0  0.67570  0.26736  0.78837  1.0000
  S   S311      1.0  0.99048  0.17636  0.84545  1.0000
  N   N73       1.0  0.82970  0.23471  0.90915  1.0000
  C   C1129     1.0  0.82044  0.21701  0.90379  1.0000
  C   C1130     1.0  0.81633  0.24265  0.92827  1.0000
  C   C1131     1.0  0.82814  0.25209  0.89091  1.0000
  C   C1132     1.0  0.85194  0.22717  0.91383  1.0000
  C   C1133     1.0  0.85593  0.21066  0.93094  1.0000
  C   C1134     1.0  0.87009  0.23588  0.90195  1.0000
  C   C1135     1.0  0.87671  0.20350  0.93592  1.0000
  C   C1136     1.0  0.89081  0.22864  0.90718  1.0000
  C   C1137     1.0  0.89410  0.21249  0.92410  1.0000
  H   H1342     1.0  0.81946  0.20385  0.91724  1.0000
  H   H1343     1.0  0.80376  0.22205  0.89989  1.0000
  H   H1344     1.0  0.83015  0.21053  0.88960  1.0000
  H   H1345     1.0  0.82269  0.25614  0.93265  1.0000
  H   H1346     1.0  0.81582  0.23039  0.94260  1.0000
  H   H1347     1.0  0.79934  0.24808  0.92549  1.0000
  H   H1348     1.0  0.83420  0.26632  0.89395  1.0000
  H   H1349     1.0  0.83698  0.24705  0.87561  1.0000
  H   H1350     1.0  0.81117  0.25735  0.88794  1.0000
  H   H1351     1.0  0.84295  0.20325  0.94077  1.0000
  H   H1352     1.0  0.86870  0.24844  0.88867  1.0000
  H   H1353     1.0  0.87934  0.19093  0.94912  1.0000
  H   H1354     1.0  0.90440  0.23576  0.89820  1.0000
  H   H1355     1.0  0.91015  0.20703  0.92817  1.0000
  H   H1356     1.0  0.59445  0.19852  0.81749  1.0000
  H   H1357     1.0  0.87635  0.05483  0.98822  1.0000
  C   C1138     1.0  0.64121  0.27688  0.89316  1.0000
  H   H1358     1.0  0.91542  0.17180  0.83341  1.0000
  H   H1359     1.0  0.84351  0.16262  0.91002  1.0000
  H   H1360     1.0  0.92889  0.14240  0.85978  1.0000
  H   H1361     1.0  0.95169  0.15582  0.85747  1.0000
  C   C1139     1.0  0.65464  0.25988  0.88490  1.0000
  C   C1140     1.0  0.77956  0.18591  0.79333  1.0000
  C   C1141     1.0  0.88062  0.17596  0.86719  1.0000
  C   C1142     1.0  0.89962  0.17199  0.87712  1.0000
  H   H1362     1.0  0.53610  0.22153  0.74256  1.0000
  H   H1363     1.0  0.70682  0.29385  0.98236  1.0000
  C   C1143     1.0  0.56059  0.44947  0.96095  1.0000
  C   C1144     1.0  0.54454  0.45192  0.94776  1.0000
  N   N74       1.0  0.60506  0.29899  0.90019  1.0000
  H   H1364     1.0  0.77330  0.22789  0.78951  1.0000
  H   H1365     1.0  0.52840  0.43672  0.92864  1.0000
  H   H1366     1.0  0.72930  0.23354  0.96138  1.0000
  C   C1145     1.0  0.71707  0.26442  0.96985  1.0000
  H   H1367     1.0  0.49895  0.22011  0.83688  1.0000
  H   H1368     1.0  0.93127  0.11550  0.93631  1.0000
  N   N75       1.0  0.51718  0.24591  0.83502  1.0000
  H   H1369     1.0  0.93736  0.18542  0.83376  1.0000
  C   C1146     1.0  0.81695  0.19981  0.74745  1.0000
  C   C1147     1.0  0.53844  0.23292  0.83074  1.0000
  S   S312      1.0  0.97574  0.17194  0.90648  1.0000
  H   H1370     1.0  0.91743  0.18485  0.77015  1.0000
  C   C1148     1.0  0.55676  0.23545  0.83972  1.0000
  H   H1371     1.0  0.78758  0.23261  0.76312  1.0000
  H   H1372     1.0  0.52128  0.25605  0.86460  1.0000
  H   H1373     1.0  0.59466  0.30897  0.93139  1.0000
  C   C1149     1.0  0.60573  0.29633  0.92364  1.0000
  C   C1150     1.0  0.67228  0.30754  0.84965  1.0000
  C   C1151     1.0  0.51724  0.26274  0.84830  1.0000
  C   C1152     1.0  0.79817  0.19070  0.75688  1.0000
  H   H1374     1.0  0.65706  0.23357  0.86762  1.0000
  C   C1153     1.0  0.95532  0.16002  0.92441  1.0000
  C   C1154     1.0  0.79197  0.17333  0.93726  1.0000
  H   H1375     1.0  0.65135  0.25076  0.81775  1.0000
  C   C1155     1.0  0.68121  0.28821  0.84297  1.0000
  H   H1376     1.0  0.69500  0.27917  0.84983  1.0000
  H   H1377     1.0  0.67927  0.31346  0.86153  1.0000
  C   C1156     1.0  0.78622  0.22073  0.77772  1.0000
  C   C1157     1.0  0.93053  0.19010  0.87468  1.0000
  H   H1378     1.0  0.67148  0.25688  0.88709  1.0000
  Fe  Fe156     1.0  0.63104  0.35612  0.98218  1.0000
  C   C1158     1.0  0.66195  0.27931  0.78390  1.0000
  N   N76       1.0  0.64520  0.28299  0.80251  1.0000
  C   C1159     1.0  0.65448  0.31917  0.84105  1.0000
  H   H1379     1.0  0.63092  0.31237  0.78588  1.0000
  H   H1380     1.0  0.79638  0.15896  0.93003  1.0000
  H   H1381     1.0  0.58327  0.33102  0.98028  1.0000
  H   H1382     1.0  0.57497  0.28646  0.90464  1.0000
  C   C1160     1.0  0.62649  0.29691  0.79420  1.0000
  C   C1161     1.0  0.63797  0.26259  0.81236  1.0000
  C   C1162     1.0  0.64543  0.31146  0.82581  1.0000
  H   H1383     1.0  0.63161  0.32125  0.81989  1.0000
  H   H1384     1.0  0.63087  0.25535  0.80094  1.0000
  C   C1163     1.0  0.80057  0.17523  0.95573  1.0000
  H   H1385     1.0  0.50118  0.27247  0.85090  1.0000
  C   C1164     1.0  0.87730  0.16121  0.91111  1.0000
  C   C1165     1.0  0.64653  0.24677  0.87391  1.0000
  H   H1386     1.0  0.61997  0.28970  0.78233  1.0000
  H   H1387     1.0  0.56310  0.19292  0.80194  1.0000
  H   H1388     1.0  0.61291  0.29982  0.80726  1.0000
  H   H1389     1.0  0.62572  0.26469  0.82662  1.0000
  H   H1390     1.0  0.84636  0.17557  0.87114  1.0000
  H   H1391     1.0  0.81152  0.16236  0.96271  1.0000
  H   H1392     1.0  0.72051  0.26266  0.74989  1.0000
  C   C1166     1.0  0.96952  0.18093  0.79578  1.0000
  H   H1393     1.0  0.70964  0.26977  0.95540  1.0000
  C   C1167     1.0  0.54126  0.21701  0.81720  1.0000
  C   C1168     1.0  0.92106  0.14302  0.95238  1.0000
  C   C1169     1.0  0.93427  0.13123  0.93730  1.0000
  N   N77       1.0  0.92113  0.17492  0.86516  1.0000
  H   H1394     1.0  0.94672  0.19277  0.86604  1.0000
  H   H1395     1.0  0.97003  0.21335  0.78166  1.0000
  C   C1170     1.0  0.50989  0.25636  0.81443  1.0000
  C   C1171     1.0  0.89728  0.16457  0.89945  1.0000
  H   H1396     1.0  0.56265  0.46339  0.96723  1.0000
  H   H1397     1.0  0.59479  0.26981  0.87629  1.0000
  H   H1398     1.0  0.74790  0.21344  0.77537  1.0000
  C   C1172     1.0  0.54082  0.43480  0.93887  1.0000
  C   C1173     1.0  0.62492  0.25061  0.87111  1.0000
  C   C1174     1.0  0.92094  0.18310  0.84204  1.0000
  N   N78       1.0  0.78154  0.20045  0.77284  1.0000
  C   C1175     1.0  0.76052  0.20471  0.76460  1.0000
  H   H1399     1.0  0.55037  0.40178  0.93616  1.0000
  H   H1400     1.0  0.98430  0.17989  0.80236  1.0000
  C   C1176     1.0  0.97732  0.26150  0.75188  1.0000
  H   H1401     1.0  0.64844  0.28657  0.90149  1.0000
  Fe  Fe157     1.0  0.49578  0.35380  0.86521  1.0000
  H   H1402     1.0  0.97394  0.27821  0.75503  1.0000
  H   H1403     1.0  0.89482  0.07264  0.97554  1.0000
  H   H1404     1.0  0.76168  0.21440  0.74854  1.0000
  H   H1405     1.0  0.91099  0.16114  0.90808  1.0000
  H   H1406     1.0  0.59056  0.22543  0.84160  1.0000
  H   H1407     1.0  0.91071  0.19871  0.83958  1.0000
  H   H1408     1.0  0.61867  0.24023  0.86268  1.0000
  Fe  Fe158     1.0  0.59533  0.24291  0.74750  1.0000
  S   S313      1.0  0.89946  0.13180  0.96904  1.0000
  H   H1409     1.0  0.93299  0.18444  0.89160  1.0000
  H   H1410     1.0  0.57204  0.31422  0.90440  1.0000
  C   C1177     1.0  0.61131  0.26764  0.87921  1.0000
  H   H1411     1.0  0.93801  0.14786  0.88328  1.0000
  H   H1412     1.0  0.52870  0.27384  0.84049  1.0000
  C   C1178     1.0  0.61286  0.31915  0.89029  1.0000
  C   C1179     1.0  0.58216  0.30085  0.89702  1.0000
  S   S314      1.0  0.80560  0.19734  0.98785  1.0000
  H   H1413     1.0  0.50635  0.24498  0.80466  1.0000
  H   H1414     1.0  0.62944  0.31973  0.89335  1.0000
  H   H1415     1.0  0.59596  0.45871  0.97735  1.0000
  H   H1416     1.0  0.79516  0.18201  0.79985  1.0000
  C   C1180     1.0  0.56122  0.20477  0.81257  1.0000
  S   S315      1.0  0.62686  0.24784  0.75566  1.0000
  H   H1417     1.0  0.75636  0.27127  0.75211  1.0000
  H   H1418     1.0  0.88078  0.18144  0.85026  1.0000
  C   C1181     1.0  0.85899  0.16530  0.90094  1.0000
  H   H1419     1.0  0.52806  0.21403  0.80997  1.0000
  H   H1420     1.0  0.60090  0.28091  0.93164  1.0000
  H   H1421     1.0  0.57851  0.39712  0.95875  1.0000
  C   C1182     1.0  0.71548  0.27797  0.98506  1.0000
  H   H1422     1.0  0.60252  0.33293  0.89682  1.0000
  H   H1423     1.0  0.55627  0.24716  0.85011  1.0000
  H   H1424     1.0  0.77435  0.17083  0.79157  1.0000
  H   H1425     1.0  0.96360  0.25345  0.76056  1.0000
  S   S316      1.0  0.50044  0.32639  0.84628  1.0000
  H   H1426     1.0  0.61290  0.40597  0.95956  1.0000
  C   C1183     1.0  0.55317  0.41516  0.94308  1.0000
  C   C1184     1.0  0.57342  0.42959  0.96565  1.0000
  H   H1427     1.0  0.54256  0.15265  0.74652  1.0000
  S   S317      1.0  0.87814  0.21466  0.74201  1.0000
  H   H1428     1.0  0.78185  0.16368  0.75652  1.0000
  H   H1429     1.0  0.75426  0.19003  0.76329  1.0000
  H   H1430     1.0  0.82065  0.21405  0.75194  1.0000
  H   H1431     1.0  0.58020  0.30396  0.87972  1.0000
  H   H1432     1.0  0.53494  0.46720  0.94436  1.0000
  Fe  Fe159     1.0  0.67932  0.35097  0.98282  1.0000
  H   H1433     1.0  0.99159  0.25372  0.75959  1.0000
  H   H1434     1.0  0.57436  0.17131  0.74364  1.0000
  C   C1185     1.0  0.61175  0.42101  0.96625  1.0000
  S   S318      1.0  0.82789  0.25847  0.74209  1.0000
  C   C1186     1.0  0.75441  0.26245  0.73965  1.0000
  N   N79       1.0  0.59069  0.42632  0.97937  1.0000
  Fe  Fe160     1.0  0.74560  0.60178  0.23784  1.0000
  N   N80       1.0  0.71360  0.76177  0.18426  1.0000
  H   H1435     1.0  0.51772  0.62948  0.06993  1.0000
  Fe  Fe161     1.0  0.52992  0.68131  0.11797  1.0000
  S   S319      1.0  0.53346  0.65282  0.14271  1.0000
  S   S320      1.0  0.54938  0.70769  0.11763  1.0000
  Fe  Fe162     1.0  0.53725  0.63416  0.11526  1.0000
  S   S321      1.0  0.56887  0.61379  0.10581  1.0000
  C   C1187     1.0  0.66933  0.49297  0.21224  1.0000
  C   C1188     1.0  0.63011  0.87405  0.23570  1.0000
  S   S322      1.0  0.53522  0.66289  0.09024  1.0000
  H   H1436     1.0  0.56708  0.62521  0.05995  1.0000
  C   C1189     1.0  0.55597  0.59004  0.05408  1.0000
  S   S323      1.0  0.63639  0.74335  0.19301  1.0000
  Fe  Fe163     1.0  0.49966  0.66190  0.09502  1.0000
  S   S324      1.0  0.65785  0.50690  0.15329  1.0000
  S   S325      1.0  0.59661  0.77105  0.21997  1.0000
  C   C1190     1.0  0.90034  0.88688  0.17222  1.0000
  Fe  Fe164     1.0  0.60396  0.73814  0.21109  1.0000
  S   S326      1.0  0.57839  0.71991  0.20515  1.0000
  Fe  Fe165     1.0  0.63059  0.77472  0.20535  1.0000
  S   S327      1.0  0.64027  0.80407  0.18449  1.0000
  H   H1437     1.0  0.96546  0.88703  0.17870  1.0000
  C   C1191     1.0  0.75152  0.79478  0.21449  1.0000
  Fe  Fe166     1.0  0.63833  0.50493  0.12755  1.0000
  S   S328      1.0  0.66267  0.51573  0.10002  1.0000
  S   S329      1.0  0.60245  0.51654  0.13182  1.0000
  C   C1192     1.0  0.86843  0.92201  0.16194  1.0000
  Fe  Fe167     1.0  0.68297  0.51612  0.12597  1.0000
  S   S330      1.0  0.69661  0.54572  0.12880  1.0000
  Fe  Fe168     1.0  0.49796  0.65391  0.14309  1.0000
  C   C1193     1.0  0.91142  0.85261  0.19188  1.0000
  S   S331      1.0  0.68268  0.71272  0.21955  1.0000
  C   C1194     1.0  0.52707  0.61336  0.07048  1.0000
  S   S332      1.0  0.76016  0.60809  0.20342  1.0000
  H   H1438     1.0  0.93364  0.90653  0.19821  1.0000
  H   H1439     1.0  0.54772  0.64356  0.04716  1.0000
  S   S333      1.0  0.80287  0.57530  0.21683  1.0000
  H   H1440     1.0  0.71069  0.53713  0.19560  1.0000
  Fe  Fe169     1.0  0.79012  0.60978  0.21742  1.0000
  S   S334      1.0  0.80794  0.63801  0.20688  1.0000
  Fe  Fe170     1.0  0.77115  0.57299  0.20634  1.0000
  S   S335      1.0  0.76981  0.54832  0.18510  1.0000
  H   H1441     1.0  0.89654  0.77471  0.20632  1.0000
  C   C1195     1.0  0.97284  0.92621  0.21634  1.0000
  C   C1196     1.0  0.75717  0.77316  0.21404  1.0000
  H   H1442     1.0  0.56740  0.62692  0.03148  1.0000
  H   H1443     1.0  0.56572  0.58915  0.06736  1.0000
  S   S336      1.0  0.70235  0.86348  0.20431  1.0000
  H   H1444     1.0  0.95130  0.71003  0.18340  1.0000
  S   S337      1.0  0.50172  0.63192  0.11823  1.0000
  H   H1445     1.0  0.53502  0.72609  0.22304  1.0000
  H   H1446     1.0  0.72748  0.64464  0.21395  1.0000
  S   S338      1.0  0.90825  0.94625  0.18827  1.0000
  C   C1197     1.0  0.85895  0.91790  0.20015  1.0000
  S   S339      1.0  0.85412  0.97650  0.20134  1.0000
  C   C1198     1.0  0.53825  0.77174  0.21262  1.0000
  H   H1447     1.0  0.94061  0.94259  0.22318  1.0000
  H   H1448     1.0  0.51542  0.60184  0.07320  1.0000
  H   H1449     1.0  0.77511  0.67687  0.21951  1.0000
  C   C1199     1.0  0.99297  0.92585  0.20284  1.0000
  C   C1200     1.0  0.78537  0.91614  0.23025  1.0000
  C   C1201     1.0  0.52978  0.61329  0.03250  1.0000
  C   C1202     1.0  0.70877  0.53980  0.21263  1.0000
  H   H1450     1.0  0.66028  0.80365  0.22342  1.0000
  H   H1451     1.0  0.56752  0.58695  0.03948  1.0000
  C   C1203     1.0  0.94064  0.75736  0.22153  1.0000
  C   C1204     1.0  0.50024  0.77744  0.21057  1.0000
  C   C1205     1.0  0.94326  0.77786  0.21154  1.0000
  H   H1452     1.0  0.96787  0.77059  0.15436  1.0000
  C   C1206     1.0  0.95843  0.74163  0.22266  1.0000
  H   H1453     1.0  0.70398  0.78808  0.16046  1.0000
  H   H1454     1.0  0.87124  0.78339  0.15590  1.0000
  C   C1207     1.0  0.98161  0.76727  0.20384  1.0000
  C   C1208     1.0  0.72159  0.73891  0.18413  1.0000
  N   N81       1.0  0.86265  0.90665  0.18115  1.0000
  C   C1209     1.0  0.51740  0.63298  0.02612  1.0000
  C   C1210     1.0  0.72201  0.79491  0.19486  1.0000
  C   C1211     1.0  0.71329  0.65281  0.22242  1.0000
  S   S340      1.0  0.96516  0.80809  0.18755  1.0000
  C   C1212     1.0  0.82366  0.51934  0.22084  1.0000
  H   H1455     1.0  0.85504  0.93522  0.15944  1.0000
  C   C1213     1.0  0.95702  0.93003  0.14122  1.0000
  C   C1214     1.0  0.93024  0.93268  0.17287  1.0000
  C   C1215     1.0  0.94005  0.91311  0.18224  1.0000
  C   C1216     1.0  0.93864  0.94105  0.15220  1.0000
  H   H1456     1.0  0.93128  0.95619  0.14488  1.0000
  C   C1217     1.0  0.80022  0.94515  0.19505  1.0000
  C   C1218     1.0  0.78613  0.93136  0.19274  1.0000
  C   C1219     1.0  0.77870  0.91691  0.21027  1.0000
  H   H1457     1.0  0.74075  0.49547  0.23106  1.0000
  H   H1458     1.0  0.79130  0.49896  0.19478  1.0000
  C   C1220     1.0  0.80644  0.94466  0.21517  1.0000
  H   H1459     1.0  0.78107  0.93173  0.17727  1.0000
  H   H1460     1.0  0.76793  0.90631  0.20827  1.0000
  C   C1221     1.0  0.89123  0.85346  0.20426  1.0000
  Fe  Fe171     1.0  0.71995  0.85884  0.23293  1.0000
  H   H1461     1.0  0.72876  0.77177  0.15239  1.0000
  C   C1222     1.0  0.95821  0.90205  0.17122  1.0000
  H   H1462     1.0  0.76064  0.80310  0.22248  1.0000
  C   C1223     1.0  0.51921  0.72075  0.22905  1.0000
  C   C1224     1.0  0.83437  0.66151  0.21972  1.0000
  H   H1463     1.0  0.84460  0.88978  0.16560  1.0000
  H   H1464     1.0  0.68103  0.75470  0.18986  1.0000
  C   C1225     1.0  0.87946  0.88813  0.18434  1.0000
  H   H1465     1.0  0.83015  0.67320  0.20637  1.0000
  C   C1226     1.0  0.95885  0.95952  0.19677  1.0000
  N   N82       1.0  0.71321  0.51965  0.22708  1.0000
  C   C1227     1.0  0.72713  0.77283  0.19427  1.0000
  H   H1466     1.0  0.71092  0.73103  0.17670  1.0000
  H   H1467     1.0  0.51316  0.58518  0.99842  1.0000
  H   H1468     1.0  0.99146  0.88369  0.21751  1.0000
  C   C1228     1.0  0.71638  0.54591  0.14531  1.0000
  C   C1229     1.0  0.71834  0.56496  0.15221  1.0000
  C   C1230     1.0  0.73440  0.56592  0.16469  1.0000
  C   C1231     1.0  0.74905  0.54792  0.16984  1.0000
  C   C1232     1.0  0.74720  0.52891  0.16281  1.0000
  C   C1233     1.0  0.73069  0.52778  0.15096  1.0000
  H   H1469     1.0  0.70747  0.57908  0.14774  1.0000
  H   H1470     1.0  0.73575  0.58066  0.16989  1.0000
  H   H1471     1.0  0.75857  0.51496  0.16657  1.0000
  H   H1472     1.0  0.72944  0.51308  0.14560  1.0000
  S   S341      1.0  0.99036  0.89723  0.13690  1.0000
  C   C1234     1.0  0.81274  0.51671  0.20448  1.0000
  H   H1473     1.0  0.53550  0.61063  0.08482  1.0000
  C   C1235     1.0  0.49628  0.78722  0.22911  1.0000
  H   H1474     1.0  0.69225  0.54805  0.21699  1.0000
  C   C1236     1.0  0.52811  0.59609  0.02185  1.0000
  C   C1237     1.0  0.73406  0.80565  0.20482  1.0000
  H   H1475     1.0  0.55448  0.76547  0.20624  1.0000
  H   H1476     1.0  0.93185  0.86877  0.16665  1.0000
  C   C1238     1.0  0.76188  0.66924  0.22981  1.0000
  C   C1239     1.0  0.65657  0.82050  0.19190  1.0000
  C   C1240     1.0  0.66224  0.83759  0.17687  1.0000
  C   C1241     1.0  0.67602  0.85061  0.18119  1.0000
  C   C1242     1.0  0.68456  0.84666  0.20052  1.0000
  C   C1243     1.0  0.67882  0.82968  0.21586  1.0000
  C   C1244     1.0  0.66464  0.81671  0.21163  1.0000
  H   H1477     1.0  0.65606  0.84071  0.16165  1.0000
  H   H1478     1.0  0.68030  0.86369  0.16928  1.0000
  C   C1245     1.0  0.69156  0.76362  0.19621  1.0000
  H   H1479     1.0  0.54618  0.57689  0.05895  1.0000
  H   H1480     1.0  0.72175  0.73032  0.20072  1.0000
  C   C1246     1.0  0.57750  0.58671  0.11357  1.0000
  C   C1247     1.0  0.59888  0.57857  0.10668  1.0000
  C   C1248     1.0  0.60674  0.55718  0.11246  1.0000
  C   C1249     1.0  0.59315  0.54363  0.12484  1.0000
  C   C1250     1.0  0.57163  0.55170  0.13147  1.0000
  C   C1251     1.0  0.56383  0.57325  0.12600  1.0000
  H   H1481     1.0  0.60954  0.58888  0.09698  1.0000
  H   H1482     1.0  0.62329  0.55112  0.10718  1.0000
  H   H1483     1.0  0.56103  0.54126  0.14104  1.0000
  H   H1484     1.0  0.54732  0.57934  0.13136  1.0000
  N   N83       1.0  0.54230  0.61089  0.05061  1.0000
  H   H1485     1.0  0.87464  0.78940  0.19355  1.0000
  H   H1486     1.0  0.87422  0.92215  0.20346  1.0000
  H   H1487     1.0  0.73797  0.73629  0.17494  1.0000
  H   H1488     1.0  0.65774  0.49580  0.20101  1.0000
  C   C1252     1.0  0.55727  0.71138  0.14194  1.0000
  C   C1253     1.0  0.57226  0.72513  0.14170  1.0000
  C   C1254     1.0  0.57909  0.72792  0.16088  1.0000
  C   C1255     1.0  0.57085  0.71701  0.18043  1.0000
  C   C1256     1.0  0.55588  0.70332  0.18061  1.0000
  C   C1257     1.0  0.54910  0.70052  0.16151  1.0000
  H   H1489     1.0  0.57861  0.73364  0.12661  1.0000
  H   H1490     1.0  0.59058  0.73858  0.16054  1.0000
  H   H1491     1.0  0.54944  0.69478  0.19559  1.0000
  H   H1492     1.0  0.53737  0.69012  0.16198  1.0000
  H   H1493     1.0  0.68085  0.52199  0.20070  1.0000
  C   C1258     1.0  0.84215  0.89985  0.17859  1.0000
  H   H1494     1.0  0.74730  0.52140  0.22085  1.0000
  C   C1259     1.0  0.95612  0.94286  0.21324  1.0000
  H   H1495     1.0  0.74698  0.67538  0.22265  1.0000
  H   H1496     1.0  0.69172  0.75734  0.21349  1.0000
  H   H1497     1.0  0.72974  0.82251  0.20514  1.0000
  H   H1498     1.0  0.53203  0.67830  0.23146  1.0000
  C   C1260     1.0  0.96361  0.78280  0.20228  1.0000
  H   H1499     1.0  0.77077  0.76484  0.22171  1.0000
  H   H1500     1.0  0.97874  0.73268  0.16659  1.0000
  H   H1501     1.0  0.51700  0.64658  0.03410  1.0000
  H   H1502     1.0  0.92938  0.78987  0.21052  1.0000
  H   H1503     1.0  0.88243  0.92958  0.16361  1.0000
  H   H1504     1.0  0.70317  0.76288  0.15347  1.0000
  C   C1261     1.0  0.91596  0.86929  0.17595  1.0000
  H   H1505     1.0  0.99283  0.73457  0.21495  1.0000
  H   H1506     1.0  0.92375  0.83916  0.19482  1.0000
  C   C1262     1.0  0.70618  0.67411  0.21532  1.0000
  H   H1507     1.0  0.90145  0.79520  0.18437  1.0000
  H   H1508     1.0  0.88788  0.84061  0.21689  1.0000
  H   H1509     1.0  0.82982  0.91363  0.17443  1.0000
  H   H1510     1.0  0.72019  0.55096  0.21321  1.0000
  H   H1511     1.0  0.50746  0.73496  0.23228  1.0000
  H   H1512     1.0  0.76542  0.65205  0.22843  1.0000
  H   H1513     1.0  0.85191  0.90836  0.21488  1.0000
  S   S342      1.0  0.81042  0.96201  0.17227  1.0000
  H   H1514     1.0  0.84773  0.93286  0.19766  1.0000
  C   C1263     1.0  0.82572  0.64245  0.22365  1.0000
  C   C1264     1.0  0.80032  0.50043  0.20738  1.0000
  H   H1515     1.0  0.94553  0.97199  0.19407  1.0000
  N   N84       1.0  0.89484  0.76627  0.17553  1.0000
  C   C1265     1.0  0.89177  0.78216  0.19046  1.0000
  C   C1266     1.0  0.88865  0.77690  0.15455  1.0000
  C   C1267     1.0  0.87974  0.75079  0.18436  1.0000
  C   C1268     1.0  0.91770  0.75659  0.17275  1.0000
  C   C1269     1.0  0.93399  0.76915  0.16337  1.0000
  C   C1270     1.0  0.92456  0.73488  0.17969  1.0000
  C   C1271     1.0  0.95570  0.76050  0.16090  1.0000
  C   C1272     1.0  0.94634  0.72644  0.17727  1.0000
  C   C1273     1.0  0.96186  0.73919  0.16785  1.0000
  H   H1516     1.0  0.75729  0.96810  0.22380  1.0000
  H   H1517     1.0  0.71507  0.68225  0.20142  1.0000
  H   H1518     1.0  0.66770  0.88495  0.23364  1.0000
  H   H1519     1.0  0.89748  0.79044  0.14785  1.0000
  H   H1520     1.0  0.86027  0.87121  0.21103  1.0000
  H   H1521     1.0  0.89194  0.76565  0.14254  1.0000
  H   H1522     1.0  0.88258  0.74315  0.20075  1.0000
  H   H1523     1.0  0.86268  0.75849  0.18618  1.0000
  H   H1524     1.0  0.88109  0.73833  0.17390  1.0000
  H   H1525     1.0  0.93019  0.78594  0.15851  1.0000
  H   H1526     1.0  0.91354  0.72411  0.18747  1.0000
  C   C1274     1.0  0.51470  0.59857  0.00599  1.0000
  C   C1275     1.0  0.52117  0.76988  0.20224  1.0000
  H   H1527     1.0  0.51444  0.71441  0.21559  1.0000
  H   H1528     1.0  0.57224  0.65696  0.16401  1.0000
  H   H1529     1.0  0.83045  0.80227  0.22646  1.0000
  H   H1530     1.0  0.62181  0.88896  0.22759  1.0000
  H   H1531     1.0  0.53663  0.58046  0.02577  1.0000
  C   C1276     1.0  0.71242  0.77155  0.16169  1.0000
  H   H1532     1.0  0.68345  0.78019  0.19514  1.0000
  H   H1533     1.0  0.96939  0.91370  0.22918  1.0000
  H   H1534     1.0  0.64307  0.86756  0.22353  1.0000
  S   S343      1.0  0.75585  0.85016  0.23180  1.0000
  H   H1535     1.0  0.55234  0.69153  0.23712  1.0000
  H   H1536     1.0  0.70844  0.80405  0.18783  1.0000
  H   H1537     1.0  0.81702  0.95533  0.21726  1.0000
  C   C1277     1.0  0.74604  0.97209  0.23776  1.0000
  H   H1538     1.0  0.67469  0.61705  0.15035  1.0000
  S   S344      1.0  0.86671  0.97836  0.14905  1.0000
  H   H1539     1.0  0.83281  0.53240  0.21878  1.0000
  C   C1278     1.0  0.96693  0.91052  0.15073  1.0000
  H   H1540     1.0  0.73788  0.50643  0.20395  1.0000
  H   H1541     1.0  0.75035  0.74544  0.20465  1.0000
  C   C1279     1.0  0.50425  0.63530  0.01011  1.0000
  H   H1542     1.0  0.87207  0.91442  0.14709  1.0000
  C   C1280     1.0  0.74522  0.76222  0.20412  1.0000
  H   H1543     1.0  0.90522  0.89947  0.16004  1.0000
  S   S345      1.0  0.64507  0.76289  0.23537  1.0000
  N   N85       1.0  0.60363  0.65030  0.14578  1.0000
  C   C1281     1.0  0.58543  0.64358  0.16163  1.0000
  C   C1282     1.0  0.60981  0.66912  0.15250  1.0000
  C   C1283     1.0  0.59608  0.65701  0.12458  1.0000
  C   C1284     1.0  0.62136  0.63239  0.14433  1.0000
  C   C1285     1.0  0.64243  0.63336  0.14857  1.0000
  C   C1286     1.0  0.61778  0.61311  0.13859  1.0000
  C   C1287     1.0  0.65871  0.61605  0.14710  1.0000
  C   C1288     1.0  0.63414  0.59590  0.13730  1.0000
  C   C1289     1.0  0.65458  0.59738  0.14147  1.0000
  H   H1544     1.0  0.57808  0.63112  0.15650  1.0000
  H   H1545     1.0  0.59073  0.63723  0.17751  1.0000
  Fe  Fe172     1.0  0.64917  0.73109  0.22415  1.0000
  H   H1546     1.0  0.61497  0.66547  0.16871  1.0000
  H   H1547     1.0  0.59610  0.68222  0.15345  1.0000
  H   H1548     1.0  0.62284  0.67564  0.14079  1.0000
  H   H1549     1.0  0.58305  0.67080  0.12490  1.0000
  H   H1550     1.0  0.60942  0.66156  0.11201  1.0000
  H   H1551     1.0  0.58935  0.64435  0.11916  1.0000
  H   H1552     1.0  0.64678  0.64727  0.15308  1.0000
  H   H1553     1.0  0.60224  0.61116  0.13503  1.0000
  C   C1290     1.0  0.68288  0.50790  0.21223  1.0000
  H   H1554     1.0  0.63103  0.58126  0.13302  1.0000
  H   H1555     1.0  0.66723  0.58398  0.14029  1.0000
  C   C1291     1.0  0.97899  0.74668  0.21403  1.0000
  H   H1556     1.0  0.83459  0.89102  0.19354  1.0000
  H   H1557     1.0  0.96364  0.93674  0.12537  1.0000
  C   C1292     1.0  0.87549  0.87098  0.20067  1.0000
  S   S346      1.0  0.95497  0.71558  0.23433  1.0000
  C   C1293     1.0  0.55669  0.62735  0.04706  1.0000
  H   H1558     1.0  0.81342  0.52768  0.18969  1.0000
  C   C1294     1.0  0.68809  0.68510  0.22645  1.0000
  Fe  Fe173     1.0  0.88424  0.97460  0.17753  1.0000
  C   C1295     1.0  0.69859  0.50426  0.22647  1.0000
  C   C1296     1.0  0.50274  0.61809  0.00022  1.0000
  S   S347      1.0  0.89379  0.70860  0.23419  1.0000
  C   C1297     1.0  0.73573  0.51031  0.22057  1.0000
  C   C1298     1.0  0.97844  0.95982  0.18348  1.0000
  H   H1559     1.0  0.98037  0.97277  0.17057  1.0000
  H   H1560     1.0  0.52414  0.76218  0.18794  1.0000
  H   H1561     1.0  0.85539  0.68005  0.22956  1.0000
  S   S348      1.0  0.85790  0.76338  0.23652  1.0000
  C   C1299     1.0  0.53451  0.78148  0.23118  1.0000
  C   C1300     1.0  0.84863  0.66542  0.23284  1.0000
  H   H1562     1.0  0.68551  0.82633  0.23075  1.0000
  C   C1301     1.0  0.79916  0.93015  0.23263  1.0000
  C   C1302     1.0  0.79904  0.48645  0.22655  1.0000
  H   H1563     1.0  0.49794  0.68810  0.16459  1.0000
  H   H1564     1.0  0.92475  0.75360  0.22775  1.0000
  Fe  Fe174     1.0  0.83656  0.98190  0.17298  1.0000
  H   H1565     1.0  0.54831  0.78253  0.23864  1.0000
  C   C1303     1.0  0.99534  0.94337  0.18653  1.0000
  C   C1304     1.0  0.82135  0.79222  0.23852  1.0000
  N   N86       1.0  0.51981  0.70492  0.24855  1.0000
  Fe  Fe175     1.0  0.92126  0.71206  0.25084  1.0000
  Fe  Fe176     1.0  0.53050  0.86018  0.32176  1.0000
  S   S349      1.0  0.54815  0.83549  0.34369  1.0000
  S   S350      1.0  0.54706  0.85917  0.28767  1.0000
  Fe  Fe177     1.0  0.51558  0.82642  0.35683  1.0000
  H   H1566     1.0  0.50883  0.77148  0.28081  1.0000
  Fe  Fe178     1.0  0.54252  0.86001  0.36582  1.0000
  S   S351      1.0  0.57178  0.86740  0.37830  1.0000
  S   S352      1.0  0.77477  0.60547  0.25167  1.0000
  S   S353      1.0  0.52568  0.88523  0.34352  1.0000
  S   S354      1.0  0.86923  0.50715  0.34894  1.0000
  S   S355      1.0  0.86333  0.71056  0.28129  1.0000
  Fe  Fe179     1.0  0.89578  0.50231  0.36920  1.0000
  S   S356      1.0  0.90119  0.52999  0.38454  1.0000
  H   H1567     1.0  0.84048  0.57049  0.30692  1.0000
  C   C1305     1.0  0.75834  0.73070  0.26022  1.0000
  Fe  Fe180     1.0  0.63203  0.96880  0.36350  1.0000
  S   S357      1.0  0.64661  0.95803  0.39384  1.0000
  S   S358      1.0  0.60054  0.95946  0.35808  1.0000
  C   C1306     1.0  0.88509  0.62947  0.32040  1.0000
  C   C1307     1.0  0.93772  0.54183  0.31538  1.0000
  Fe  Fe181     1.0  0.67780  0.95431  0.37169  1.0000
  S   S359      1.0  0.70267  0.92533  0.37127  1.0000
  H   H1568     1.0  0.74037  0.95656  0.31184  1.0000
  H   H1569     1.0  0.99268  0.66462  0.43260  1.0000
  S   S360      1.0  0.68383  0.87021  0.30512  1.0000
  C   C1308     1.0  0.89897  0.62496  0.33582  1.0000
  S   S361      1.0  0.95247  0.66165  0.39220  1.0000
  C   C1309     1.0  0.51755  0.78543  0.27748  1.0000
  H   H1570     1.0  0.93803  0.60126  0.29978  1.0000
  C   C1310     1.0  0.84570  0.63118  0.25386  1.0000
  C   C1311     1.0  0.93640  0.67700  0.37358  1.0000
  C   C1312     1.0  0.92252  0.69466  0.37992  1.0000
  C   C1313     1.0  0.90933  0.70727  0.36581  1.0000
  C   C1314     1.0  0.90961  0.70223  0.34526  1.0000
  C   C1315     1.0  0.92319  0.68434  0.33890  1.0000
  C   C1316     1.0  0.93675  0.67185  0.35297  1.0000
  H   H1571     1.0  0.89880  0.72096  0.37093  1.0000
  H   H1572     1.0  0.92305  0.68000  0.32330  1.0000
  H   H1573     1.0  0.94704  0.65801  0.34807  1.0000
  H   H1574     1.0  0.57942  0.91276  0.31461  1.0000
  H   H1575     1.0  0.95840  0.73821  0.27142  1.0000
  S   S362      1.0  0.75442  0.56660  0.23993  1.0000
  S   S363      1.0  0.89401  0.51497  0.29092  1.0000
  H   H1576     1.0  0.80428  0.92976  0.24807  1.0000
  C   C1317     1.0  0.96786  0.64359  0.46491  1.0000
  C   C1318     1.0  0.69701  0.90827  0.35474  1.0000
  C   C1319     1.0  0.67603  0.90881  0.35048  1.0000
  C   C1320     1.0  0.67199  0.89654  0.33573  1.0000
  C   C1321     1.0  0.68897  0.88395  0.32492  1.0000
  C   C1322     1.0  0.70984  0.88287  0.32966  1.0000
  C   C1323     1.0  0.71381  0.89484  0.34474  1.0000
  H   H1577     1.0  0.66287  0.91867  0.35859  1.0000
  H   H1578     1.0  0.65576  0.89725  0.33239  1.0000
  H   H1579     1.0  0.72296  0.87286  0.32172  1.0000
  H   H1580     1.0  0.73001  0.89416  0.34820  1.0000
  C   C1324     1.0  0.92634  0.53965  0.37851  1.0000
  C   C1325     1.0  0.92787  0.56001  0.38255  1.0000
  C   C1326     1.0  0.94748  0.56837  0.37701  1.0000
  C   C1327     1.0  0.96579  0.55628  0.36760  1.0000
  C   C1328     1.0  0.96436  0.53573  0.36414  1.0000
  C   C1329     1.0  0.94482  0.52744  0.36962  1.0000
  H   H1581     1.0  0.91380  0.56942  0.38986  1.0000
  H   H1582     1.0  0.94839  0.58417  0.37989  1.0000
  H   H1583     1.0  0.97849  0.52617  0.35710  1.0000
  H   H1584     1.0  0.94418  0.51152  0.36711  1.0000
  C   C1330     1.0  0.86721  0.52336  0.28589  1.0000
  C   C1331     1.0  0.85040  0.51468  0.29943  1.0000
  H   H1585     1.0  0.85382  0.50162  0.31181  1.0000
  H   H1586     1.0  0.81619  0.51614  0.30797  1.0000
  C   C1332     1.0  0.58007  0.89292  0.37198  1.0000
  C   C1333     1.0  0.56670  0.91044  0.36320  1.0000
  C   C1334     1.0  0.57341  0.93053  0.35881  1.0000
  C   C1335     1.0  0.59356  0.93349  0.36311  1.0000
  C   C1336     1.0  0.60713  0.91597  0.37167  1.0000
  C   C1337     1.0  0.60034  0.89582  0.37619  1.0000
  H   H1587     1.0  0.55094  0.90871  0.36026  1.0000
  H   H1588     1.0  0.56275  0.94395  0.35227  1.0000
  H   H1589     1.0  0.62263  0.91802  0.37522  1.0000
  H   H1590     1.0  0.61079  0.88251  0.38319  1.0000
  C   C1338     1.0  0.55913  0.83312  0.28426  1.0000
  C   C1339     1.0  0.57610  0.82933  0.26771  1.0000
  C   C1340     1.0  0.58650  0.80859  0.26593  1.0000
  C   C1341     1.0  0.58022  0.79168  0.28101  1.0000
  C   C1342     1.0  0.56297  0.79549  0.29716  1.0000
  C   C1343     1.0  0.55213  0.81599  0.29840  1.0000
  H   H1591     1.0  0.56679  0.73635  0.27820  1.0000
  H   H1592     1.0  0.59581  0.81121  0.34373  1.0000
  H   H1593     1.0  0.55784  0.78250  0.30874  1.0000
  H   H1594     1.0  0.53822  0.81844  0.31037  1.0000
  H   H1595     1.0  0.97813  0.61048  0.44451  1.0000
  H   H1596     1.0  0.69417  0.53075  0.25514  1.0000
  H   H1597     1.0  0.91186  0.60170  0.36015  1.0000
  C   C1344     1.0  0.90458  0.60060  0.26405  1.0000
  S   S364      1.0  0.90321  0.73825  0.26823  1.0000
  S   S365      1.0  0.71171  0.83596  0.26195  1.0000
  H   H1598     1.0  0.98277  0.68407  0.32534  1.0000
  H   H1599     1.0  0.78425  0.81596  0.29875  1.0000
  Fe  Fe182     1.0  0.89349  0.71280  0.29433  1.0000
  C   C1345     1.0  0.54544  0.72208  0.26387  1.0000
  H   H1600     1.0  0.69685  0.93555  0.27821  1.0000
  H   H1601     1.0  0.64509  0.89416  0.29033  1.0000
  H   H1602     1.0  0.61809  0.91020  0.31696  1.0000
  H   H1603     1.0  0.83707  0.59734  0.31145  1.0000
  C   C1346     1.0  0.62841  0.89539  0.28825  1.0000
  N   N87       1.0  0.98303  0.70533  0.29540  1.0000
  H   H1604     1.0  0.72818  0.66331  0.25957  1.0000
  H   H1605     1.0  0.85671  0.56552  0.36048  1.0000
  H   H1606     1.0  0.78566  0.64783  0.25908  1.0000
  C   C1347     1.0  0.75271  0.69587  0.25355  1.0000
  C   C1348     1.0  0.74388  0.66043  0.26573  1.0000
  C   C1349     1.0  0.52532  0.71468  0.26602  1.0000
  Fe  Fe183     1.0  0.88422  0.68579  0.26340  1.0000
  C   C1350     1.0  0.84082  0.54745  0.26647  1.0000
  S   S366      1.0  0.71791  0.88627  0.25099  1.0000
  C   C1351     1.0  0.51108  0.71741  0.28532  1.0000
  H   H1607     1.0  0.95742  0.68619  0.30261  1.0000
  C   C1352     1.0  0.69997  0.48473  0.24033  1.0000
  H   H1608     1.0  0.83768  0.56026  0.34508  1.0000
  C   C1353     1.0  0.59126  0.90589  0.30247  1.0000
  H   H1609     1.0  0.79263  0.81517  0.24017  1.0000
  H   H1610     1.0  0.94900  0.52980  0.32414  1.0000
  H   H1611     1.0  0.72099  0.69621  0.24453  1.0000
  H   H1612     1.0  0.79771  0.97359  0.24760  1.0000
  C   C1354     1.0  0.51341  0.78977  0.23987  1.0000
  H   H1613     1.0  0.74916  0.64315  0.26613  1.0000
  C   C1355     1.0  0.55118  0.73114  0.28017  1.0000
  H   H1614     1.0  0.96788  0.77267  0.25616  1.0000
  C   C1356     1.0  0.72437  0.72657  0.25066  1.0000
  H   H1615     1.0  0.73353  0.91660  0.27727  1.0000
  S   S367      1.0  0.71257  0.61652  0.25166  1.0000
  H   H1616     1.0  0.95110  0.57527  0.32518  1.0000
  C   C1357     1.0  0.53703  0.73333  0.29899  1.0000
  H   H1617     1.0  0.67524  0.64507  0.26569  1.0000
  H   H1618     1.0  0.54165  0.74034  0.31159  1.0000
  C   C1358     1.0  0.96171  0.56739  0.31224  1.0000
  C   C1359     1.0  0.73184  0.70529  0.24911  1.0000
  C   C1360     1.0  0.51700  0.72655  0.30152  1.0000
  H   H1619     1.0  0.53837  0.67507  0.25841  1.0000
  H   H1620     1.0  0.91327  0.62495  0.27860  1.0000
  C   C1361     1.0  0.97346  0.74179  0.27455  1.0000
  H   H1621     1.0  0.61837  0.92145  0.43669  1.0000
  S   S368      1.0  0.87322  0.65388  0.26597  1.0000
  N   N88       1.0  0.94937  0.55716  0.29996  1.0000
  C   C1362     1.0  0.83285  0.83100  0.27847  1.0000
  C   C1363     1.0  0.96046  0.70235  0.29511  1.0000
  H   H1622     1.0  0.72160  0.93980  0.32648  1.0000
  H   H1623     1.0  0.66970  0.78942  0.27697  1.0000
  H   H1624     1.0  0.77234  0.96680  0.28067  1.0000
  C   C1364     1.0  0.57133  0.93095  0.41605  1.0000
  H   H1625     1.0  0.92201  0.69869  0.39582  1.0000
  H   H1626     1.0  0.97371  0.55571  0.32046  1.0000
  N   N89       1.0  0.75989  0.67309  0.25236  1.0000
  H   H1627     1.0  0.96480  0.66104  0.46429  1.0000
  N   N90       1.0  0.85114  0.77779  0.31100  1.0000
  C   C1365     1.0  0.84520  0.77493  0.33466  1.0000
  C   C1366     1.0  0.84772  0.75868  0.30280  1.0000
  C   C1367     1.0  0.87454  0.77919  0.30642  1.0000
  C   C1368     1.0  0.83755  0.79649  0.30111  1.0000
  C   C1369     1.0  0.81480  0.79790  0.30485  1.0000
  C   C1370     1.0  0.84624  0.81359  0.28746  1.0000
  C   C1371     1.0  0.80160  0.81540  0.29585  1.0000
  C   C1372     1.0  0.58141  0.96428  0.42221  1.0000
  C   C1373     1.0  0.53635  0.68668  0.24373  1.0000
  H   H1628     1.0  0.82855  0.77121  0.33967  1.0000
  H   H1629     1.0  0.85586  0.76152  0.34260  1.0000
  H   H1630     1.0  0.84643  0.78943  0.34139  1.0000
  H   H1631     1.0  0.83067  0.75595  0.30607  1.0000
  H   H1632     1.0  0.85724  0.74420  0.31031  1.0000
  H   H1633     1.0  0.85270  0.75994  0.28515  1.0000
  H   H1634     1.0  0.87841  0.79306  0.31252  1.0000
  H   H1635     1.0  0.88420  0.76492  0.31426  1.0000
  H   H1636     1.0  0.88046  0.78007  0.28894  1.0000
  H   H1637     1.0  0.80695  0.78532  0.31454  1.0000
  H   H1638     1.0  0.86331  0.81387  0.28339  1.0000
  N   N91       1.0  0.50998  0.80048  0.25924  1.0000
  H   H1639     1.0  0.61211  0.95972  0.43471  1.0000
  C   C1374     1.0  0.72691  0.96108  0.27349  1.0000
  N   N92       1.0  0.61591  0.83566  0.33210  1.0000
  C   C1375     1.0  0.62640  0.84985  0.34194  1.0000
  C   C1376     1.0  0.60560  0.82115  0.34968  1.0000
  C   C1377     1.0  0.63097  0.82313  0.31711  1.0000
  C   C1378     1.0  0.65358  0.82329  0.31397  1.0000
  C   C1379     1.0  0.62315  0.80992  0.30532  1.0000
  C   C1380     1.0  0.66729  0.81125  0.29963  1.0000
  C   C1381     1.0  0.63700  0.79804  0.29094  1.0000
  C   C1382     1.0  0.65902  0.79876  0.28804  1.0000
  H   H1640     1.0  0.63454  0.86121  0.32955  1.0000
  H   H1641     1.0  0.61451  0.85946  0.35261  1.0000
  H   H1642     1.0  0.63835  0.84080  0.35217  1.0000
  H   H1643     1.0  0.61783  0.81036  0.35837  1.0000
  H   H1644     1.0  0.59451  0.82998  0.36164  1.0000
  H   H1645     1.0  0.66115  0.83262  0.32235  1.0000
  H   H1646     1.0  0.60623  0.80849  0.30726  1.0000
  H   H1647     1.0  0.68448  0.81157  0.29760  1.0000
  H   H1648     1.0  0.63058  0.78800  0.28221  1.0000
  H   H1649     1.0  0.58851  0.83984  0.31472  1.0000
  N   N93       1.0  0.72184  0.94488  0.29206  1.0000
  S   S369      1.0  0.89273  0.71886  0.32820  1.0000
  H   H1650     1.0  0.78905  0.75686  0.28254  1.0000
  C   C1383     1.0  0.82900  0.52274  0.29702  1.0000
  H   H1651     1.0  0.60613  0.85925  0.30655  1.0000
  C   C1384     1.0  0.59894  0.84912  0.32064  1.0000
  Fe  Fe184     1.0  0.71224  0.86254  0.28022  1.0000
  S   S370      1.0  0.74716  0.85384  0.28368  1.0000
  H   H1652     1.0  0.58796  0.85966  0.33116  1.0000
  S   S371      1.0  0.76120  0.79509  0.27171  1.0000
  S   S372      1.0  0.59404  0.76580  0.28090  1.0000
  C   C1385     1.0  0.99367  0.64730  0.43296  1.0000
  H   H1653     1.0  0.80009  0.50084  0.28206  1.0000
  C   C1386     1.0  0.92195  0.56510  0.27433  1.0000
  C   C1387     1.0  0.79794  0.76663  0.27001  1.0000
  C   C1388     1.0  0.58949  0.91962  0.42419  1.0000
  C   C1389     1.0  0.86238  0.53963  0.26921  1.0000
  Fe  Fe185     1.0  0.74733  0.82918  0.26266  1.0000
  C   C1390     1.0  0.78818  0.78672  0.26198  1.0000
  H   H1654     1.0  0.82643  0.74349  0.26802  1.0000
  C   C1391     1.0  0.87338  0.61412  0.31701  1.0000
  C   C1392     1.0  0.82407  0.53909  0.28056  1.0000
  S   S373      1.0  0.79676  0.54802  0.27821  1.0000
  C   C1393     1.0  0.58467  0.89833  0.28572  1.0000
  N   N94       1.0  0.98995  0.63596  0.45503  1.0000
  C   C1394     1.0  0.61308  0.90439  0.30376  1.0000
  C   C1395     1.0  0.84786  0.57223  0.34666  1.0000
  H   H1655     1.0  0.86829  0.54543  0.31903  1.0000
  Fe  Fe186     1.0  0.61161  0.75706  0.24930  1.0000
  C   C1396     1.0  0.84942  0.58339  0.30874  1.0000
  H   H1656     1.0  0.83696  0.58663  0.35103  1.0000
  C   C1397     1.0  0.88943  0.58963  0.34491  1.0000
  H   H1657     1.0  0.49797  0.68489  0.26791  1.0000
  C   C1398     1.0  0.81919  0.75916  0.26203  1.0000
  N   N95       1.0  0.86259  0.57719  0.32660  1.0000
  C   C1399     1.0  0.87726  0.55767  0.32217  1.0000
  H   H1658     1.0  0.85967  0.58690  0.29308  1.0000
  H   H1659     1.0  0.88336  0.64501  0.31092  1.0000
  C   C1400     1.0  0.78101  0.66507  0.25992  1.0000
  C   C1401     1.0  0.99087  0.61320  0.45340  1.0000
  H   H1660     1.0  0.69489  0.92898  0.30689  1.0000
  H   H1661     1.0  0.92351  0.54853  0.27272  1.0000
  H   H1662     1.0  0.73284  0.91285  0.30550  1.0000
  C   C1402     1.0  0.81059  0.83193  0.28268  1.0000
  S   S374      1.0  0.50678  0.79369  0.35671  1.0000
  H   H1663     1.0  0.88603  0.55030  0.33583  1.0000
  C   C1403     1.0  0.62230  0.88789  0.27068  1.0000
  H   H1664     1.0  0.90788  0.63698  0.33847  1.0000
  C   C1404     1.0  0.90119  0.60506  0.34800  1.0000
  H   H1665     1.0  0.98156  0.64501  0.42308  1.0000
  Fe  Fe187     1.0  0.89480  0.49532  0.32360  1.0000
  H   H1666     1.0  0.88920  0.56078  0.30774  1.0000
  H   H1667     1.0  0.95766  0.53498  0.27684  1.0000
  H   H1668     1.0  0.99476  0.67400  0.46620  1.0000
  C   C1405     1.0  0.85451  0.65014  0.24981  1.0000
  C   C1406     1.0  0.90757  0.57911  0.26254  1.0000
  H   H1669     1.0  0.86310  0.61878  0.30464  1.0000
  H   H1670     1.0  0.83048  0.50887  0.25252  1.0000
  S   S375      1.0  0.99046  0.56634  0.35863  1.0000
  S   S376      1.0  0.77698  0.89805  0.25271  1.0000
  H   H1671     1.0  0.78073  0.66742  0.27685  1.0000
  S   S377      1.0  0.99195  0.60810  0.39789  1.0000
  H   H1672     1.0  0.94885  0.71380  0.30403  1.0000
  C   C1407     1.0  0.87518  0.59366  0.32925  1.0000
  Fe  Fe188     1.0  0.98157  0.63998  0.37982  1.0000
  S   S378      1.0  0.91377  0.68666  0.27831  1.0000
  H   H1673     1.0  0.80025  0.84539  0.27558  1.0000
  H   H1674     1.0  0.51917  0.82779  0.26900  1.0000
  H   H1675     1.0  0.59348  0.88360  0.25778  1.0000
  H   H1676     1.0  0.59976  0.80577  0.25332  1.0000
  C   C1408     1.0  0.83100  0.77202  0.24639  1.0000
  H   H1677     1.0  0.89135  0.57459  0.35514  1.0000
  C   C1409     1.0  0.91578  0.60815  0.27752  1.0000
  H   H1678     1.0  0.53997  0.81353  0.25262  1.0000
  C   C1410     1.0  0.52231  0.81859  0.25520  1.0000
  C   C1411     1.0  0.60384  0.93023  0.43107  1.0000
  C   C1412     1.0  0.93008  0.59429  0.28955  1.0000
  Fe  Fe189     1.0  0.87514  0.73356  0.25336  1.0000
  C   C1413     1.0  0.59985  0.88941  0.27003  1.0000
  C   C1414     1.0  0.74142  0.95633  0.25488  1.0000
  H   H1679     1.0  0.97323  0.55647  0.27196  1.0000
  H   H1680     1.0  0.87527  0.54624  0.25848  1.0000
  C   C1415     1.0  0.59997  0.95222  0.43004  1.0000
  H   H1681     1.0  0.58138  0.84243  0.25645  1.0000
  S   S379      1.0  0.98605  0.62867  0.34794  1.0000
  C   C1416     1.0  0.72412  0.95221  0.31238  1.0000
  H   H1682     1.0  0.82470  0.61263  0.24404  1.0000
  S   S380      1.0  0.66294  0.96322  0.34146  1.0000
  Fe  Fe190     1.0  0.75306  0.87566  0.25266  1.0000
  H   H1683     1.0  0.53503  0.77955  0.27446  1.0000
  H   H1684     1.0  0.97096  0.57915  0.30164  1.0000
  H   H1685     1.0  0.68766  0.95568  0.29525  1.0000
  H   H1686     1.0  0.98859  0.60364  0.46952  1.0000
  C   C1417     1.0  0.73603  0.92432  0.29086  1.0000
  S   S381      1.0  0.92155  0.49160  0.34351  1.0000
  H   H1687     1.0  0.79426  0.67269  0.24965  1.0000
  C   C1418     1.0  0.69935  0.94112  0.29311  1.0000
  H   H1688     1.0  0.97794  0.53487  0.29299  1.0000
  C   C1419     1.0  0.96518  0.54541  0.28475  1.0000
  H   H1689     1.0  0.76854  0.74075  0.26441  1.0000
  H   H1690     1.0  0.97778  0.71169  0.32812  1.0000
  H   H1691     1.0  0.75332  0.92618  0.28913  1.0000
  C   C1420     1.0  0.73755  0.73924  0.25638  1.0000
  H   H1692     1.0  0.74085  0.66390  0.28256  1.0000
  H   H1693     1.0  0.51802  0.82968  0.24079  1.0000
  H   H1694     1.0  0.99476  0.67361  0.28853  1.0000
  C   C1421     1.0  0.98760  0.72696  0.28660  1.0000
  C   C1422     1.0  0.81035  0.48846  0.24346  1.0000
  H   H1695     1.0  0.95666  0.70388  0.27850  1.0000
  C   C1423     1.0  0.93386  0.57228  0.28804  1.0000
  H   H1696     1.0  0.65614  0.85885  0.27924  1.0000
  C   C1424     1.0  0.71675  0.98229  0.27337  1.0000
  H   H1697     1.0  0.92851  0.53294  0.30740  1.0000
  H   H1698     1.0  0.56072  0.92266  0.40985  1.0000
  H   H1699     1.0  0.83971  0.84389  0.26811  1.0000
  H   H1700     1.0  0.59278  0.90263  0.42447  1.0000
  N   N96       1.0  0.63881  0.87783  0.25481  1.0000
  H   H1701     1.0  0.92623  0.54987  0.32762  1.0000
  H   H1702     1.0  0.55699  0.72087  0.24953  1.0000
  H   H1703     1.0  0.56761  0.89912  0.28503  1.0000
  H   H1704     1.0  0.99425  0.69358  0.26530  1.0000
  C   C1425     1.0  0.76597  0.70936  0.25884  1.0000
  S   S382      1.0  0.51241  0.84693  0.38293  1.0000
  Fe  Fe191     1.0  0.49568  0.87166  0.35999  1.0000
  H   H1705     1.0  0.89358  0.61148  0.25473  1.0000
  C   C1426     1.0  0.97873  0.76178  0.26564  1.0000
  H   H1706     1.0  0.73176  0.75576  0.25772  1.0000
  C   C1427     1.0  0.71118  0.52494  0.24916  1.0000
  C   C1428     1.0  0.79996  0.79957  0.24628  1.0000
  H   H1707     1.0  0.83715  0.55996  0.25359  1.0000
  H   H1708     1.0  0.96485  0.63642  0.48200  1.0000
  C   C1429     1.0  0.56735  0.95296  0.41485  1.0000
  H   H1709     1.0  0.85018  0.61930  0.26693  1.0000
  H   H1710     1.0  0.74943  0.94056  0.25310  1.0000
  H   H1711     1.0  0.95543  0.63966  0.45633  1.0000
  H   H1712     1.0  0.71201  0.96602  0.31622  1.0000
  H   H1713     1.0  0.50600  0.72830  0.31620  1.0000
  H   H1714     1.0  0.55353  0.96075  0.40746  1.0000
  C   C1430     1.0  0.68378  0.65309  0.25147  1.0000
  H   H1715     1.0  0.70817  0.73314  0.24753  1.0000
  C   C1431     1.0  0.79435  0.48594  0.28047  1.0000
  C   C1432     1.0  0.98716  0.69988  0.31806  1.0000
  C   C1433     1.0  0.77600  0.98267  0.27514  1.0000
  H   H1716     1.0  0.78221  0.70381  0.26209  1.0000
  H   H1717     1.0  0.51498  0.79287  0.29245  1.0000
  H   H1718     1.0  0.66130  0.84916  0.25401  1.0000
  H   H1719     1.0  0.72094  0.53750  0.24990  1.0000
  S   S383      1.0  0.49817  0.85078  0.33447  1.0000
  H   H1720     1.0  0.66601  0.89202  0.25953  1.0000
  H   H1721     1.0  0.63623  0.84640  0.27104  1.0000
  H   H1722     1.0  0.89881  0.57329  0.25203  1.0000
  C   C1434     1.0  0.64852  0.85716  0.26524  1.0000
  H   H1723     1.0  0.49853  0.76201  0.33277  1.0000
  C   C1435     1.0  0.49861  0.69717  0.25355  1.0000
  H   H1724     1.0  0.71683  0.51119  0.26071  1.0000
  S   S384      1.0  0.61719  0.72373  0.24167  1.0000
  Fe  Fe192     1.0  0.78530  0.57091  0.25024  1.0000
  H   H1725     1.0  0.66275  0.68281  0.25313  1.0000
  C   C1436     1.0  0.67661  0.67443  0.24431  1.0000
  C   C1437     1.0  0.83125  0.62738  0.24092  1.0000
  C   C1438     1.0  0.65607  0.89123  0.24695  1.0000
  C   C1439     1.0  0.82234  0.50561  0.24012  1.0000
  H   H1726     1.0  0.77789  0.49053  0.27594  1.0000
  H   H1727     1.0  0.64923  0.90763  0.24086  1.0000
  C   C1440     1.0  0.70239  0.64235  0.24079  1.0000
  H   H1728     1.0  0.61878  0.86217  0.23990  1.0000
