data_image0
_chemical_formula_structural       HCSHCHCHC2H2C2H2CHCSCH3C2H3CHCH2CH2FeCHCH3CHCHCNC2HCH3C2NHCSHCH3S3FeS2FeS2FeHSCHFeS2FeSCSH3FeSFeSFeSFeSNSH2SCHCFeSCSCHSFeS2FeS2FeSFeS3HS2FeSHSC6H4C7H3SC6H4C3H2C6H7CHC2H4FeC6H4SC2HCH2CHC7H4C6H2SNC9H14CH2NC6H11CH3C2H2CHC2NHC2H3C2FeC3HCNFeH3CNHC2HNC2FeHC2H2C5H4CH2C2H2CNHC5H5CNCH3CH2CFeHCHC4H2CH2CH5CHC3H4C5HC2NCH2CSC2H2CHCHNCH2S3CH3FeH3CHCHCH3CHCH4SH3C2H2CH3C2HCHCFeH2CH6C3H2C2HFeHSC2H2C2FeH2SH2C2FeH2CH2CH3CHSC2HCHCHCFeSHFeSHCSC2H2C2SC6H2CH7C3FeHSCHCHNH4FeCHC2H3CH2CH2SCSH2CSH2CHSHS2CH2CSH2SFeS2FeS2FeSFeS3FeSCFeSHFeSFeS3FeS2HC2HFeS3H2CHFeC6H4C6H4SH7C7H3C5H2C6H4CHCH2C6H4CHC4HS2H2FeHCH5CHSH2C5FeHCSH3C2H3Fe2CH2NHC7HSC4H2C2H4FeNC2SC6NHCH4CH6NC9H14NC7HCH6CH4CSHCHCH2NCHC2H2CH4CHCH3CFeC3HCH2NCH2C3HFeC2H2NHCHC2H3C4H4CH3CSHSH3CHCHCHCHC5H3CSH2SHNH2NSC2HCHCH2CHCHSH2SHFeH2SCNH3SH2CH2CFeH2FeS2HFeS4Fe2S2FeSHFeSFeS3FeS3H2FeS2FeS2FeS2FeSFeS3H2C6H4C3HC6H4CHC6H2C6H3C6H4C5H2NC8H12FeH3C2HCH4CH5C7H2CH4CHC3SH2C2HCHSH2C2HC3H2C3HC2H8C2HCHSH2CH3C3HCHC2NCHCHCHCH2CH2C3H3SC2HCH2SH3CNCHCHSCH5C3H6NHC3SCH3CH4FeCH3C2H4NHCH3C2H2CHC2HCH2C2H2CH3CH5FeH3NC2HFeHSHS3FeS2FeS2FeSFeS3FeS2FeS2FeSFeS5FeCFeH3C2SHCNSHC2NCH2C2H2C2SHC6H4C6H4C6H4SHCHCHFeH3C5H3CHC6H4C4FeCH4CSHC3SH4NC5H2CH7FeH2CSCH3CHNHCH2C2HC3NH3NC8H12CH9C2H5CH2CH2C2HC3HC2HC3H2CH2FeC2SH2C2HCH3C2HSHCH2SH2CH2SFeS2FeS2FeSFeS3FeS2FeS2FeSFeS3FeS2FeH3FeSCSHSCFeS2FeSH2SCS2HC6H4C2HC3H4C6H4C6H4C6H4CH2C6HC8H3C4H3C6H4CHCHSHCH3CH2CH3FeH4CHCHCH2C2H3C2NHCHC6HCNH2CHC2H5CH5CH2FeH2CHC3H2CHCSNCHC2HSHCHC2H2CHCHCHCH2CHCHFeHNC6H11C3H2C3HCHCH2CH2CNC2H3SH4CNCH2C5HFeHCNCH2NCH2C2HC2H2SH2C3H4CHCH3CNCH2SH3CH2CH4C3H6CH4SFeH2FeS2FeS2FeS2FeS2Fe2S3FeS2FeS2FeSFeS3CH2FeS2FeSHSFeS2FeSCFeSFeS3CSH5C7H4C3H2CH2C8H4C3H2C4H2CH2C2H3FeC6H5C2HC6H4C6H10N2HCSNH7C3NSNH2FeHCH3CH2CHCH3NHCHNCHNC9H15NC9H15C2HCHC2H2CHSCH2C2H2C2H2CH2CH5CH2CHCHC2HFeH3C2H3CHC5HC2H3CHC2H4CH2CHCNCNHC3HSH2CHFeSHFeS2FeSFeS3FeS2FeS2FeSFeS3HC3H2CHCHSHC2FeSHSHCH3CHC6H4C6H4C6H8CHC7H5NCH2CHC3H3CSH4CHSCH3CNH3NC6H2CH12NCNC9H11CH2C7H9CHCH2C2N2HCHCHCHCH2C2H5NCHCHC2HC2SCHCH2C2SH2FeSCHFe2H2CH2CH2C3SFeHSC2HCH2C3HC3H3FeH5CHSFeS2FeS2FeSFeS3FeS2FeS2FeSFeS3CFeS2CFeSHSC2H2C2H3C6H4C6H4C6H6C3H4SC5H3SCH2C2HSH2C2HCH4C3H5SH2CH2CH2CNCH2NHCH4CNH6CHCHCNCH3CH2NCHC7HCHCH8CH2C2HCH2SCH2C2H3CHC2HCHCSHSH4CH2C9FeCH2SC2H3NC9H7CHCHFeHCNCHC4H2C2HCH2CHCH3CHC2HCSCH2CH2SFeS2FeSFeS3FeS2FeSHFeHFeS3FeS2HCFeSHSCFeCSFe2SHSCNHS2H3CH2C6H5CH3C6H5C6H4SC6H2CHC6H4C6HCH2FeHSCHNFeSC2HNC9H11CSHCH2SCHSHCH3NHC2H9C2HCH5SCFeC2HCH2C2NC9H15CH2CH2C3H2CHSC2H2SHC3H4NC2H2C5H2CH2FeH2CHCHNC3HCH2CH2C2H2CH3SHC3SCFeS2FeS2FeSFeS3FeHCFeS2NHFeSHSFeS2FeCFeS2HCFeS2FeS3HCSC5HCH2CH4CH2C3H4SC7H4C6H4C6H4S2HCH2SH2C4HCH3C5H2CHCFeC3H3CH3C2H4C2HC3HSH5C2H2CNC9H15CSCHCH3C3HCHNH2NHCH3CHCH5C2HCHC2HC2SHC3FeH2CH4CSH5FeHSHFeSHCNC4HC2HCH3CH2C3H2NHCNH2NCH4CH3CHC4H2CHCH3NCH5CSH2C2H2C2HC2HCHFeSH3CFeCSH2CHC2FeS2FeS2FeSFeS3H3FeHSHFeS2FeS2FeSFeS3H5SFeS2FeS2FeSFeS3FeNSC9H4C6HCH2C6H4C6H4C4HCSC4H5C6HCH2C6H4C6H4C6H2CHC2H2C2HCH5C2HC2HCH3CSH3C3H3CH3CHCHCNC9H15CH7CH2C2H4CHCNC2NCH2CHCH3NSH3CHCH4C2HCNCH5C2NC2H2C2H3CHNCHCH3C2HCHC2SCHCHCHCH6CHCNCH2C3H2C2H2SHSH2CHC2H5C2HCHCHCH3C3H2NH6C2H2FeH3CHSH6C3H7CHC2HSHSHCHSHCHC2NCH2C2SHSCFeS2FeSHFeSFeS3FeS2FeS2FeSFeS3FeHCFeS2FeS2CHSCS3HCHCNCSCS2HC6H5CHC9H4C6HFeH2C6H4C6H4C6H5NFeC2H2CHNCH2C2FeH4SH3FeCHSH3C4N2C9H16CFe2CH2CH2CNC8H3CH10SNC8HSH5SCH2NC9H15C2HCHCHCH5NCHC2H2CHCH3CHCH2CH4CHC2H2FeCHC3HC2H2CHSH2CHCHCHCH2CH5CH5FeSFeSCFeSHCSCHCHCNCFeS2FeS2FeSFeS3HSH2CH2CFeSCH4C6H4CHC7H5CHCNH4CHC2H3C6H4CH4SHCH3SH2CSCHCH3C3HCHSHCNH2CH4NHSC4H5CH2CFeC4HCH2CH10CHCNC5NCH3CH4CH2C2HS2HCH2C4H2CHCH3CNSC4HC2H2CFeSFeS2FeSFeS3HFeSCFeS2FeSFeS3CH2FeS2HSHFeSFeSHCFeS2FeS2C6H4C4H3CHCFeC2HC6H4C6FeCH2C4HCHCHC6H4C6H2CH3S2H4C2SH3C2H3NHNHCHCHC3H6CHCH7CH3NCHC3H3C3H3CHCHCHCNHFeCHC3H3CHC2HC2HNCHC2H3CHFeHSCHC2HCH2CHSCH2C6SHSH2CSH7SH3CH3CHCH6C2HFeH2C3SHCH2CH7FeS2HFeS3HCS2FeSCHCFeSCSFeSFeS2FeS2FeSFeS3HSCS2FeSHC6H4C6H4C6H4C3H2C6H4C6H3C7H4C6H6NC9H14NC9H14CH2NC3H2C2H2CNC9H2CH11CSC3HFeCHCH2SH2CH2CH2FeSC2FeCH4CHCH4CH6CHCHC2H2FeCHCHSH2CH3CH2CH2CHCHCH2NHN2CHCSHCHCHFeHCHFeH7CHFeC2HC2S2HCNSH2S2CH4CSFeS2FeSCSH2FeS2CHC2HSHS2HC2SFeC3SC2H2FeCSHC2SH2NC4HCH2C6H4C6H6CHCH2CH5C3H2CH4CH3NHCHCH2CHCH3CH2FeH2CHCFeC3SHCFeNSC2HNCHCH3FeSHC3H2FeC2HSCHC2H2SCHCHFeSCHCH5C2NH3FeS2FeS2FeSFeS4FeS3HSFeS2H3SHSNSCHS2HCH2CH2C2HNHC6H4C6H5C6H4C6HCH2C6H4C6H4NC9H16CSHC3HC2H4NCH2C2HNC6H12C2HCH5NC9H9CH3FeH2CSC3HCFeH2CFeH3C3H2CH2CH2FeSH3C4HCHCH2C4H3C4NHCH4CH5FeCH3CFeH2CH2SHSHSHFeSFeSHCHFeS2FeSHCS2HFeS2FeS2HCHC4HCHCH2NHC7H7NH4C2H2C3HCH2C6H3CHSC2HNC3SCH6NHCFeC4H7FeC3HCFeC2H3C3SHCH2CHSHC2HFeH2CSH4SH2
_chemical_formula_sum              "H2592 C2160 S576 Fe288 N144"
_cell_length_a       71.2174
_cell_length_b       71.4128
_cell_length_c       71.1792
_cell_angle_alpha    78.6419
_cell_angle_beta     78.5754
_cell_angle_gamma    78.6036

_space_group_name_H-M_alt    "P 1"
_space_group_IT_number       1

loop_
  _space_group_symop_operation_xyz
  'x, y, z'

loop_
  _atom_site_type_symbol
  _atom_site_label
  _atom_site_symmetry_multiplicity
  _atom_site_fract_x
  _atom_site_fract_y
  _atom_site_fract_z
  _atom_site_occupancy
  H   H1        1.0  0.48752  0.04416  0.57135  1.0000
  C   C1        1.0  0.27591  0.17548  0.63330  1.0000
  S   S1        1.0  0.35297  0.01938  0.60340  1.0000
  H   H2        1.0  0.32281  0.02571  0.56284  1.0000
  C   C2        1.0  0.44338  0.09000  0.61171  1.0000
  H   H3        1.0  0.48513  0.10313  0.58584  1.0000
  C   C3        1.0  0.47181  0.02056  0.63824  1.0000
  H   H4        1.0  0.29271  0.05694  0.63242  1.0000
  C   C4        1.0  0.33223  0.02284  0.62122  1.0000
  C   C5        1.0  0.31919  0.04034  0.61950  1.0000
  H   H5        1.0  0.46760  0.04628  0.60228  1.0000
  H   H6        1.0  0.18546  0.17565  0.61229  1.0000
  C   C6        1.0  0.44865  0.00319  0.63033  1.0000
  C   C7        1.0  0.19522  0.14710  0.62708  1.0000
  H   H7        1.0  0.32182  0.05152  0.60707  1.0000
  H   H8        1.0  0.19536  0.14013  0.61484  1.0000
  C   C8        1.0  0.24353  0.18452  0.62599  1.0000
  H   H9        1.0  0.48660  0.02277  0.63719  1.0000
  C   C9        1.0  0.18957  0.16718  0.62567  1.0000
  S   S2        1.0  0.18271  0.20154  0.63870  1.0000
  C   C10       1.0  0.30276  0.04345  0.63386  1.0000
  H   H10       1.0  0.42970  0.09642  0.61949  1.0000
  H   H11       1.0  0.35586  0.02151  0.55437  1.0000
  H   H12       1.0  0.35290  0.99618  0.52438  1.0000
  C   C11       1.0  0.18902  0.17628  0.64149  1.0000
  C   C12       1.0  0.47507  0.09332  0.59260  1.0000
  H   H13       1.0  0.36866  0.00250  0.56958  1.0000
  H   H14       1.0  0.24899  0.17727  0.61301  1.0000
  H   H15       1.0  0.22809  0.18243  0.63020  1.0000
  C   C13       1.0  0.32051  0.01305  0.57359  1.0000
  H   H16       1.0  0.47951  0.99841  0.62001  1.0000
  C   C14       1.0  0.47995  0.07295  0.59284  1.0000
  H   H17       1.0  0.41887  0.01134  0.64318  1.0000
  H   H18       1.0  0.29666  0.02956  0.59037  1.0000
  C   C15       1.0  0.46525  0.06174  0.60200  1.0000
  H   H19       1.0  0.43668  0.06113  0.61894  1.0000
  H   H20       1.0  0.45401  0.11702  0.60255  1.0000
  Fe  Fe1       1.0  0.37330  0.99166  0.61104  1.0000
  C   C16       1.0  0.30221  0.99993  0.60411  1.0000
  H   H21       1.0  0.33439  0.01385  0.53453  1.0000
  C   C17       1.0  0.33689  0.08023  0.63795  1.0000
  H   H22       1.0  0.25540  0.14698  0.63782  1.0000
  H   H23       1.0  0.33007  0.98948  0.53695  1.0000
  H   H24       1.0  0.29096  0.00206  0.61660  1.0000
  C   C18       1.0  0.46775  0.00668  0.62863  1.0000
  H   H25       1.0  0.24391  0.20027  0.62130  1.0000
  C   C19       1.0  0.44735  0.07015  0.61143  1.0000
  H   H26       1.0  0.27999  0.19019  0.62984  1.0000
  C   C20       1.0  0.45711  0.10158  0.60213  1.0000
  N   N1        1.0  0.34897  0.99296  0.55567  1.0000
  C   C21       1.0  0.33277  0.99492  0.57220  1.0000
  C   C22       1.0  0.36275  0.00603  0.55573  1.0000
  H   H27       1.0  0.37533  0.00483  0.54368  1.0000
  C   C23       1.0  0.32872  0.00839  0.63725  1.0000
  H   H28       1.0  0.34963  0.08197  0.62621  1.0000
  H   H29       1.0  0.33871  0.99485  0.63872  1.0000
  H   H30       1.0  0.27963  0.16906  0.61972  1.0000
  C   C24       1.0  0.34123  0.99838  0.53710  1.0000
  C   C25       1.0  0.30545  0.01544  0.58929  1.0000
  N   N2        1.0  0.25500  0.17624  0.64193  1.0000
  H   H31       1.0  0.32686  0.07308  0.63269  1.0000
  C   C26       1.0  0.20102  0.13606  0.64409  1.0000
  S   S3        1.0  0.44443  0.98516  0.61829  1.0000
  H   H32       1.0  0.32897  0.09500  0.63982  1.0000
  C   C27       1.0  0.43361  0.01383  0.64171  1.0000
  H   H33       1.0  0.34117  0.04159  0.64879  1.0000
  H   H34       1.0  0.28569  0.16597  0.64298  1.0000
  H   H35       1.0  0.36410  0.04915  0.64014  1.0000
  S   S4        1.0  0.26272  0.08845  0.64713  1.0000
  S   S5        1.0  0.20778  0.11089  0.64536  1.0000
  S   S6        1.0  0.38770  0.98757  0.63709  1.0000
  Fe  Fe2       1.0  0.01788  0.12285  0.85096  1.0000
  S   S7        1.0  0.01074  0.10752  0.88162  1.0000
  S   S8        1.0  0.03290  0.14957  0.84122  1.0000
  Fe  Fe3       1.0  0.01824  0.08025  0.86812  1.0000
  S   S9        1.0  0.03644  0.05294  0.88201  1.0000
  S   S10       1.0  0.02695  0.09550  0.83787  1.0000
  Fe  Fe4       1.0  0.16588  0.21507  0.66421  1.0000
  H   H36       1.0  0.19382  0.10223  0.70157  1.0000
  S   S11       1.0  0.11466  0.19839  0.72237  1.0000
  C   C28       1.0  0.36203  0.10791  0.67334  1.0000
  H   H37       1.0  0.35700  0.03992  0.66573  1.0000
  Fe  Fe5       1.0  0.11683  0.20550  0.84658  1.0000
  S   S12       1.0  0.12786  0.20516  0.81486  1.0000
  S   S13       1.0  0.10127  0.18144  0.86557  1.0000
  Fe  Fe6       1.0  0.15435  0.21471  0.81991  1.0000
  S   S14       1.0  0.18535  0.20398  0.80813  1.0000
  C   C29       1.0  0.44706  0.20619  0.88575  1.0000
  S   S15       1.0  0.14485  0.21224  0.85213  1.0000
  H   H38       1.0  0.31308  0.22836  0.70049  1.0000
  H   H39       1.0  0.21144  0.99761  0.83658  1.0000
  H   H40       1.0  0.08282  0.14785  0.88163  1.0000
  Fe  Fe7       1.0  0.37235  0.17436  0.68286  1.0000
  S   S16       1.0  0.35961  0.15932  0.71195  1.0000
  Fe  Fe8       1.0  0.99545  0.09790  0.83497  1.0000
  S   S17       1.0  0.34018  0.20216  0.72304  1.0000
  Fe  Fe9       1.0  0.36865  0.18226  0.72371  1.0000
  S   S18       1.0  0.38173  0.17306  0.75088  1.0000
  Fe  Fe10      1.0  0.33251  0.18058  0.70828  1.0000
  S   S19       1.0  0.30309  0.17185  0.71715  1.0000
  N   N3        1.0  0.21129  0.17271  0.75964  1.0000
  S   S20       1.0  0.38424  0.21359  0.84087  1.0000
  H   H41       1.0  0.11595  0.15295  0.70738  1.0000
  H   H42       1.0  0.18635  0.18062  0.73313  1.0000
  S   S21       1.0  0.35751  0.21415  0.88390  1.0000
  C   C30       1.0  0.47409  0.11795  0.71459  1.0000
  H   H43       1.0  0.10071  0.19779  0.90664  1.0000
  C   C31       1.0  0.01312  0.16080  0.88852  1.0000
  Fe  Fe11      1.0  0.36195  0.19640  0.85977  1.0000
  S   S22       1.0  0.36422  0.16362  0.86510  1.0000
  C   C32       1.0  0.24949  0.18735  0.65830  1.0000
  S   S23       1.0  0.33727  0.21338  0.84574  1.0000
  C   C33       1.0  0.36558  0.22696  0.76411  1.0000
  H   H44       1.0  0.15920  0.14400  0.65736  1.0000
  S   S24       1.0  0.38887  0.15296  0.66323  1.0000
  Fe  Fe12      1.0  0.25546  0.07795  0.83858  1.0000
  S   S25       1.0  0.23500  0.10449  0.82833  1.0000
  S   S26       1.0  0.25009  0.04865  0.83363  1.0000
  Fe  Fe13      1.0  0.28449  0.10333  0.84447  1.0000
  S   S27       1.0  0.26590  0.13104  0.83444  1.0000
  S   S28       1.0  0.31404  0.10347  0.85211  1.0000
  Fe  Fe14      1.0  0.24143  0.11680  0.85250  1.0000
  S   S29       1.0  0.21673  0.13431  0.86952  1.0000
  Fe  Fe15      1.0  0.26140  0.11604  0.81131  1.0000
  S   S30       1.0  0.26460  0.13070  0.78015  1.0000
  S   S31       1.0  0.26014  0.08954  0.86443  1.0000
  S   S32       1.0  0.28187  0.08904  0.81984  1.0000
  H   H45       1.0  0.00785  0.10808  0.94344  1.0000
  S   S33       1.0  0.24059  0.11436  0.68142  1.0000
  S   S34       1.0  0.27390  0.07651  0.69141  1.0000
  Fe  Fe16      1.0  0.24238  0.08632  0.70203  1.0000
  S   S35       1.0  0.22795  0.08531  0.73309  1.0000
  H   H46       1.0  0.08009  0.20681  0.75030  1.0000
  S   S36       1.0  0.23186  0.07006  0.68342  1.0000
  C   C34       1.0  0.25335  0.11964  0.76650  1.0000
  C   C35       1.0  0.23670  0.11160  0.77499  1.0000
  C   C36       1.0  0.22837  0.10191  0.76430  1.0000
  C   C37       1.0  0.23695  0.09982  0.74522  1.0000
  C   C38       1.0  0.25310  0.10859  0.73639  1.0000
  C   C39       1.0  0.26122  0.11862  0.74703  1.0000
  H   H47       1.0  0.23013  0.11289  0.78976  1.0000
  H   H48       1.0  0.21556  0.09557  0.77104  1.0000
  H   H49       1.0  0.25982  0.10696  0.72168  1.0000
  H   H50       1.0  0.27425  0.12463  0.74055  1.0000
  C   C40       1.0  0.31774  0.20330  0.80290  1.0000
  C   C41       1.0  0.20147  0.01215  0.86133  1.0000
  C   C42       1.0  0.20429  0.02707  0.87033  1.0000
  C   C43       1.0  0.21859  0.03878  0.86179  1.0000
  C   C44       1.0  0.23070  0.03541  0.84433  1.0000
  C   C45       1.0  0.22791  0.02047  0.83535  1.0000
  C   C46       1.0  0.21326  0.00909  0.84363  1.0000
  H   H51       1.0  0.19552  0.02943  0.88418  1.0000
  H   H52       1.0  0.22066  0.05000  0.86905  1.0000
  H   H53       1.0  0.21929  0.19867  0.65424  1.0000
  S   S37       1.0  0.29525  0.12008  0.65795  1.0000
  C   C47       1.0  0.34962  0.14827  0.85986  1.0000
  C   C48       1.0  0.35449  0.12840  0.86624  1.0000
  C   C49       1.0  0.34349  0.11526  0.86339  1.0000
  C   C50       1.0  0.32708  0.12160  0.85437  1.0000
  C   C51       1.0  0.32199  0.14158  0.84777  1.0000
  C   C52       1.0  0.33344  0.15488  0.85025  1.0000
  H   H54       1.0  0.36693  0.12303  0.87354  1.0000
  H   H55       1.0  0.34767  0.09996  0.86849  1.0000
  H   H56       1.0  0.30932  0.14669  0.84083  1.0000
  H   H57       1.0  0.32982  0.17012  0.84477  1.0000
  C   C53       1.0  0.30099  0.15696  0.70116  1.0000
  C   C54       1.0  0.28430  0.14860  0.70371  1.0000
  C   C55       1.0  0.28270  0.13670  0.69081  1.0000
  H   H58       1.0  0.27264  0.15140  0.71560  1.0000
  H   H59       1.0  0.26992  0.13007  0.69300  1.0000
  C   C56       1.0  0.37700  0.19275  0.76330  1.0000
  C   C57       1.0  0.37776  0.18962  0.78318  1.0000
  C   C58       1.0  0.37175  0.20505  0.79365  1.0000
  C   C59       1.0  0.36559  0.22371  0.78414  1.0000
  C   C60       1.0  0.09161  0.21277  0.75372  1.0000
  C   C61       1.0  0.37112  0.21145  0.75372  1.0000
  H   H60       1.0  0.38229  0.17518  0.79065  1.0000
  H   H61       1.0  0.37163  0.20239  0.80914  1.0000
  H   H62       1.0  0.37096  0.21401  0.73827  1.0000
  H   H63       1.0  0.18642  0.16421  0.79536  1.0000
  H   H64       1.0  0.42727  0.12111  0.71730  1.0000
  H   H65       1.0  0.46139  0.16579  0.70997  1.0000
  H   H66       1.0  0.43701  0.19594  0.88896  1.0000
  C   C62       1.0  0.29929  0.08466  0.74835  1.0000
  H   H67       1.0  0.18859  0.17694  0.91228  1.0000
  C   C63       1.0  0.10824  0.21045  0.90045  1.0000
  C   C64       1.0  0.43770  0.02760  0.65143  1.0000
  H   H68       1.0  0.44354  0.01299  0.70129  1.0000
  H   H69       1.0  0.11262  0.21059  0.88454  1.0000
  H   H70       1.0  0.17189  0.11798  0.67912  1.0000
  H   H71       1.0  0.48352  0.21694  0.90360  1.0000
  Fe  Fe17      1.0  0.13540  0.21431  0.70011  1.0000
  C   C65       1.0  0.19399  0.18484  0.82540  1.0000
  C   C66       1.0  0.21378  0.18074  0.82666  1.0000
  C   C67       1.0  0.22071  0.16541  0.84047  1.0000
  C   C68       1.0  0.20791  0.15409  0.85293  1.0000
  C   C69       1.0  0.18815  0.15816  0.85156  1.0000
  C   C70       1.0  0.18117  0.17356  0.83784  1.0000
  H   H72       1.0  0.22370  0.18950  0.81711  1.0000
  H   H73       1.0  0.23591  0.16253  0.84168  1.0000
  H   H74       1.0  0.17835  0.14907  0.86074  1.0000
  H   H75       1.0  0.16594  0.17641  0.83662  1.0000
  S   S38       1.0  0.38335  0.19621  0.69499  1.0000
  C   C71       1.0  0.22519  0.20760  0.67879  1.0000
  C   C72       1.0  0.41450  0.14844  0.65973  1.0000
  H   H76       1.0  0.47458  0.11961  0.69906  1.0000
  C   C73       1.0  0.45312  0.15819  0.70297  1.0000
  H   H77       1.0  0.05657  0.13477  0.87244  1.0000
  H   H78       1.0  0.13971  0.21505  0.73942  1.0000
  C   C74       1.0  0.21417  0.19302  0.75215  1.0000
  H   H79       1.0  0.44938  0.13372  0.75654  1.0000
  C   C75       1.0  0.45679  0.03108  0.64974  1.0000
  C   C76       1.0  0.05712  0.03911  0.86978  1.0000
  C   C77       1.0  0.06639  0.02201  0.88001  1.0000
  C   C78       1.0  0.08249  0.01036  0.87062  1.0000
  C   C79       1.0  0.08930  0.01559  0.85080  1.0000
  C   C80       1.0  0.08023  0.03286  0.84067  1.0000
  C   C81       1.0  0.06438  0.04467  0.85015  1.0000
  H   H80       1.0  0.06096  0.01762  0.89524  1.0000
  H   H81       1.0  0.41653  0.11929  0.65454  1.0000
  H   H82       1.0  0.08546  0.03709  0.82537  1.0000
  H   H83       1.0  0.05780  0.05810  0.84231  1.0000
  C   C82       1.0  0.05271  0.15728  0.84783  1.0000
  C   C83       1.0  0.05936  0.17410  0.83692  1.0000
  C   C84       1.0  0.07442  0.18138  0.84191  1.0000
  C   C85       1.0  0.08293  0.17208  0.85814  1.0000
  C   C86       1.0  0.07633  0.15521  0.86908  1.0000
  C   C87       1.0  0.06142  0.14775  0.86390  1.0000
  H   H84       1.0  0.05277  0.18162  0.82447  1.0000
  H   H85       1.0  0.07927  0.19436  0.83333  1.0000
  S   S39       1.0  0.34408  0.19395  0.67805  1.0000
  N   N4        1.0  0.13532  0.04318  0.86276  1.0000
  C   C88       1.0  0.15156  0.04996  0.86830  1.0000
  C   C89       1.0  0.12919  0.02754  0.87856  1.0000
  C   C90       1.0  0.14267  0.03452  0.84485  1.0000
  C   C91       1.0  0.11951  0.05971  0.85913  1.0000
  C   C92       1.0  0.12339  0.07637  0.84533  1.0000
  C   C93       1.0  0.10004  0.05989  0.86896  1.0000
  C   C94       1.0  0.10881  0.09234  0.84193  1.0000
  C   C95       1.0  0.08558  0.07595  0.86544  1.0000
  C   C96       1.0  0.08995  0.09214  0.85200  1.0000
  H   H86       1.0  0.14639  0.05772  0.88097  1.0000
  H   H87       1.0  0.16309  0.03765  0.87240  1.0000
  H   H88       1.0  0.15897  0.05977  0.85627  1.0000
  H   H89       1.0  0.12336  0.03302  0.89251  1.0000
  H   H90       1.0  0.14161  0.01573  0.88139  1.0000
  H   H91       1.0  0.11810  0.02058  0.87471  1.0000
  H   H92       1.0  0.14914  0.04482  0.83264  1.0000
  H   H93       1.0  0.15420  0.02162  0.84724  1.0000
  H   H94       1.0  0.13078  0.02966  0.83993  1.0000
  H   H95       1.0  0.13776  0.07714  0.83706  1.0000
  H   H96       1.0  0.09548  0.04774  0.87932  1.0000
  H   H97       1.0  0.11212  0.10496  0.83142  1.0000
  H   H98       1.0  0.07080  0.07571  0.87306  1.0000
  H   H99       1.0  0.07866  0.10453  0.84929  1.0000
  C   C97       1.0  0.38855  0.08153  0.66875  1.0000
  H   H100      1.0  0.31558  0.05896  0.66746  1.0000
  H   H101      1.0  0.30525  0.11695  0.89556  1.0000
  N   N5        1.0  0.32465  0.15439  0.78649  1.0000
  C   C98       1.0  0.34387  0.14628  0.79245  1.0000
  C   C99       1.0  0.31289  0.13853  0.79148  1.0000
  C   C100      1.0  0.32752  0.16036  0.76507  1.0000
  C   C101      1.0  0.31557  0.17146  0.79595  1.0000
  C   C102      1.0  0.29675  0.17306  0.80749  1.0000
  C   C103      1.0  0.32559  0.18730  0.79361  1.0000
  H   H102      1.0  0.34254  0.14272  0.80857  1.0000
  H   H103      1.0  0.35066  0.13279  0.78645  1.0000
  H   H104      1.0  0.35454  0.15639  0.78719  1.0000
  H   H105      1.0  0.29863  0.14320  0.78636  1.0000
  H   H106      1.0  0.31039  0.13316  0.80744  1.0000
  H   H107      1.0  0.32020  0.12579  0.78442  1.0000
  H   H108      1.0  0.33768  0.17101  0.75999  1.0000
  H   H109      1.0  0.33382  0.14785  0.75734  1.0000
  H   H110      1.0  0.31351  0.16706  0.75995  1.0000
  H   H111      1.0  0.28784  0.16195  0.80981  1.0000
  H   H112      1.0  0.33967  0.18734  0.78460  1.0000
  C   C104      1.0  0.03888  0.01790  0.82408  1.0000
  H   H113      1.0  0.43564  0.16193  0.73906  1.0000
  H   H114      1.0  0.24406  0.06059  0.79390  1.0000
  H   H115      1.0  0.27440  0.06639  0.79143  1.0000
  C   C105      1.0  0.25607  0.03289  0.75829  1.0000
  C   C106      1.0  0.28103  0.06114  0.74373  1.0000
  H   H116      1.0  0.23664  0.16611  0.77378  1.0000
  H   H117      1.0  0.01698  0.13189  0.91549  1.0000
  C   C107      1.0  0.14101  0.19350  0.90638  1.0000
  H   H118      1.0  0.27702  0.05407  0.73339  1.0000
  C   C108      1.0  0.27043  0.02807  0.78702  1.0000
  C   C109      1.0  0.22071  0.16597  0.77718  1.0000
  N   N6        1.0  0.26079  0.04298  0.77271  1.0000
  H   H119      1.0  0.27224  0.03414  0.79968  1.0000
  C   C110      1.0  0.15361  0.16215  0.89545  1.0000
  C   C111      1.0  0.05461  0.99188  0.84683  1.0000
  H   H120      1.0  0.35666  0.12228  0.67705  1.0000
  H   H121      1.0  0.31457  0.14777  0.89547  1.0000
  H   H122      1.0  0.26184  0.01619  0.79316  1.0000
  C   C112      1.0  0.26367  0.14604  0.88496  1.0000
  C   C113      1.0  0.17164  0.16200  0.90033  1.0000
  Fe  Fe18      1.0  0.23223  0.09758  0.66190  1.0000
  C   C114      1.0  0.34972  0.09782  0.66768  1.0000
  C   C115      1.0  0.99674  0.11938  0.93796  1.0000
  C   C116      1.0  0.45921  0.12903  0.72628  1.0000
  H   H123      1.0  0.32950  0.06011  0.68563  1.0000
  C   C117      1.0  0.06477  0.99253  0.81238  1.0000
  N   N7        1.0  0.44395  0.14317  0.71730  1.0000
  Fe  Fe19      1.0  0.35865  0.23199  0.82878  1.0000
  H   H124      1.0  0.05644  0.98542  0.86161  1.0000
  H   H125      1.0  0.01739  0.02814  0.79471  1.0000
  H   H126      1.0  0.26000  0.14916  0.66108  1.0000
  C   C118      1.0  0.28890  0.18923  0.81658  1.0000
  N   N8        1.0  0.12524  0.21004  0.90985  1.0000
  H   H127      1.0  0.30938  0.00008  0.66371  1.0000
  C   C119      1.0  0.43356  0.13314  0.70718  1.0000
  C   C120      1.0  0.15937  0.17686  0.75125  1.0000
  H   H128      1.0  0.32606  0.21491  0.80128  1.0000
  N   N9        1.0  0.14065  0.14897  0.68443  1.0000
  C   C121      1.0  0.14138  0.17003  0.68020  1.0000
  C   C122      1.0  0.12119  0.22874  0.76226  1.0000
  Fe  Fe20      1.0  0.26342  0.06255  0.67075  1.0000
  H   H129      1.0  0.13687  0.17693  0.69340  1.0000
  C   C123      1.0  0.15952  0.16809  0.78569  1.0000
  C   C124      1.0  0.31586  0.15372  0.68551  1.0000
  H   H130      1.0  0.32892  0.15982  0.68359  1.0000
  H   H131      1.0  0.15626  0.17283  0.67365  1.0000
  C   C125      1.0  0.18064  0.11973  0.72352  1.0000
  C   C126      1.0  0.31387  0.14260  0.67214  1.0000
  C   C127      1.0  0.29741  0.13389  0.67490  1.0000
  C   C128      1.0  0.15462  0.13887  0.69754  1.0000
  C   C129      1.0  0.48874  0.10460  0.72264  1.0000
  H   H132      1.0  0.29552  0.21080  0.86665  1.0000
  H   H133      1.0  0.42116  0.14294  0.74242  1.0000
  H   H134      1.0  0.21743  0.16599  0.73035  1.0000
  H   H135      1.0  0.18342  0.15012  0.89768  1.0000
  C   C130      1.0  0.16953  0.12323  0.69278  1.0000
  H   H136      1.0  0.22981  0.19442  0.74947  1.0000
  H   H137      1.0  0.42602  0.03553  0.66044  1.0000
  C   C131      1.0  0.15322  0.14430  0.71600  1.0000
  C   C132      1.0  0.17963  0.16757  0.78254  1.0000
  H   H138      1.0  0.26316  0.19811  0.89958  1.0000
  H   H139      1.0  0.27846  0.18684  0.91732  1.0000
  C   C133      1.0  0.30007  0.14812  0.89284  1.0000
  N   N10       1.0  0.34305  0.06901  0.65620  1.0000
  H   H140      1.0  0.28208  0.20978  0.90250  1.0000
  C   C134      1.0  0.27833  0.19534  0.90243  1.0000
  C   C135      1.0  0.44626  0.22076  0.86962  1.0000
  C   C136      1.0  0.42914  0.15327  0.73143  1.0000
  C   C137      1.0  0.18237  0.11397  0.70560  1.0000
  C   C138      1.0  0.29944  0.20426  0.81440  1.0000
  H   H141      1.0  0.27458  0.19000  0.82541  1.0000
  H   H142      1.0  0.24833  0.04335  0.74734  1.0000
  H   H143      1.0  0.23268  0.04167  0.79073  1.0000
  H   H144      1.0  0.19435  0.17227  0.67091  1.0000
  H   H145      1.0  0.01616  0.17193  0.87542  1.0000
  C   C139      1.0  0.13846  0.17756  0.89846  1.0000
  N   N11       1.0  0.29213  0.18501  0.88783  1.0000
  C   C140      1.0  0.28705  0.16568  0.88867  1.0000
  H   H146      1.0  0.31398  0.17621  0.90646  1.0000
  H   H147      1.0  0.30034  0.18872  0.85682  1.0000
  H   H148      1.0  0.14324  0.12637  0.66738  1.0000
  C   C141      1.0  0.12516  0.21742  0.74752  1.0000
  H   H149      1.0  0.29899  0.07725  0.72068  1.0000
  H   H150      1.0  0.20861  0.19880  0.73824  1.0000
  C   C142      1.0  0.17942  0.17661  0.74794  1.0000
  Fe  Fe21      1.0  0.35366  0.21439  0.69306  1.0000
  H   H151      1.0  0.27586  0.19966  0.86492  1.0000
  C   C143      1.0  0.29086  0.19651  0.86821  1.0000
  H   H152      1.0  0.42144  0.14318  0.70088  1.0000
  C   C144      1.0  0.31204  0.18428  0.89174  1.0000
  C   C145      1.0  0.05102  0.00915  0.80870  1.0000
  C   C146      1.0  0.19021  0.17194  0.76349  1.0000
  C   C147      1.0  0.26861  0.16406  0.88490  1.0000
  H   H153      1.0  0.32333  0.17744  0.88081  1.0000
  H   H154      1.0  0.29347  0.21667  0.82163  1.0000
  C   C148      1.0  0.44546  0.15874  0.65774  1.0000
  H   H155      1.0  0.10981  0.15287  0.68433  1.0000
  H   H156      1.0  0.14206  0.15585  0.72077  1.0000
  C   C149      1.0  0.45543  0.14029  0.65469  1.0000
  H   H157      1.0  0.13375  0.17361  0.77263  1.0000
  H   H158      1.0  0.30867  0.09537  0.74236  1.0000
  H   H159      1.0  0.20624  0.20270  0.76273  1.0000
  H   H160      1.0  0.08926  0.99706  0.87858  1.0000
  H   H161      1.0  0.26936  0.02473  0.75059  1.0000
  C   C150      1.0  0.04096  0.00862  0.84335  1.0000
  H   H162      1.0  0.40373  0.07538  0.66906  1.0000
  C   C151      1.0  0.14940  0.17278  0.77009  1.0000
  C   C152      1.0  0.01060  0.03251  0.80898  1.0000
  C   C153      1.0  0.23047  0.19792  0.66276  1.0000
  H   H163      1.0  0.44319  0.12687  0.69487  1.0000
  H   H164      1.0  0.02412  0.04741  0.84590  1.0000
  H   H165      1.0  0.25791  0.17671  0.88167  1.0000
  H   H166      1.0  0.21834  0.14534  0.74943  1.0000
  C   C154      1.0  0.08748  0.22465  0.76807  1.0000
  C   C155      1.0  0.10226  0.23276  0.77221  1.0000
  C   C156      1.0  0.27361  0.05754  0.76397  1.0000
  C   C157      1.0  0.11035  0.20962  0.74302  1.0000
  C   C158      1.0  0.44491  0.12605  0.65361  1.0000
  H   H167      1.0  0.43550  0.22179  0.86041  1.0000
  C   C159      1.0  0.03576  0.05120  0.80752  1.0000
  C   C160      1.0  0.27684  0.12914  0.88890  1.0000
  N   N12       1.0  0.02507  0.03600  0.81974  1.0000
  C   C161      1.0  0.38136  0.09974  0.67398  1.0000
  H   H168      1.0  0.12498  0.17666  0.89424  1.0000
  H   H169      1.0  0.27316  0.11519  0.88857  1.0000
  C   C162      1.0  0.29215  0.08160  0.76817  1.0000
  S   S40       1.0  0.10828  0.00059  0.83782  1.0000
  C   C163      1.0  0.22152  0.16039  0.74493  1.0000
  C   C164      1.0  0.27957  0.06823  0.77593  1.0000
  H   H170      1.0  0.23422  0.21422  0.70350  1.0000
  H   H171      1.0  0.46349  0.15199  0.69099  1.0000
  C   C165      1.0  0.42504  0.16269  0.66068  1.0000
  H   H172      1.0  0.09706  0.22356  0.90229  1.0000
  C   C166      1.0  0.16603  0.13478  0.72877  1.0000
  H   H173      1.0  0.24963  0.14511  0.88174  1.0000
  N   N13       1.0  0.99206  0.16259  0.89663  1.0000
  C   C167      1.0  0.29375  0.07445  0.73616  1.0000
  H   H174      1.0  0.23386  0.06273  0.77238  1.0000
  H   H175      1.0  0.15169  0.16525  0.80039  1.0000
  S   S41       1.0  0.46118  0.04787  0.66314  1.0000
  S   S42       1.0  0.27853  0.03211  0.66789  1.0000
  S   S43       1.0  0.16732  0.20296  0.69549  1.0000
  C   C168      1.0  0.19452  0.16529  0.65869  1.0000
  H   H176      1.0  0.26737  0.19526  0.69706  1.0000
  H   H177      1.0  0.16457  0.13895  0.74289  1.0000
  H   H178      1.0  0.10644  0.22099  0.93435  1.0000
  Fe  Fe22      1.0  0.27105  0.10294  0.66865  1.0000
  H   H179      1.0  0.29604  0.09000  0.77752  1.0000
  H   H180      1.0  0.00395  0.05728  0.83365  1.0000
  H   H181      1.0  0.19061  0.11239  0.73339  1.0000
  C   C169      1.0  0.13252  0.22868  0.90229  1.0000
  H   H182      1.0  0.21886  0.15083  0.78381  1.0000
  C   C170      1.0  0.24211  0.05240  0.78286  1.0000
  H   H183      1.0  0.31658  0.08174  0.67328  1.0000
  C   C171      1.0  0.47260  0.23376  0.87772  1.0000
  H   H184      1.0  0.23760  0.15940  0.74293  1.0000
  H   H185      1.0  0.02183  0.16261  0.89921  1.0000
  H   H186      1.0  0.41747  0.17688  0.66331  1.0000
  C   C172      1.0  0.29489  0.13017  0.89298  1.0000
  H   H187      1.0  0.44210  0.16928  0.69602  1.0000
  C   C173      1.0  0.47490  0.11272  0.75434  1.0000
  H   H188      1.0  0.03269  0.01429  0.85605  1.0000
  H   H189      1.0  0.32522  0.14064  0.65976  1.0000
  H   H190      1.0  0.47535  0.11067  0.76976  1.0000
  H   H191      1.0  0.23593  0.15592  0.65577  1.0000
  S   S44       1.0  0.18334  0.99768  0.87312  1.0000
  H   H192      1.0  0.15140  0.18066  0.73917  1.0000
  H   H193      1.0  0.20476  0.13674  0.67324  1.0000
  H   H194      1.0  0.13398  0.15002  0.65582  1.0000
  C   C174      1.0  0.46002  0.12599  0.74649  1.0000
  C   C175      1.0  0.12069  0.14617  0.69403  1.0000
  H   H195      1.0  0.45355  0.16994  0.65815  1.0000
  H   H196      1.0  0.99238  0.18405  0.91386  1.0000
  C   C176      1.0  0.11835  0.20882  0.93104  1.0000
  H   H197      1.0  0.21485  0.17548  0.78832  1.0000
  H   H198      1.0  0.41788  0.16369  0.72412  1.0000
  H   H199      1.0  0.15140  0.15032  0.88907  1.0000
  C   C177      1.0  0.48923  0.10207  0.74243  1.0000
  C   C178      1.0  0.35642  0.07916  0.66245  1.0000
  H   H200      1.0  0.28511  0.02152  0.78029  1.0000
  C   C179      1.0  0.15943  0.19264  0.91167  1.0000
  H   H201      1.0  0.00252  0.02089  0.81748  1.0000
  C   C180      1.0  0.32550  0.06740  0.67132  1.0000
  Fe  Fe23      1.0  0.17009  0.23303  0.69792  1.0000
  H   H202      1.0  0.13152  0.17798  0.66985  1.0000
  H   H203      1.0  0.16233  0.20391  0.91828  1.0000
  C   C181      1.0  0.17452  0.17718  0.90849  1.0000
  H   H204      1.0  0.31536  0.19903  0.89106  1.0000
  H   H205      1.0  0.24623  0.02226  0.76532  1.0000
  H   H206      1.0  0.13018  0.20935  0.93895  1.0000
  H   H207      1.0  0.27692  0.17810  0.66965  1.0000
  H   H208      1.0  0.05021  0.01532  0.79370  1.0000
  H   H209      1.0  0.11969  0.13048  0.69831  1.0000
  C   C182      1.0  0.42453  0.13025  0.65575  1.0000
  C   C183      1.0  0.01419  0.04375  0.83740  1.0000
  C   C184      1.0  0.25707  0.19624  0.68733  1.0000
  H   H210      1.0  0.47722  0.00485  0.68501  1.0000
  H   H211      1.0  0.21057  0.21550  0.68192  1.0000
  C   C185      1.0  0.26250  0.18652  0.67134  1.0000
  C   C186      1.0  0.37636  0.07133  0.66299  1.0000
  H   H212      1.0  0.07285  0.22759  0.77593  1.0000
  Fe  Fe24      1.0  0.37750  0.23329  0.86355  1.0000
  H   H213      1.0  0.23729  0.01748  0.82203  1.0000
  S   S45       1.0  0.13336  0.22373  0.66844  1.0000
  C   C187      1.0  0.20065  0.14519  0.65993  1.0000
  C   C188      1.0  0.23847  0.20683  0.69101  1.0000
  H   H214      1.0  0.04782  0.05317  0.81436  1.0000
  H   H215      1.0  0.46113  0.19365  0.91039  1.0000
  C   C189      1.0  0.14447  0.14196  0.66548  1.0000
  C   C190      1.0  0.46061  0.20498  0.89779  1.0000
  Fe  Fe25      1.0  0.48778  0.06282  0.65898  1.0000
  H   H216      1.0  0.02614  0.06550  0.80527  1.0000
  H   H217      1.0  0.38294  0.05741  0.65894  1.0000
  S   S46       1.0  0.48089  0.13525  0.65325  1.0000
  H   H218      1.0  0.01885  0.14660  0.88359  1.0000
  H   H219      1.0  0.00522  0.03339  0.84700  1.0000
  C   C191      1.0  0.47330  0.21845  0.89382  1.0000
  C   C192      1.0  0.31212  0.01137  0.65140  1.0000
  Fe  Fe26      1.0  0.33395  0.23214  0.86821  1.0000
  H   H220      1.0  0.11277  0.19499  0.93726  1.0000
  H   H221      1.0  0.04210  0.04782  0.79279  1.0000
  C   C193      1.0  0.46685  0.99539  0.68557  1.0000
  H   H222      1.0  0.14263  0.23155  0.91101  1.0000
  H   H223      1.0  0.39078  0.10772  0.67838  1.0000
  C   C194      1.0  0.35185  0.04909  0.65260  1.0000
  H   H224      1.0  0.14034  0.22898  0.88710  1.0000
  H   H225      1.0  0.07434  0.98643  0.80044  1.0000
  H   H226      1.0  0.33491  0.10486  0.66721  1.0000
  C   C195      1.0  0.44777  0.99996  0.69475  1.0000
  H   H227      1.0  0.99972  0.04583  0.80586  1.0000
  S   S47       1.0  0.48798  0.08235  0.68033  1.0000
  C   C196      1.0  0.00179  0.13324  0.92180  1.0000
  C   C197      1.0  0.25143  0.15621  0.64940  1.0000
  H   H228      1.0  0.45247  0.11182  0.65111  1.0000
  C   C198      1.0  0.43408  0.98828  0.69494  1.0000
  H   H229      1.0  0.41953  0.99288  0.70209  1.0000
  C   C199      1.0  0.45875  0.23441  0.86558  1.0000
  H   H230      1.0  0.22387  0.23463  0.76197  1.0000
  C   C200      1.0  0.29915  0.02892  0.64982  1.0000
  Fe  Fe27      1.0  0.01993  0.32077  0.64031  1.0000
  S   S48       1.0  0.02554  0.33936  0.61096  1.0000
  H   H231      1.0  0.19568  0.33154  0.63537  1.0000
  Fe  Fe28      1.0  0.01964  0.36366  0.62869  1.0000
  S   S49       1.0  0.03953  0.38674  0.62106  1.0000
  H   H232      1.0  0.15231  0.38280  0.63809  1.0000
  C   C201      1.0  0.19557  0.31754  0.64468  1.0000
  S   S50       1.0  0.10544  0.45877  0.63415  1.0000
  C   C202      1.0  0.18839  0.45903  0.64411  1.0000
  C   C203      1.0  0.21313  0.30564  0.64793  1.0000
  H   H233      1.0  0.23625  0.26724  0.63412  1.0000
  H   H234      1.0  0.14352  0.36771  0.62567  1.0000
  C   C204      1.0  0.07048  0.41959  0.64006  1.0000
  C   C205      1.0  0.18601  0.40365  0.61875  1.0000
  S   S51       1.0  0.15883  0.43546  0.62346  1.0000
  C   C206      1.0  0.03496  0.46341  0.62394  1.0000
  C   C207      1.0  0.17350  0.41389  0.63240  1.0000
  C   C208      1.0  0.02678  0.43853  0.60890  1.0000
  C   C209      1.0  0.04935  0.39752  0.63671  1.0000
  C   C210      1.0  0.05407  0.47530  0.64253  1.0000
  C   C211      1.0  0.06293  0.40998  0.62844  1.0000
  H   H235      1.0  0.08080  0.42916  0.63335  1.0000
  H   H236      1.0  0.06747  0.41238  0.61284  1.0000
  C   C212      1.0  0.03775  0.45295  0.60824  1.0000
  H   H237      1.0  0.10143  0.38835  0.63122  1.0000
  H   H238      1.0  0.06323  0.31923  0.64246  1.0000
  H   H239      1.0  0.04859  0.45527  0.59547  1.0000
  H   H240      1.0  0.02965  0.43009  0.59721  1.0000
  H   H241      1.0  0.18629  0.40901  0.60338  1.0000
  H   H242      1.0  0.13499  0.39347  0.62251  1.0000
  H   H243      1.0  0.09756  0.31542  0.64720  1.0000
  C   C213      1.0  0.01277  0.43413  0.62500  1.0000
  C   C214      1.0  0.02004  0.45901  0.63981  1.0000
  C   C215      1.0  0.19825  0.38655  0.62472  1.0000
  Fe  Fe29      1.0  0.99304  0.34326  0.61143  1.0000
  H   H244      1.0  0.07321  0.46474  0.60851  1.0000
  S   S52       1.0  0.13466  0.48295  0.64611  1.0000
  C   C216      1.0  0.13914  0.38046  0.63333  1.0000
  H   H245      1.0  0.20266  0.44193  0.62216  1.0000
  C   C217      1.0  0.07076  0.30518  0.64815  1.0000
  H   H246      1.0  0.20787  0.37886  0.61391  1.0000
  N   N14       1.0  0.04652  0.47855  0.62393  1.0000
  H   H247      1.0  0.05899  0.48341  0.59342  1.0000
  H   H248      1.0  0.22083  0.41774  0.64357  1.0000
  H   H249      1.0  0.22618  0.31119  0.64064  1.0000
  H   H250      1.0  0.25280  0.28999  0.64322  1.0000
  Fe  Fe30      1.0  0.13518  0.45234  0.64237  1.0000
  C   C218      1.0  0.20129  0.44357  0.63724  1.0000
  H   H251      1.0  0.99152  0.33744  0.47964  1.0000
  C   C219      1.0  0.06350  0.47906  0.60797  1.0000
  C   C220      1.0  0.19833  0.37946  0.64445  1.0000
  H   H252      1.0  0.17993  0.46932  0.63435  1.0000
  H   H253      1.0  0.00491  0.42238  0.62568  1.0000
  H   H254      1.0  0.10930  0.36294  0.63358  1.0000
  C   C221      1.0  0.10603  0.37530  0.64176  1.0000
  H   H255      1.0  0.99388  0.31349  0.57102  1.0000
  H   H256      1.0  0.06203  0.46029  0.64563  1.0000
  C   C222      1.0  0.00932  0.44442  0.64037  1.0000
  H   H257      1.0  0.11151  0.40788  0.64916  1.0000
  H   H258      1.0  0.15231  0.28402  0.78574  1.0000
  S   S53       1.0  0.34660  0.24681  0.68376  1.0000
  C   C223      1.0  0.29507  0.25799  0.75316  1.0000
  S   S54       1.0  0.09693  0.24896  0.78885  1.0000
  H   H259      1.0  0.44175  0.29162  0.88095  1.0000
  H   H260      1.0  0.31666  0.25256  0.84037  1.0000
  C   C224      1.0  0.23364  0.42547  0.69076  1.0000
  S   S55       1.0  0.13423  0.26630  0.86336  1.0000
  H   H261      1.0  0.30216  0.24260  0.75313  1.0000
  H   H262      1.0  0.22143  0.25197  0.68629  1.0000
  C   C225      1.0  0.19524  0.28188  0.66911  1.0000
  H   H263      1.0  0.27858  0.24176  0.71029  1.0000
  S   S56       1.0  0.43964  0.28397  0.92329  1.0000
  H   H264      1.0  0.32968  0.26982  0.77313  1.0000
  S   S57       1.0  0.45797  0.37202  0.88299  1.0000
  S   S58       1.0  0.46370  0.32912  0.92801  1.0000
  C   C226      1.0  0.48387  0.25703  0.89167  1.0000
  H   H265      1.0  0.40392  0.46517  0.92524  1.0000
  H   H266      1.0  0.24811  0.28457  0.76197  1.0000
  C   C227      1.0  0.42338  0.27367  0.87464  1.0000
  S   S59       1.0  0.12558  0.44178  0.67380  1.0000
  H   H267      1.0  0.28867  0.26247  0.73961  1.0000
  H   H268      1.0  0.04379  0.32042  0.68120  1.0000
  S   S60       1.0  0.07348  0.42887  0.67556  1.0000
  Fe  Fe31      1.0  0.21309  0.33752  0.86302  1.0000
  S   S61       1.0  0.21998  0.33879  0.83098  1.0000
  S   S62       1.0  0.18790  0.32204  0.87889  1.0000
  Fe  Fe32      1.0  0.24647  0.36057  0.86319  1.0000
  S   S63       1.0  0.25529  0.36261  0.83084  1.0000
  S   S64       1.0  0.26669  0.36884  0.88072  1.0000
  Fe  Fe33      1.0  0.22328  0.36944  0.83001  1.0000
  S   S65       1.0  0.21077  0.39289  0.80775  1.0000
  Fe  Fe34      1.0  0.25090  0.33173  0.83537  1.0000
  S   S66       1.0  0.27123  0.30947  0.81952  1.0000
  S   S67       1.0  0.21426  0.36920  0.86213  1.0000
  S   S68       1.0  0.24416  0.32875  0.86780  1.0000
  Fe  Fe35      1.0  0.21955  0.34557  0.68110  1.0000
  S   S69       1.0  0.20512  0.35923  0.70704  1.0000
  C   C228      1.0  0.40705  0.25409  0.90224  1.0000
  Fe  Fe36      1.0  0.24234  0.31105  0.70505  1.0000
  S   S70       1.0  0.23006  0.32255  0.73287  1.0000
  H   H269      1.0  0.33531  0.37306  0.86808  1.0000
  Fe  Fe37      1.0  0.20182  0.32908  0.72183  1.0000
  S   S71       1.0  0.17490  0.31883  0.73913  1.0000
  Fe  Fe38      1.0  0.23486  0.35137  0.71529  1.0000
  S   S72       1.0  0.24737  0.37406  0.72403  1.0000
  S   S73       1.0  0.21358  0.31598  0.69502  1.0000
  S   S74       1.0  0.24977  0.33945  0.68826  1.0000
  Fe  Fe39      1.0  0.36077  0.44232  0.90637  1.0000
  S   S75       1.0  0.32999  0.45260  0.92017  1.0000
  S   S76       1.0  0.37790  0.41603  0.92257  1.0000
  H   H270      1.0  0.44441  0.45853  0.93427  1.0000
  C   C229      1.0  0.20580  0.40921  0.70070  1.0000
  C   C230      1.0  0.12878  0.32703  0.68117  1.0000
  H   H271      1.0  0.09800  0.25471  0.66812  1.0000
  Fe  Fe40      1.0  0.32300  0.45546  0.88999  1.0000
  S   S77       1.0  0.29764  0.44814  0.87864  1.0000
  S   S78       1.0  0.36933  0.47189  0.89963  1.0000
  S   S79       1.0  0.35332  0.44366  0.87692  1.0000
  H   H272      1.0  0.24294  0.40345  0.66319  1.0000
  H   H273      1.0  0.20700  0.31877  0.80622  1.0000
  C   C231      1.0  0.14510  0.36069  0.67393  1.0000
  H   H274      1.0  0.14943  0.31548  0.70067  1.0000
  Fe  Fe41      1.0  0.47267  0.34282  0.89704  1.0000
  C   C232      1.0  0.29001  0.42566  0.87879  1.0000
  C   C233      1.0  0.27563  0.42548  0.86780  1.0000
  C   C234      1.0  0.26863  0.40824  0.86788  1.0000
  C   C235      1.0  0.27569  0.39090  0.87922  1.0000
  C   C236      1.0  0.29020  0.39103  0.89010  1.0000
  C   C237      1.0  0.29742  0.40821  0.88980  1.0000
  H   H275      1.0  0.26965  0.43883  0.85932  1.0000
  H   H276      1.0  0.25743  0.40849  0.85949  1.0000
  H   H277      1.0  0.29569  0.37781  0.89909  1.0000
  H   H278      1.0  0.30829  0.40808  0.89851  1.0000
  C   C238      1.0  0.22028  0.38756  0.78440  1.0000
  C   C239      1.0  0.22213  0.36874  0.78051  1.0000
  C   C240      1.0  0.22993  0.36461  0.76179  1.0000
  C   C241      1.0  0.23650  0.37916  0.74716  1.0000
  C   C242      1.0  0.23468  0.39795  0.75105  1.0000
  C   C243      1.0  0.22624  0.40223  0.76956  1.0000
  H   H279      1.0  0.21738  0.35743  0.79187  1.0000
  H   H280      1.0  0.23138  0.35009  0.75885  1.0000
  H   H281      1.0  0.23985  0.40920  0.73979  1.0000
  H   H282      1.0  0.22493  0.41675  0.77257  1.0000
  S   S80       1.0  0.47113  0.31696  0.88405  1.0000
  H   H283      1.0  0.20932  0.28999  0.73720  1.0000
  H   H284      1.0  0.07345  0.30682  0.69386  1.0000
  H   H285      1.0  0.46730  0.27214  0.86014  1.0000
  H   H286      1.0  0.21309  0.39752  0.71096  1.0000
  H   H287      1.0  0.22563  0.27316  0.69386  1.0000
  H   H288      1.0  0.26238  0.27416  0.66279  1.0000
  H   H289      1.0  0.24541  0.25505  0.68620  1.0000
  C   C244      1.0  0.29217  0.25779  0.86302  1.0000
  C   C245      1.0  0.30268  0.26114  0.84421  1.0000
  C   C246      1.0  0.29568  0.27646  0.83050  1.0000
  C   C247      1.0  0.27801  0.28833  0.83550  1.0000
  C   C248      1.0  0.26662  0.28389  0.85369  1.0000
  C   C249      1.0  0.27378  0.26870  0.86754  1.0000
  C   C250      1.0  0.10011  0.28479  0.65807  1.0000
  H   H290      1.0  0.30451  0.27970  0.81643  1.0000
  H   H291      1.0  0.25250  0.29237  0.85728  1.0000
  H   H292      1.0  0.26546  0.26603  0.88200  1.0000
  C   C251      1.0  0.32163  0.25615  0.68873  1.0000
  C   C252      1.0  0.43225  0.28109  0.88700  1.0000
  C   C253      1.0  0.28218  0.27146  0.69950  1.0000
  C   C254      1.0  0.29530  0.28385  0.68992  1.0000
  C   C255      1.0  0.31503  0.27618  0.68458  1.0000
  H   H293      1.0  0.29039  0.29932  0.68709  1.0000
  H   H294      1.0  0.32530  0.28577  0.67759  1.0000
  C   C256      1.0  0.43568  0.38405  0.89416  1.0000
  C   C257      1.0  0.42815  0.37830  0.91368  1.0000
  C   C258      1.0  0.41036  0.38818  0.92214  1.0000
  C   C259      1.0  0.40004  0.40398  0.91123  1.0000
  C   C260      1.0  0.40768  0.40994  0.89178  1.0000
  C   C261      1.0  0.42536  0.39988  0.88325  1.0000
  H   H295      1.0  0.43610  0.36634  0.92231  1.0000
  H   H296      1.0  0.40461  0.38366  0.93727  1.0000
  H   H297      1.0  0.39991  0.42220  0.88328  1.0000
  H   H298      1.0  0.43110  0.40441  0.86813  1.0000
  C   C262      1.0  0.42885  0.27482  0.90709  1.0000
  H   H299      1.0  0.10941  0.27726  0.72146  1.0000
  C   C263      1.0  0.08483  0.25430  0.71977  1.0000
  H   H300      1.0  0.43521  0.41894  0.91331  1.0000
  H   H301      1.0  0.01407  0.30601  0.69337  1.0000
  C   C264      1.0  0.15071  0.28103  0.86622  1.0000
  C   C265      1.0  0.16868  0.28295  0.85405  1.0000
  C   C266      1.0  0.18041  0.29568  0.85728  1.0000
  C   C267      1.0  0.17431  0.30619  0.87286  1.0000
  C   C268      1.0  0.15652  0.30395  0.88484  1.0000
  C   C269      1.0  0.14484  0.29171  0.88147  1.0000
  H   H302      1.0  0.44132  0.44109  0.84771  1.0000
  H   H303      1.0  0.19417  0.29722  0.84801  1.0000
  H   H304      1.0  0.15162  0.31188  0.89689  1.0000
  H   H305      1.0  0.13107  0.29051  0.89093  1.0000
  C   C270      1.0  0.18639  0.25788  0.72488  1.0000
  H   H306      1.0  0.08720  0.25375  0.70394  1.0000
  C   C271      1.0  0.19750  0.28387  0.73471  1.0000
  C   C272      1.0  0.17869  0.29451  0.73614  1.0000
  C   C273      1.0  0.16346  0.28630  0.73322  1.0000
  C   C274      1.0  0.16737  0.26806  0.72737  1.0000
  H   H307      1.0  0.14885  0.29436  0.73454  1.0000
  S   S81       1.0  0.12426  0.28249  0.66192  1.0000
  S   S82       1.0  0.13824  0.24362  0.70470  1.0000
  H   H308      1.0  0.03318  0.38507  0.66352  1.0000
  H   H309      1.0  0.46851  0.26316  0.89654  1.0000
  Fe  Fe42      1.0  0.12291  0.47303  0.67750  1.0000
  H   H310      1.0  0.24610  0.25790  0.74647  1.0000
  C   C275      1.0  0.07107  0.27100  0.66008  1.0000
  H   H311      1.0  0.19416  0.26822  0.67860  1.0000
  H   H312      1.0  0.20250  0.31047  0.78558  1.0000
  H   H313      1.0  0.06998  0.28916  0.74830  1.0000
  H   H314      1.0  0.04653  0.40189  0.68414  1.0000
  H   H315      1.0  0.29558  0.46272  0.83733  1.0000
  C   C276      1.0  0.17278  0.47945  0.78613  1.0000
  H   H316      1.0  0.08936  0.26906  0.75109  1.0000
  S   S83       1.0  0.25787  0.28008  0.70869  1.0000
  H   H317      1.0  0.33554  0.27888  0.73726  1.0000
  H   H318      1.0  0.42074  0.47258  0.83839  1.0000
  C   C277      1.0  0.24902  0.28405  0.65888  1.0000
  C   C278      1.0  0.06148  0.28372  0.71542  1.0000
  C   C279      1.0  0.32749  0.47668  0.83287  1.0000
  C   C280      1.0  0.36167  0.32933  0.86027  1.0000
  C   C281      1.0  0.33849  0.35785  0.86667  1.0000
  Fe  Fe43      1.0  0.33829  0.48254  0.91149  1.0000
  H   H319      1.0  0.40322  0.44187  0.92004  1.0000
  C   C282      1.0  0.35766  0.34881  0.86231  1.0000
  S   S84       1.0  0.01528  0.34470  0.65789  1.0000
  H   H320      1.0  0.16175  0.48133  0.75912  1.0000
  H   H321      1.0  0.28915  0.32803  0.78082  1.0000
  H   H322      1.0  0.04344  0.26342  0.73361  1.0000
  C   C283      1.0  0.18179  0.46587  0.80055  1.0000
  C   C284      1.0  0.43507  0.45039  0.85849  1.0000
  H   H323      1.0  0.22166  0.39178  0.66968  1.0000
  H   H324      1.0  0.30719  0.32630  0.83928  1.0000
  H   H325      1.0  0.12198  0.33235  0.78841  1.0000
  Fe  Fe44      1.0  0.46373  0.30274  0.91482  1.0000
  Fe  Fe45      1.0  0.13252  0.24382  0.84519  1.0000
  C   C285      1.0  0.07579  0.27439  0.74478  1.0000
  H   H326      1.0  0.17345  0.27476  0.84222  1.0000
  H   H327      1.0  0.16384  0.41479  0.66295  1.0000
  N   N15       1.0  0.30909  0.27042  0.75431  1.0000
  H   H328      1.0  0.15208  0.37327  0.67142  1.0000
  C   C286      1.0  0.17796  0.31159  0.65336  1.0000
  C   C287      1.0  0.18557  0.44601  0.79979  1.0000
  C   C288      1.0  0.29908  0.29070  0.75440  1.0000
  C   C289      1.0  0.28948  0.30078  0.73875  1.0000
  C   C290      1.0  0.29867  0.30112  0.76963  1.0000
  C   C291      1.0  0.28027  0.32004  0.73825  1.0000
  C   C292      1.0  0.28012  0.32980  0.75338  1.0000
  H   H329      1.0  0.19437  0.44962  0.69113  1.0000
  S   S85       1.0  0.17158  0.24431  0.66609  1.0000
  C   C293      1.0  0.31810  0.26188  0.77186  1.0000
  C   C294      1.0  0.41079  0.26006  0.88211  1.0000
  C   C295      1.0  0.13211  0.31944  0.78380  1.0000
  C   C296      1.0  0.44253  0.42970  0.91722  1.0000
  H   H330      1.0  0.22611  0.43750  0.69870  1.0000
  H   H331      1.0  0.28223  0.48140  0.82244  1.0000
  C   C297      1.0  0.12173  0.34296  0.66805  1.0000
  C   C298      1.0  0.32476  0.26954  0.73715  1.0000
  H   H332      1.0  0.28925  0.29390  0.72661  1.0000
  H   H333      1.0  0.16942  0.30030  0.77838  1.0000
  H   H334      1.0  0.27342  0.32756  0.72592  1.0000
  H   H335      1.0  0.33614  0.46874  0.82118  1.0000
  Fe  Fe46      1.0  0.13910  0.25232  0.67270  1.0000
  N   N16       1.0  0.14428  0.30990  0.79884  1.0000
  C   C299      1.0  0.04378  0.30825  0.69301  1.0000
  C   C300      1.0  0.13137  0.30053  0.81560  1.0000
  S   S86       1.0  0.35305  0.25257  0.84995  1.0000
  C   C301      1.0  0.15415  0.32418  0.80401  1.0000
  C   C302      1.0  0.15396  0.32616  0.82356  1.0000
  C   C303      1.0  0.16484  0.33634  0.78927  1.0000
  C   C304      1.0  0.16362  0.33966  0.82790  1.0000
  C   C305      1.0  0.17423  0.34995  0.79376  1.0000
  C   C306      1.0  0.17358  0.35165  0.81305  1.0000
  N   N17       1.0  0.07934  0.27453  0.72350  1.0000
  H   H336      1.0  0.32532  0.24659  0.77146  1.0000
  C   C307      1.0  0.15909  0.29441  0.79097  1.0000
  H   H337      1.0  0.13970  0.29148  0.82678  1.0000
  H   H338      1.0  0.12351  0.29047  0.81120  1.0000
  H   H339      1.0  0.12018  0.31142  0.82262  1.0000
  H   H340      1.0  0.14090  0.32419  0.76953  1.0000
  C   C308      1.0  0.28927  0.32036  0.76904  1.0000
  H   H341      1.0  0.12325  0.30944  0.78082  1.0000
  H   H342      1.0  0.14642  0.31752  0.83586  1.0000
  H   H343      1.0  0.16610  0.33540  0.77409  1.0000
  H   H344      1.0  0.16337  0.34087  0.84295  1.0000
  H   H345      1.0  0.18207  0.35927  0.78223  1.0000
  H   H346      1.0  0.18086  0.36225  0.81651  1.0000
  N   N18       1.0  0.39813  0.33550  0.90845  1.0000
  C   C309      1.0  0.38967  0.31844  0.90728  1.0000
  C   C310      1.0  0.41735  0.33437  0.89556  1.0000
  C   C311      1.0  0.40160  0.33402  0.92861  1.0000
  C   C312      1.0  0.38447  0.35351  0.90328  1.0000
  C   C313      1.0  0.36541  0.35657  0.91410  1.0000
  C   C314      1.0  0.38951  0.36844  0.88769  1.0000
  C   C315      1.0  0.35224  0.37346  0.90961  1.0000
  C   C316      1.0  0.37617  0.38525  0.88329  1.0000
  C   C317      1.0  0.35763  0.38778  0.89427  1.0000
  H   H347      1.0  0.39953  0.30467  0.91125  1.0000
  H   H348      1.0  0.37577  0.31736  0.91741  1.0000
  H   H349      1.0  0.38696  0.31883  0.89233  1.0000
  H   H350      1.0  0.42507  0.34622  0.89639  1.0000
  H   H351      1.0  0.41602  0.33487  0.88016  1.0000
  H   H352      1.0  0.42715  0.32063  0.89981  1.0000
  H   H353      1.0  0.38823  0.33275  0.93953  1.0000
  H   H354      1.0  0.41252  0.32105  0.93269  1.0000
  H   H355      1.0  0.40716  0.34698  0.93033  1.0000
  H   H356      1.0  0.36062  0.34605  0.92636  1.0000
  H   H357      1.0  0.40380  0.36777  0.87896  1.0000
  H   H358      1.0  0.33789  0.37568  0.91831  1.0000
  H   H359      1.0  0.38044  0.39671  0.87169  1.0000
  H   H360      1.0  0.34754  0.40107  0.89116  1.0000
  N   N19       1.0  0.22688  0.29358  0.79804  1.0000
  C   C318      1.0  0.23198  0.28601  0.81768  1.0000
  C   C319      1.0  0.24097  0.30647  0.78755  1.0000
  C   C320      1.0  0.20729  0.30559  0.80000  1.0000
  C   C321      1.0  0.22673  0.27727  0.78808  1.0000
  C   C322      1.0  0.21417  0.26356  0.79651  1.0000
  C   C323      1.0  0.23836  0.27475  0.76974  1.0000
  C   C324      1.0  0.18610  0.46098  0.66355  1.0000
  H   H361      1.0  0.19254  0.43581  0.81085  1.0000
  C   C325      1.0  0.06086  0.30018  0.70047  1.0000
  H   H362      1.0  0.24656  0.27673  0.81679  1.0000
  H   H363      1.0  0.23253  0.29792  0.82547  1.0000
  H   H364      1.0  0.25615  0.29849  0.78600  1.0000
  H   H365      1.0  0.24082  0.31851  0.79548  1.0000
  H   H366      1.0  0.28557  0.31015  0.89090  1.0000
  H   H367      1.0  0.19619  0.29773  0.80985  1.0000
  C   C326      1.0  0.20129  0.26550  0.72933  1.0000
  H   H368      1.0  0.41297  0.44393  0.94075  1.0000
  H   H369      1.0  0.29130  0.33326  0.89058  1.0000
  H   H370      1.0  0.32558  0.28847  0.87885  1.0000
  H   H371      1.0  0.29137  0.34119  0.85554  1.0000
  C   C327      1.0  0.29833  0.32604  0.85406  1.0000
  S   S87       1.0  0.21452  0.35797  0.65061  1.0000
  H   H372      1.0  0.28634  0.31794  0.85464  1.0000
  C   C328      1.0  0.23115  0.39936  0.67522  1.0000
  H   H373      1.0  0.09330  0.29978  0.71751  1.0000
  C   C329      1.0  0.22485  0.24627  0.76928  1.0000
  H   H374      1.0  0.42632  0.27848  0.85910  1.0000
  H   H375      1.0  0.24647  0.29603  0.66747  1.0000
  N   N20       1.0  0.31030  0.31706  0.86936  1.0000
  C   C330      1.0  0.29798  0.31817  0.88868  1.0000
  H   H376      1.0  0.30653  0.31201  0.90061  1.0000
  C   C331      1.0  0.31642  0.29622  0.86781  1.0000
  C   C332      1.0  0.41853  0.47422  0.88620  1.0000
  H   H377      1.0  0.20479  0.26458  0.81033  1.0000
  H   H378      1.0  0.27306  0.34480  0.75288  1.0000
  C   C333      1.0  0.28867  0.25145  0.70302  1.0000
  H   H379      1.0  0.32438  0.29410  0.85305  1.0000
  H   H380      1.0  0.30557  0.29486  0.78215  1.0000
  H   H381      1.0  0.30369  0.28869  0.87042  1.0000
  H   H382      1.0  0.16771  0.28595  0.80219  1.0000
  C   C334      1.0  0.17778  0.29381  0.66559  1.0000
  H   H383      1.0  0.16401  0.28914  0.67218  1.0000
  C   C335      1.0  0.41605  0.26142  0.91463  1.0000
  H   H384      1.0  0.22135  0.27737  0.82724  1.0000
  H   H385      1.0  0.30861  0.35524  0.87189  1.0000
  H   H386      1.0  0.35070  0.30380  0.86063  1.0000
  C   C336      1.0  0.32678  0.32758  0.86711  1.0000
  Fe  Fe47      1.0  0.09552  0.44969  0.66588  1.0000
  C   C337      1.0  0.32326  0.34747  0.86893  1.0000
  C   C338      1.0  0.34653  0.31878  0.86262  1.0000
  C   C339      1.0  0.14382  0.32792  0.69069  1.0000
  H   H387      1.0  0.18362  0.42366  0.78436  1.0000
  C   C340      1.0  0.30828  0.24382  0.69762  1.0000
  H   H388      1.0  0.10626  0.39299  0.67232  1.0000
  H   H389      1.0  0.19832  0.42058  0.70949  1.0000
  N   N21       1.0  0.43169  0.44969  0.91300  1.0000
  C   C341      1.0  0.17189  0.45200  0.77036  1.0000
  H   H390      1.0  0.45773  0.42832  0.90926  1.0000
  H   H391      1.0  0.36940  0.35699  0.86026  1.0000
  C   C342      1.0  0.21328  0.24834  0.78719  1.0000
  C   C343      1.0  0.09627  0.28451  0.71498  1.0000
  C   C344      1.0  0.18058  0.43909  0.78479  1.0000
  H   H392      1.0  0.06540  0.26467  0.75280  1.0000
  Fe  Fe48      1.0  0.35861  0.47445  0.87143  1.0000
  C   C345      1.0  0.44220  0.46300  0.91885  1.0000
  C   C346      1.0  0.06114  0.28915  0.65279  1.0000
  H   H393      1.0  0.16810  0.44657  0.75865  1.0000
  H   H394      1.0  0.45673  0.46336  0.90958  1.0000
  N   N22       1.0  0.21986  0.41644  0.68375  1.0000
  H   H395      1.0  0.18620  0.47019  0.81251  1.0000
  C   C347      1.0  0.20942  0.43103  0.66986  1.0000
  H   H396      1.0  0.30403  0.46728  0.81157  1.0000
  C   C348      1.0  0.41218  0.45024  0.92527  1.0000
  C   C349      1.0  0.23739  0.25940  0.76061  1.0000
  H   H397      1.0  0.12060  0.24141  0.90215  1.0000
  H   H398      1.0  0.15567  0.26202  0.72471  1.0000
  H   H399      1.0  0.30720  0.26171  0.78543  1.0000
  C   C350      1.0  0.02699  0.30011  0.69986  1.0000
  C   C351      1.0  0.42959  0.45595  0.89229  1.0000
  C   C352      1.0  0.15200  0.34470  0.68705  1.0000
  C   C353      1.0  0.05122  0.40417  0.66857  1.0000
  H   H400      1.0  0.41315  0.25657  0.93016  1.0000
  H   H401      1.0  0.37659  0.32237  0.85659  1.0000
  H   H402      1.0  0.23844  0.38843  0.68610  1.0000
  H   H403      1.0  0.23759  0.31347  0.77296  1.0000
  C   C354      1.0  0.11756  0.39502  0.65914  1.0000
  H   H404      1.0  0.17591  0.47296  0.66892  1.0000
  H   H405      1.0  0.31913  0.27437  0.72321  1.0000
  H   H406      1.0  0.44348  0.42519  0.93294  1.0000
  C   C355      1.0  0.19661  0.44735  0.67622  1.0000
  S   S88       1.0  0.30315  0.24196  0.88136  1.0000
  H   H407      1.0  0.18566  0.38411  0.67362  1.0000
  S   S89       1.0  0.03663  0.29129  0.65019  1.0000
  H   H408      1.0  0.16389  0.34522  0.69431  1.0000
  H   H409      1.0  0.24209  0.41476  0.70096  1.0000
  H   H410      1.0  0.21598  0.25761  0.72769  1.0000
  C   C356      1.0  0.09049  0.26880  0.66266  1.0000
  H   H411      1.0  0.10035  0.28426  0.69911  1.0000
  C   C357      1.0  0.43819  0.44435  0.87771  1.0000
  H   H412      1.0  0.32473  0.46563  0.84609  1.0000
  C   C358      1.0  0.02706  0.28406  0.71459  1.0000
  H   H413      1.0  0.19444  0.40339  0.69593  1.0000
  C   C359      1.0  0.23098  0.26311  0.68314  1.0000
  H   H414      1.0  0.28290  0.25841  0.76565  1.0000
  C   C360      1.0  0.16814  0.47189  0.77089  1.0000
  C   C361      1.0  0.29723  0.47438  0.82443  1.0000
  C   C362      1.0  0.12970  0.36038  0.66405  1.0000
  C   C363      1.0  0.18579  0.38958  0.65833  1.0000
  C   C364      1.0  0.04400  0.27600  0.72236  1.0000
  H   H415      1.0  0.12274  0.31377  0.68369  1.0000
  H   H416      1.0  0.44706  0.43034  0.88080  1.0000
  H   H417      1.0  0.13010  0.39923  0.66347  1.0000
  C   C365      1.0  0.42362  0.46813  0.85317  1.0000
  S   S90       1.0  0.14340  0.24655  0.81320  1.0000
  H   H418      1.0  0.01403  0.27763  0.71971  1.0000
  H   H419      1.0  0.24424  0.43145  0.67842  1.0000
  S   S91       1.0  0.09167  0.47993  0.67301  1.0000
  H   H420      1.0  0.33281  0.25453  0.73659  1.0000
  N   N23       1.0  0.12309  0.37739  0.64984  1.0000
  H   H421      1.0  0.48483  0.25848  0.84362  1.0000
  H   H422      1.0  0.43417  0.47811  0.91754  1.0000
  N   N24       1.0  0.23191  0.27394  0.66297  1.0000
  S   S92       1.0  0.13964  0.48223  0.69759  1.0000
  C   C366      1.0  0.04364  0.39455  0.65691  1.0000
  C   C367      1.0  0.21351  0.28738  0.66037  1.0000
  H   H423      1.0  0.09842  0.24705  0.72530  1.0000
  C   C368      1.0  0.41552  0.48009  0.86695  1.0000
  H   H424      1.0  0.06370  0.25856  0.66368  1.0000
  C   C369      1.0  0.06458  0.41684  0.66024  1.0000
  H   H425      1.0  0.11016  0.34116  0.66113  1.0000
  H   H426      1.0  0.04249  0.47752  0.65522  1.0000
  C   C370      1.0  0.09018  0.30300  0.65087  1.0000
  H   H427      1.0  0.20345  0.23813  0.79384  1.0000
  C   C371      1.0  0.48233  0.26399  0.85763  1.0000
  H   H428      1.0  0.99848  0.44081  0.65292  1.0000
  S   S93       1.0  0.19222  0.23635  0.71502  1.0000
  H   H429      1.0  0.39745  0.24360  0.90824  1.0000
  H   H430      1.0  0.09319  0.37343  0.65338  1.0000
  S   S94       1.0  0.40083  0.25079  0.86541  1.0000
  H   H431      1.0  0.36122  0.24142  0.75663  1.0000
  Fe  Fe49      1.0  0.11577  0.23686  0.81150  1.0000
  H   H432      1.0  0.48903  0.24671  0.90414  1.0000
  H   H433      1.0  0.07363  0.24520  0.72700  1.0000
  S   S95       1.0  0.35687  0.24282  0.79732  1.0000
  C   C372      1.0  0.17331  0.40683  0.65230  1.0000
  N   N25       1.0  0.48593  0.24807  0.87409  1.0000
  H   H434      1.0  0.45688  0.24554  0.85310  1.0000
  H   H435      1.0  0.16441  0.32074  0.65056  1.0000
  H   H436      1.0  0.24876  0.24921  0.65098  1.0000
  S   S96       1.0  0.10341  0.23697  0.84298  1.0000
  H   H437      1.0  0.01669  0.46662  0.65205  1.0000
  H   H438      1.0  0.22294  0.25146  0.65233  1.0000
  C   C373      1.0  0.23516  0.25981  0.64950  1.0000
  H   H439      1.0  0.13268  0.23493  0.76546  1.0000
  H   H440      1.0  0.41168  0.48394  0.89636  1.0000
  C   C374      1.0  0.21163  0.42966  0.64984  1.0000
  Fe  Fe50      1.0  0.11667  0.61186  0.29132  1.0000
  H   H441      1.0  0.21165  0.65557  0.31288  1.0000
  H   H442      1.0  0.34448  0.70663  0.15893  1.0000
  Fe  Fe51      1.0  0.15817  0.61777  0.27352  1.0000
  S   S97       1.0  0.15426  0.64676  0.28238  1.0000
  S   S98       1.0  0.18708  0.60495  0.25784  1.0000
  H   H443      1.0  0.32418  0.59993  0.09428  1.0000
  Fe  Fe52      1.0  0.12566  0.65158  0.27207  1.0000
  S   S99       1.0  0.11873  0.67970  0.25247  1.0000
  S   S100      1.0  0.09788  0.58860  0.29827  1.0000
  S   S101      1.0  0.13065  0.62336  0.26117  1.0000
  S   S102      1.0  0.43351  0.64888  0.14022  1.0000
  Fe  Fe53      1.0  0.13793  0.63352  0.31053  1.0000
  Fe  Fe54      1.0  0.37661  0.66887  0.23731  1.0000
  S   S103      1.0  0.35873  0.69689  0.22640  1.0000
  S   S104      1.0  0.40901  0.66374  0.22729  1.0000
  Fe  Fe55      1.0  0.34084  0.65210  0.26015  1.0000
  S   S105      1.0  0.32003  0.67853  0.25065  1.0000
  H   H444      1.0  0.35833  0.70258  0.31178  1.0000
  Fe  Fe56      1.0  0.33900  0.67824  0.22155  1.0000
  S   S106      1.0  0.32894  0.68308  0.19300  1.0000
  Fe  Fe57      1.0  0.34184  0.69435  0.25665  1.0000
  S   S107      1.0  0.33143  0.72042  0.27130  1.0000
  S   S108      1.0  0.35795  0.65031  0.23032  1.0000
  S   S109      1.0  0.36153  0.66781  0.26837  1.0000
  Fe  Fe58      1.0  0.38798  0.58848  0.01984  1.0000
  S   S110      1.0  0.37060  0.61639  0.00746  1.0000
  S   S111      1.0  0.40089  0.58929  0.04680  1.0000
  S   S112      1.0  0.33112  0.62501  0.27768  1.0000
  H   H445      1.0  0.45304  0.65978  0.99718  1.0000
  H   H446      1.0  0.33187  0.54359  0.04066  1.0000
  Fe  Fe59      1.0  0.34677  0.59914  0.01052  1.0000
  S   S113      1.0  0.31627  0.61239  0.02196  1.0000
  S   S114      1.0  0.36322  0.57162  0.02447  1.0000
  Fe  Fe60      1.0  0.26773  0.60968  0.12784  1.0000
  S   S115      1.0  0.28606  0.62885  0.13467  1.0000
  S   S116      1.0  0.28345  0.58618  0.11063  1.0000
  Fe  Fe61      1.0  0.23095  0.62758  0.15249  1.0000
  S   S117      1.0  0.24629  0.64831  0.16072  1.0000
  S   S118      1.0  0.19951  0.63130  0.16659  1.0000
  Fe  Fe62      1.0  0.26070  0.65237  0.12969  1.0000
  S   S119      1.0  0.26423  0.68194  0.11279  1.0000
  Fe  Fe63      1.0  0.26984  0.62297  0.16505  1.0000
  S   S120      1.0  0.28167  0.61760  0.19288  1.0000
  S   S121      1.0  0.24328  0.63373  0.12061  1.0000
  S   S122      1.0  0.25368  0.60168  0.15891  1.0000
  H   H447      1.0  0.08142  0.71852  0.24967  1.0000
  H   H448      1.0  0.27140  0.67551  0.15227  1.0000
  C   C375      1.0  0.30679  0.60475  0.04644  1.0000
  C   C376      1.0  0.29194  0.61712  0.05624  1.0000
  C   C377      1.0  0.28454  0.61154  0.07596  1.0000
  C   C378      1.0  0.29146  0.59326  0.08571  1.0000
  C   C379      1.0  0.30592  0.58067  0.07574  1.0000
  C   C380      1.0  0.31384  0.58655  0.05628  1.0000
  H   H449      1.0  0.28638  0.63120  0.04868  1.0000
  H   H450      1.0  0.27339  0.62132  0.08356  1.0000
  H   H451      1.0  0.31140  0.56657  0.08331  1.0000
  H   H452      1.0  0.32531  0.57697  0.04893  1.0000
  C   C381      1.0  0.12545  0.61067  0.21021  1.0000
  C   C382      1.0  0.14339  0.54697  0.25216  1.0000
  C   C383      1.0  0.26901  0.69738  0.12702  1.0000
  H   H453      1.0  0.26420  0.61325  0.25255  1.0000
  C   C384      1.0  0.31506  0.66542  0.19330  1.0000
  C   C385      1.0  0.30884  0.66402  0.17630  1.0000
  C   C386      1.0  0.29849  0.64932  0.17621  1.0000
  C   C387      1.0  0.29444  0.63600  0.19307  1.0000
  C   C388      1.0  0.30076  0.63730  0.21007  1.0000
  C   C389      1.0  0.31109  0.65204  0.21019  1.0000
  H   H454      1.0  0.31207  0.67425  0.16317  1.0000
  H   H455      1.0  0.29381  0.64822  0.16303  1.0000
  H   H456      1.0  0.29778  0.62688  0.22311  1.0000
  H   H457      1.0  0.31606  0.65291  0.22333  1.0000
  C   C390      1.0  0.45517  0.61057  0.05617  1.0000
  H   H458      1.0  0.12772  0.54948  0.25864  1.0000
  C   C391      1.0  0.42452  0.59869  0.06868  1.0000
  C   C392      1.0  0.42222  0.59715  0.04986  1.0000
  C   C393      1.0  0.43677  0.60190  0.03427  1.0000
  C   C394      1.0  0.45317  0.60849  0.03743  1.0000
  C   C395      1.0  0.36434  0.61059  0.17088  1.0000
  C   C396      1.0  0.37393  0.60202  0.15435  1.0000
  H   H459      1.0  0.43543  0.60041  0.01981  1.0000
  H   H460      1.0  0.46426  0.61223  0.02523  1.0000
  C   C397      1.0  0.41620  0.66028  0.20291  1.0000
  C   C398      1.0  0.40324  0.66671  0.18972  1.0000
  C   C399      1.0  0.40897  0.66358  0.17038  1.0000
  C   C400      1.0  0.42770  0.65401  0.16411  1.0000
  C   C401      1.0  0.44084  0.64797  0.17718  1.0000
  C   C402      1.0  0.43509  0.65113  0.19655  1.0000
  H   H461      1.0  0.38877  0.67408  0.19445  1.0000
  H   H462      1.0  0.39880  0.66844  0.16028  1.0000
  H   H463      1.0  0.44521  0.64623  0.20671  1.0000
  C   C403      1.0  0.19068  0.61299  0.23261  1.0000
  C   C404      1.0  0.20756  0.60514  0.22106  1.0000
  C   C405      1.0  0.21049  0.61096  0.20082  1.0000
  C   C406      1.0  0.19644  0.62449  0.19200  1.0000
  C   C407      1.0  0.17970  0.63260  0.20360  1.0000
  C   C408      1.0  0.17687  0.62694  0.22388  1.0000
  H   H464      1.0  0.21834  0.59438  0.22771  1.0000
  H   H465      1.0  0.22344  0.60462  0.19204  1.0000
  H   H466      1.0  0.16884  0.64319  0.19689  1.0000
  H   H467      1.0  0.16392  0.63330  0.23267  1.0000
  C   C409      1.0  0.11918  0.70956  0.29491  1.0000
  C   C410      1.0  0.11913  0.69452  0.28493  1.0000
  C   C411      1.0  0.11988  0.69823  0.26478  1.0000
  C   C412      1.0  0.12129  0.71685  0.25453  1.0000
  C   C413      1.0  0.07509  0.59484  0.31259  1.0000
  H   H468      1.0  0.11810  0.68015  0.29293  1.0000
  H   H469      1.0  0.12186  0.71974  0.23894  1.0000
  N   N26       1.0  0.23275  0.66693  0.21626  1.0000
  C   C414      1.0  0.24544  0.66210  0.23131  1.0000
  C   C415      1.0  0.22922  0.64841  0.21214  1.0000
  C   C416      1.0  0.21467  0.67979  0.22315  1.0000
  C   C417      1.0  0.21536  0.69874  0.22610  1.0000
  C   C418      1.0  0.19614  0.67377  0.22793  1.0000
  C   C419      1.0  0.19858  0.71095  0.23314  1.0000
  C   C420      1.0  0.17947  0.68607  0.23502  1.0000
  C   C421      1.0  0.18068  0.70460  0.23762  1.0000
  H   H470      1.0  0.23775  0.65526  0.24541  1.0000
  H   H471      1.0  0.25890  0.65183  0.22698  1.0000
  H   H472      1.0  0.25022  0.67512  0.23396  1.0000
  H   H473      1.0  0.22265  0.63938  0.22547  1.0000
  H   H474      1.0  0.21956  0.65100  0.20102  1.0000
  H   H475      1.0  0.22895  0.70417  0.22331  1.0000
  H   H476      1.0  0.19408  0.65957  0.22648  1.0000
  H   H477      1.0  0.32790  0.51998  0.03920  1.0000
  H   H478      1.0  0.16548  0.68113  0.23875  1.0000
  H   H479      1.0  0.34107  0.71863  0.19056  1.0000
  H   H480      1.0  0.30611  0.65701  0.29564  1.0000
  H   H481      1.0  0.26779  0.72218  0.10432  1.0000
  Fe  Fe64      1.0  0.37337  0.56539  0.99380  1.0000
  H   H482      1.0  0.44326  0.68941  0.18766  1.0000
  H   H483      1.0  0.23415  0.68155  0.18664  1.0000
  H   H484      1.0  0.38355  0.61869  0.07687  1.0000
  C   C422      1.0  0.34939  0.63816  0.11202  1.0000
  C   C423      1.0  0.36193  0.64491  0.12100  1.0000
  H   H485      1.0  0.14449  0.54255  0.23777  1.0000
  C   C424      1.0  0.38184  0.64226  0.11406  1.0000
  H   H486      1.0  0.33410  0.64032  0.11814  1.0000
  H   H487      1.0  0.35612  0.65225  0.13339  1.0000
  H   H488      1.0  0.39160  0.64754  0.12099  1.0000
  H   H489      1.0  0.01750  0.72904  0.11102  1.0000
  C   C425      1.0  0.35160  0.73052  0.27235  1.0000
  H   H490      1.0  0.32172  0.72089  0.15524  1.0000
  H   H491      1.0  0.29169  0.53340  0.04084  1.0000
  H   H492      1.0  0.22051  0.71604  0.06351  1.0000
  H   H493      1.0  0.31716  0.63279  0.07322  1.0000
  H   H494      1.0  0.33288  0.65004  0.07164  1.0000
  C   C426      1.0  0.34402  0.59298  0.15044  1.0000
  C   C427      1.0  0.44076  0.60552  0.07182  1.0000
  C   C428      1.0  0.27316  0.72942  0.13056  1.0000
  C   C429      1.0  0.33058  0.53419  0.03038  1.0000
  C   C430      1.0  0.24781  0.62301  0.29845  1.0000
  C   C431      1.0  0.21691  0.69775  0.15101  1.0000
  C   C432      1.0  0.33760  0.72135  0.15292  1.0000
  H   H495      1.0  0.99635  0.60568  0.31188  1.0000
  H   H496      1.0  0.29853  0.55550  0.04374  1.0000
  C   C433      1.0  0.37565  0.71959  0.16577  1.0000
  H   H497      1.0  0.41945  0.73444  0.14975  1.0000
  H   H498      1.0  0.38004  0.61556  0.21168  1.0000
  H   H499      1.0  0.31731  0.64279  0.09403  1.0000
  H   H500      1.0  0.44214  0.60687  0.08633  1.0000
  C   C434      1.0  0.23445  0.61517  0.26701  1.0000
  H   H501      1.0  0.33212  0.48856  0.98719  1.0000
  C   C435      1.0  0.22776  0.62213  0.30041  1.0000
  C   C436      1.0  0.32694  0.63749  0.08117  1.0000
  C   C437      1.0  0.31214  0.53052  0.00553  1.0000
  S   S123      1.0  0.47581  0.61958  0.05929  1.0000
  H   H502      1.0  0.35923  0.62418  0.05736  1.0000
  H   H503      1.0  0.37147  0.58661  0.13198  1.0000
  C   C438      1.0  0.40949  0.64580  0.01898  1.0000
  C   C439      1.0  0.19321  0.71590  0.18075  1.0000
  H   H504      1.0  0.47467  0.56525  0.10538  1.0000
  C   C440      1.0  0.19164  0.69707  0.17910  1.0000
  H   H505      1.0  0.33745  0.50769  0.00958  1.0000
  S   S124      1.0  0.37480  0.53555  0.98563  1.0000
  H   H506      1.0  0.34504  0.53212  0.02088  1.0000
  H   H507      1.0  0.41571  0.70498  0.20801  1.0000
  C   C441      1.0  0.37682  0.62602  0.08902  1.0000
  C   C442      1.0  0.44155  0.65788  0.02707  1.0000
  H   H508      1.0  0.25373  0.62565  0.31035  1.0000
  C   C443      1.0  0.38925  0.63278  0.09816  1.0000
  C   C444      1.0  0.30757  0.60838  0.30849  1.0000
  C   C445      1.0  0.48809  0.55497  0.10846  1.0000
  H   H509      1.0  0.18844  0.73047  0.06019  1.0000
  H   H510      1.0  0.18113  0.68942  0.18934  1.0000
  C   C446      1.0  0.31977  0.56153  0.00734  1.0000
  C   C447      1.0  0.42447  0.65043  0.00329  1.0000
  C   C448      1.0  0.20337  0.68806  0.16421  1.0000
  H   H511      1.0  0.42751  0.65414  0.05688  1.0000
  C   C449      1.0  0.39585  0.61762  0.17539  1.0000
  C   C450      1.0  0.36652  0.64038  0.18089  1.0000
  H   H512      1.0  0.39942  0.62543  0.16030  1.0000
  H   H513      1.0  0.35081  0.64301  0.18691  1.0000
  H   H514      1.0  0.36843  0.64798  0.16561  1.0000
  H   H515      1.0  0.33571  0.61691  0.18851  1.0000
  H   H516      1.0  0.11861  0.62248  0.20041  1.0000
  H   H517      1.0  0.37196  0.70410  0.26984  1.0000
  H   H518      1.0  0.22496  0.72687  0.01568  1.0000
  H   H519      1.0  0.30834  0.56951  0.99878  1.0000
  C   C451      1.0  0.42487  0.71431  0.19814  1.0000
  C   C452      1.0  0.20666  0.72634  0.16730  1.0000
  H   H520      1.0  0.40050  0.71843  0.27109  1.0000
  C   C453      1.0  0.30251  0.64340  0.30387  1.0000
  H   H521      1.0  0.37023  0.73113  0.31482  1.0000
  S   S125      1.0  0.14482  0.60376  0.30281  1.0000
  H   H522      1.0  0.16770  0.71396  0.24332  1.0000
  H   H523      1.0  0.22613  0.69066  0.13948  1.0000
  C   C454      1.0  0.32484  0.51290  0.00257  1.0000
  H   H524      1.0  0.38552  0.72445  0.21350  1.0000
  H   H525      1.0  0.21091  0.71359  0.03584  1.0000
  H   H526      1.0  0.18016  0.54680  0.25494  1.0000
  C   C455      1.0  0.44078  0.70506  0.18647  1.0000
  C   C456      1.0  0.21861  0.71656  0.15251  1.0000
  C   C457      1.0  0.27585  0.72246  0.14979  1.0000
  H   H527      1.0  0.17175  0.69354  0.31244  1.0000
  C   C458      1.0  0.12164  0.73183  0.26448  1.0000
  H   H528      1.0  0.43952  0.61902  0.98692  1.0000
  C   C459      1.0  0.17382  0.55868  0.24419  1.0000
  C   C460      1.0  0.29677  0.53626  0.99449  1.0000
  N   N27       1.0  0.37453  0.61947  0.18220  1.0000
  C   C461      1.0  0.27172  0.69050  0.14623  1.0000
  H   H529      1.0  0.24294  0.63926  0.20640  1.0000
  C   C462      1.0  0.39190  0.73223  0.22210  1.0000
  H   H530      1.0  0.24888  0.68960  0.20023  1.0000
  C   C463      1.0  0.34407  0.61042  0.17629  1.0000
  H   H531      1.0  0.40307  0.62405  0.18456  1.0000
  C   C464      1.0  0.14535  0.60415  0.20618  1.0000
  H   H532      1.0  0.33354  0.55898  0.99695  1.0000
  H   H533      1.0  0.40289  0.60219  0.17611  1.0000
  C   C465      1.0  0.11442  0.60220  0.22698  1.0000
  H   H534      1.0  0.37368  0.64758  0.18932  1.0000
  H   H535      1.0  0.35607  0.61323  0.21010  1.0000
  C   C466      1.0  0.37006  0.71916  0.27121  1.0000
  C   C467      1.0  0.35640  0.62871  0.09559  1.0000
  C   C468      1.0  0.24346  0.67675  0.19810  1.0000
  H   H536      1.0  0.24672  0.71569  0.08119  1.0000
  H   H537      1.0  0.31520  0.59487  0.30403  1.0000
  H   H538      1.0  0.27733  0.69763  0.17245  1.0000
  S   S126      1.0  0.47039  0.60933  0.11652  1.0000
  C   C469      1.0  0.26073  0.62002  0.28134  1.0000
  C   C470      1.0  0.27512  0.70302  0.15762  1.0000
  H   H539      1.0  0.32887  0.66558  0.31597  1.0000
  C   C471      1.0  0.25408  0.61597  0.26567  1.0000
  H   H540      1.0  0.36316  0.60021  0.07163  1.0000
  H   H541      1.0  0.34560  0.59388  0.10518  1.0000
  S   S127      1.0  0.10878  0.64081  0.30111  1.0000
  H   H542      1.0  0.17726  0.55348  0.22995  1.0000
  H   H543      1.0  0.31867  0.60156  0.17087  1.0000
  H   H544      1.0  0.25660  0.66697  0.19214  1.0000
  C   C472      1.0  0.37147  0.61020  0.20293  1.0000
  N   N28       1.0  0.34280  0.62153  0.08650  1.0000
  C   C473      1.0  0.33418  0.60605  0.10060  1.0000
  H   H545      1.0  0.32543  0.61139  0.11382  1.0000
  C   C474      1.0  0.33413  0.60171  0.16622  1.0000
  H   H546      1.0  0.33625  0.58587  0.14302  1.0000
  S   S128      1.0  0.39995  0.57946  0.99050  1.0000
  C   C475      1.0  0.26980  0.71684  0.11918  1.0000
  H   H547      1.0  0.18795  0.63584  0.30767  1.0000
  H   H548      1.0  0.15395  0.61091  0.19318  1.0000
  H   H549      1.0  0.20644  0.61738  0.28405  1.0000
  H   H550      1.0  0.38923  0.60176  0.14889  1.0000
  H   H551      1.0  0.09898  0.60752  0.23029  1.0000
  C   C476      1.0  0.21063  0.72741  0.02543  1.0000
  C   C477      1.0  0.36383  0.59330  0.14438  1.0000
  C   C478      1.0  0.35215  0.61337  0.06857  1.0000
  H   H552      1.0  0.18165  0.57100  0.24316  1.0000
  H   H553      1.0  0.16994  0.58535  0.21511  1.0000
  H   H554      1.0  0.27606  0.62048  0.28042  1.0000
  H   H555      1.0  0.15034  0.53445  0.26188  1.0000
  H   H556      1.0  0.28457  0.55595  0.02560  1.0000
  H   H557      1.0  0.18363  0.72197  0.19262  1.0000
  N   N29       1.0  0.15254  0.56437  0.25013  1.0000
  H   H558      1.0  0.11824  0.70667  0.31054  1.0000
  C   C479      1.0  0.14355  0.58024  0.23623  1.0000
  C   C480      1.0  0.15439  0.58925  0.21898  1.0000
  C   C481      1.0  0.44067  0.65644  0.00794  1.0000
  S   S129      1.0  0.47522  0.65490  0.09737  1.0000
  C   C482      1.0  0.22140  0.61832  0.28402  1.0000
  H   H559      1.0  0.22928  0.61172  0.25494  1.0000
  H   H560      1.0  0.15643  0.55914  0.28022  1.0000
  H   H561      1.0  0.34142  0.60875  0.06172  1.0000
  C   C483      1.0  0.12326  0.58718  0.23981  1.0000
  H   H562      1.0  0.19210  0.60980  0.31529  1.0000
  H   H563      1.0  0.37587  0.59419  0.20445  1.0000
  H   H564      1.0  0.28688  0.54973  0.99550  1.0000
  H   H565      1.0  0.13380  0.57354  0.27578  1.0000
  Fe  Fe65      1.0  0.46449  0.63820  0.12663  1.0000
  C   C484      1.0  0.31253  0.62593  0.29803  1.0000
  H   H566      1.0  0.45530  0.64055  0.17248  1.0000
  H   H567      1.0  0.11412  0.58139  0.25284  1.0000
  H   H568      1.0  0.15561  0.58379  0.26833  1.0000
  C   C485      1.0  0.14943  0.57043  0.26942  1.0000
  C   C486      1.0  0.06545  0.61400  0.31059  1.0000
  H   H569      1.0  0.41362  0.59462  0.08094  1.0000
  H   H570      1.0  0.20199  0.67351  0.16289  1.0000
  H   H571      1.0  0.40478  0.63067  0.09286  1.0000
  H   H572      1.0  0.32167  0.57150  0.01676  1.0000
  N   N30       1.0  0.31482  0.54297  0.01885  1.0000
  H   H573      1.0  0.40523  0.70574  0.16736  1.0000
  C   C487      1.0  0.29662  0.54708  0.03281  1.0000
  H   H574      1.0  0.48394  0.54032  0.11304  1.0000
  H   H575      1.0  0.15428  0.73401  0.99430  1.0000
  H   H576      1.0  0.39716  0.64031  0.01676  1.0000
  C   C488      1.0  0.38622  0.72725  0.27198  1.0000
  C   C489      1.0  0.41044  0.64748  0.03800  1.0000
  H   H577      1.0  0.37008  0.70664  0.17348  1.0000
  H   H578      1.0  0.48251  0.56004  0.07236  1.0000
  C   C490      1.0  0.42646  0.65347  0.04204  1.0000
  H   H579      1.0  0.39982  0.72138  0.23258  1.0000
  C   C491      1.0  0.32199  0.50167  0.98965  1.0000
  C   C492      1.0  0.45367  0.71576  0.17354  1.0000
  H   H580      1.0  0.22933  0.72344  0.14186  1.0000
  C   C493      1.0  0.12036  0.72824  0.28470  1.0000
  H   H581      1.0  0.45428  0.66190  0.03046  1.0000
  H   H582      1.0  0.34286  0.72383  0.13698  1.0000
  C   C494      1.0  0.22779  0.72850  0.06015  1.0000
  C   C495      1.0  0.39577  0.71892  0.16240  1.0000
  H   H583      1.0  0.39901  0.64350  0.04975  1.0000
  H   H584      1.0  0.33823  0.68618  0.30151  1.0000
  C   C496      1.0  0.24271  0.72820  0.07044  1.0000
  H   H585      1.0  0.46609  0.70844  0.16470  1.0000
  H   H586      1.0  0.30577  0.70691  0.30741  1.0000
  H   H587      1.0  0.41370  0.62024  0.99277  1.0000
  C   C497      1.0  0.33417  0.73282  0.18337  1.0000
  H   H588      1.0  0.19943  0.72535  0.23540  1.0000
  H   H589      1.0  0.01870  0.73325  0.14522  1.0000
  H   H590      1.0  0.31825  0.73239  0.18621  1.0000
  H   H591      1.0  0.07206  0.62514  0.30036  1.0000
  H   H592      1.0  0.15108  0.66951  0.31202  1.0000
  Fe  Fe66      1.0  0.48196  0.62572  0.08776  1.0000
  H   H593      1.0  0.06598  0.72861  0.22026  1.0000
  H   H594      1.0  0.39202  0.65067  0.98627  1.0000
  H   H595      1.0  0.19943  0.72766  0.01637  1.0000
  N   N31       1.0  0.42337  0.64796  0.98337  1.0000
  C   C498      1.0  0.07366  0.73319  0.24653  1.0000
  C   C499      1.0  0.42549  0.62701  0.98273  1.0000
  H   H596      1.0  0.11779  0.59709  0.57300  1.0000
  Fe  Fe67      1.0  0.00560  0.57935  0.41698  1.0000
  H   H597      1.0  0.30493  0.72064  0.35016  1.0000
  S   S130      1.0  0.02663  0.57406  0.43891  1.0000
  H   H598      1.0  0.09382  0.66644  0.60967  1.0000
  S   S131      1.0  0.01426  0.61088  0.34678  1.0000
  S   S132      1.0  0.01445  0.56435  0.39062  1.0000
  S   S133      1.0  0.14122  0.63628  0.34053  1.0000
  Fe  Fe68      1.0  0.10964  0.59321  0.53134  1.0000
  S   S134      1.0  0.08147  0.61118  0.54248  1.0000
  S   S135      1.0  0.12474  0.56598  0.54843  1.0000
  Fe  Fe69      1.0  0.11624  0.62198  0.49358  1.0000
  S   S136      1.0  0.08901  0.64197  0.50298  1.0000
  S   S137      1.0  0.12865  0.63129  0.46201  1.0000
  Fe  Fe70      1.0  0.09822  0.63611  0.53231  1.0000
  S   S138      1.0  0.09458  0.65991  0.55078  1.0000
  Fe  Fe71      1.0  0.07524  0.61520  0.51170  1.0000
  S   S139      1.0  0.04646  0.61831  0.50062  1.0000
  S   S140      1.0  0.12662  0.61802  0.52229  1.0000
  S   S141      1.0  0.10224  0.59531  0.50144  1.0000
  Fe  Fe72      1.0  0.21406  0.68212  0.36094  1.0000
  S   S142      1.0  0.21628  0.65114  0.37577  1.0000
  S   S143      1.0  0.19274  0.69783  0.34163  1.0000
  Fe  Fe73      1.0  0.24947  0.68825  0.37438  1.0000
  S   S144      1.0  0.25523  0.65793  0.39017  1.0000
  S   S145      1.0  0.26969  0.70946  0.37076  1.0000
  Fe  Fe74      1.0  0.24811  0.64969  0.36391  1.0000
  S   S146      1.0  0.26373  0.62376  0.35059  1.0000
  Fe  Fe75      1.0  0.22296  0.66227  0.40070  1.0000
  S   S147      1.0  0.21241  0.65408  0.43283  1.0000
  S   S148      1.0  0.24527  0.67967  0.34712  1.0000
  S   S149      1.0  0.21781  0.69351  0.38675  1.0000
  S   S150      1.0  0.16395  0.68324  0.62593  1.0000
  S   S151      1.0  0.15351  0.70332  0.57630  1.0000
  Fe  Fe76      1.0  0.15374  0.71024  0.60638  1.0000
  C   C500      1.0  0.11513  0.63124  0.61086  1.0000
  Fe  Fe77      1.0  0.30159  0.73013  0.61124  1.0000
  H   H599      1.0  0.29217  0.70546  0.33169  1.0000
  H   H600      1.0  0.12632  0.68861  0.44937  1.0000
  H   H601      1.0  0.14359  0.64689  0.62122  1.0000
  C   C501      1.0  0.25306  0.69039  0.62638  1.0000
  C   C502      1.0  0.99935  0.58577  0.49848  1.0000
  S   S152      1.0  0.13142  0.72305  0.62982  1.0000
  H   H602      1.0  0.13017  0.72954  0.33538  1.0000
  C   C503      1.0  0.10283  0.60598  0.60001  1.0000
  N   N32       1.0  0.21463  0.62445  0.31906  1.0000
  S   S153      1.0  0.08763  0.51630  0.62649  1.0000
  H   H603      1.0  0.14129  0.61954  0.56742  1.0000
  C   C504      1.0  0.19771  0.64968  0.57091  1.0000
  C   C505      1.0  0.31839  0.67956  0.34917  1.0000
  N   N33       1.0  0.21816  0.67324  0.57610  1.0000
  C   C506      1.0  0.26804  0.70036  0.61607  1.0000
  H   H604      1.0  0.12671  0.52586  0.63237  1.0000
  H   H605      1.0  0.23599  0.60871  0.33676  1.0000
  C   C507      1.0  0.23000  0.71351  0.60926  1.0000
  C   C508      1.0  0.31917  0.72246  0.34216  1.0000
  H   H606      1.0  0.35715  0.72508  0.57261  1.0000
  H   H607      1.0  0.15001  0.71608  0.34593  1.0000
  C   C509      1.0  0.21534  0.64328  0.32456  1.0000
  C   C510      1.0  0.12960  0.63128  0.59389  1.0000
  S   S154      1.0  0.28229  0.73001  0.59004  1.0000
  H   H608      1.0  0.07252  0.48987  0.60888  1.0000
  C   C511      1.0  0.11402  0.55243  0.57009  1.0000
  C   C512      1.0  0.09523  0.55854  0.57947  1.0000
  C   C513      1.0  0.08732  0.54731  0.59673  1.0000
  C   C514      1.0  0.09808  0.52987  0.60470  1.0000
  C   C515      1.0  0.11691  0.52383  0.59542  1.0000
  C   C516      1.0  0.12484  0.53512  0.57824  1.0000
  H   H609      1.0  0.08675  0.57182  0.57332  1.0000
  H   H610      1.0  0.07273  0.55208  0.60381  1.0000
  H   H611      1.0  0.12533  0.51040  0.60133  1.0000
  H   H612      1.0  0.13938  0.53029  0.57104  1.0000
  C   C517      1.0  0.11164  0.67073  0.55844  1.0000
  C   C518      1.0  0.10461  0.68427  0.57114  1.0000
  C   C519      1.0  0.11733  0.69374  0.57732  1.0000
  C   C520      1.0  0.13730  0.69006  0.57057  1.0000
  C   C521      1.0  0.14440  0.67653  0.55780  1.0000
  C   C522      1.0  0.13169  0.66670  0.55198  1.0000
  H   H613      1.0  0.08913  0.68769  0.57603  1.0000
  H   H614      1.0  0.11158  0.70439  0.58681  1.0000
  H   H615      1.0  0.15980  0.67370  0.55234  1.0000
  H   H616      1.0  0.13736  0.65618  0.54238  1.0000
  C   C523      1.0  0.15234  0.63667  0.45417  1.0000
  C   C524      1.0  0.15840  0.64284  0.43428  1.0000
  C   C525      1.0  0.17698  0.64780  0.42750  1.0000
  C   C526      1.0  0.18953  0.64675  0.44062  1.0000
  C   C527      1.0  0.18351  0.64048  0.46050  1.0000
  C   C528      1.0  0.16500  0.63531  0.46726  1.0000
  H   H617      1.0  0.14869  0.64384  0.42408  1.0000
  H   H618      1.0  0.18151  0.65262  0.41217  1.0000
  H   H619      1.0  0.19323  0.63959  0.47066  1.0000
  H   H620      1.0  0.16062  0.63021  0.48254  1.0000
  S   S155      1.0  0.33201  0.71412  0.61135  1.0000
  H   H621      1.0  0.18578  0.69405  0.43011  1.0000
  C   C529      1.0  0.28285  0.62537  0.33073  1.0000
  H   H622      1.0  0.28911  0.59439  0.33256  1.0000
  C   C530      1.0  0.20597  0.65788  0.58339  1.0000
  H   H623      1.0  0.21544  0.71886  0.60664  1.0000
  Fe  Fe78      1.0  0.00173  0.59287  0.37447  1.0000
  H   H624      1.0  0.17922  0.71935  0.39715  1.0000
  H   H625      1.0  0.00732  0.59798  0.52049  1.0000
  H   H626      1.0  0.20370  0.69015  0.59835  1.0000
  C   C531      1.0  0.17646  0.68238  0.34187  1.0000
  C   C532      1.0  0.17193  0.66894  0.35851  1.0000
  C   C533      1.0  0.16042  0.65528  0.35819  1.0000
  C   C534      1.0  0.15334  0.65511  0.34126  1.0000
  C   C535      1.0  0.26197  0.72689  0.38609  1.0000
  H   H627      1.0  0.18666  0.63202  0.62648  1.0000
  H   H628      1.0  0.17738  0.66896  0.37163  1.0000
  H   H629      1.0  0.15741  0.64452  0.37093  1.0000
  C   C536      1.0  0.10535  0.55898  0.64313  1.0000
  H   H630      1.0  0.30742  0.68764  0.35942  1.0000
  C   C537      1.0  0.03294  0.58746  0.45474  1.0000
  C   C538      1.0  0.04690  0.57827  0.46654  1.0000
  C   C539      1.0  0.05199  0.58791  0.47985  1.0000
  C   C540      1.0  0.04276  0.60676  0.48194  1.0000
  C   C541      1.0  0.02903  0.61611  0.46990  1.0000
  C   C542      1.0  0.02440  0.60666  0.45614  1.0000
  H   H631      1.0  0.05366  0.56344  0.46561  1.0000
  H   H632      1.0  0.06243  0.58043  0.48911  1.0000
  H   H633      1.0  0.02176  0.63067  0.47140  1.0000
  H   H634      1.0  0.01408  0.61415  0.44684  1.0000
  C   C543      1.0  0.06620  0.58047  0.32573  1.0000
  C   C544      1.0  0.03800  0.60437  0.33451  1.0000
  C   C545      1.0  0.04779  0.58526  0.33689  1.0000
  C   C546      1.0  0.12913  0.65619  0.62092  1.0000
  Fe  Fe79      1.0  0.18496  0.69923  0.63288  1.0000
  C   C547      1.0  0.13980  0.68993  0.45335  1.0000
  H   H635      1.0  0.08182  0.65073  0.62912  1.0000
  H   H636      1.0  0.04101  0.57411  0.34694  1.0000
  H   H637      1.0  0.12733  0.66588  0.63187  1.0000
  H   H638      1.0  0.21043  0.68285  0.54748  1.0000
  C   C548      1.0  0.18232  0.62881  0.59826  1.0000
  S   S156      1.0  0.29153  0.72151  0.64317  1.0000
  H   H639      1.0  0.14245  0.57333  0.63415  1.0000
  C   C549      1.0  0.20738  0.69155  0.58229  1.0000
  C   C550      1.0  0.23396  0.69706  0.62310  1.0000
  C   C551      1.0  0.22347  0.67697  0.55458  1.0000
  S   S157      1.0  0.21543  0.68424  0.63593  1.0000
  H   H640      1.0  0.23979  0.72923  0.64661  1.0000
  H   H641      1.0  0.19346  0.69607  0.57654  1.0000
  H   H642      1.0  0.12674  0.62247  0.64577  1.0000
  H   H643      1.0  0.19088  0.69122  0.46380  1.0000
  N   N34       1.0  0.12630  0.68500  0.48962  1.0000
  C   C552      1.0  0.10704  0.68688  0.48371  1.0000
  C   C553      1.0  0.13096  0.66512  0.50023  1.0000
  C   C554      1.0  0.12431  0.69889  0.50323  1.0000
  C   C555      1.0  0.14214  0.68844  0.47302  1.0000
  C   C556      1.0  0.16100  0.68915  0.47634  1.0000
  H   H644      1.0  0.12220  0.71411  0.49551  1.0000
  H   H645      1.0  0.17344  0.61760  0.60391  1.0000
  C   C557      1.0  0.17355  0.69314  0.44188  1.0000
  H   H646      1.0  0.02792  0.50079  0.60800  1.0000
  H   H647      1.0  0.10682  0.67550  0.47506  1.0000
  H   H648      1.0  0.09532  0.68491  0.49656  1.0000
  H   H649      1.0  0.10287  0.70139  0.47511  1.0000
  H   H650      1.0  0.13190  0.65425  0.49069  1.0000
  H   H651      1.0  0.11963  0.66203  0.51311  1.0000
  H   H652      1.0  0.14507  0.66254  0.50551  1.0000
  Fe  Fe80      1.0  0.32257  0.70748  0.64372  1.0000
  H   H653      1.0  0.11170  0.69726  0.51522  1.0000
  H   H654      1.0  0.13710  0.69664  0.51065  1.0000
  C   C558      1.0  0.16857  0.68291  0.32523  1.0000
  S   S158      1.0  0.17656  0.72566  0.61163  1.0000
  C   C559      1.0  0.15531  0.69236  0.43808  1.0000
  H   H655      1.0  0.21590  0.70362  0.57715  1.0000
  H   H656      1.0  0.33189  0.67504  0.35569  1.0000
  H   H657      1.0  0.07289  0.63489  0.42558  1.0000
  C   C560      1.0  0.07408  0.61959  0.43309  1.0000
  H   H658      1.0  0.08990  0.61790  0.62558  1.0000
  N   N35       1.0  0.11324  0.64452  0.62498  1.0000
  H   H659      1.0  0.23325  0.68802  0.54966  1.0000
  C   C561      1.0  0.24493  0.72664  0.39983  1.0000
  H   H660      1.0  0.01110  0.57353  0.49926  1.0000
  H   H661      1.0  0.07663  0.61921  0.44814  1.0000
  C   C562      1.0  0.03399  0.49779  0.62176  1.0000
  C   C563      1.0  0.23655  0.66795  0.58422  1.0000
  H   H662      1.0  0.06415  0.48545  0.64231  1.0000
  C   C564      1.0  0.11722  0.60633  0.58361  1.0000
  C   C565      1.0  0.28765  0.64311  0.32031  1.0000
  C   C566      1.0  0.30362  0.69742  0.32183  1.0000
  N   N36       1.0  0.32216  0.69125  0.32954  1.0000
  H   H663      1.0  0.23412  0.66717  0.60025  1.0000
  H   H664      1.0  0.09217  0.59650  0.60194  1.0000
  H   H665      1.0  0.16287  0.71689  0.37118  1.0000
  N   N37       1.0  0.08977  0.60688  0.42225  1.0000
  C   C567      1.0  0.09032  0.58663  0.43258  1.0000
  C   C568      1.0  0.10849  0.61280  0.42285  1.0000
  C   C569      1.0  0.08584  0.60814  0.40230  1.0000
  C   C570      1.0  0.06856  0.60275  0.39939  1.0000
  C   C571      1.0  0.09878  0.61460  0.38533  1.0000
  C   C572      1.0  0.06458  0.60365  0.38072  1.0000
  C   C573      1.0  0.09462  0.61542  0.36675  1.0000
  C   C574      1.0  0.07761  0.60993  0.36445  1.0000
  H   H666      1.0  0.07631  0.58142  0.43401  1.0000
  H   H667      1.0  0.09334  0.58509  0.44764  1.0000
  H   H668      1.0  0.10174  0.57655  0.42472  1.0000
  H   H669      1.0  0.10885  0.62819  0.41604  1.0000
  H   H670      1.0  0.11098  0.61162  0.43807  1.0000
  H   H671      1.0  0.12108  0.60347  0.41548  1.0000
  H   H672      1.0  0.05797  0.59769  0.41153  1.0000
  H   H673      1.0  0.11226  0.61908  0.38590  1.0000
  H   H674      1.0  0.05133  0.59941  0.37881  1.0000
  H   H675      1.0  0.10471  0.62032  0.35398  1.0000
  H   H676      1.0  0.07455  0.61053  0.35000  1.0000
  H   H677      1.0  0.24632  0.67892  0.57841  1.0000
  C   C575      1.0  0.04687  0.61869  0.32134  1.0000
  H   H678      1.0  0.31263  0.66624  0.34878  1.0000
  H   H679      1.0  0.22983  0.64403  0.32773  1.0000
  H   H680      1.0  0.27976  0.65649  0.32475  1.0000
  H   H681      1.0  0.25629  0.67761  0.63698  1.0000
  H   H682      1.0  0.09656  0.55099  0.63712  1.0000
  H   H683      1.0  0.21151  0.60984  0.34885  1.0000
  H   H684      1.0  0.12931  0.66598  0.60671  1.0000
  H   H685      1.0  0.23124  0.66357  0.54890  1.0000
  H   H686      1.0  0.07358  0.56562  0.32731  1.0000
  C   C576      1.0  0.13888  0.72931  0.34686  1.0000
  C   C577      1.0  0.13054  0.61895  0.58056  1.0000
  H   H687      1.0  0.19989  0.65416  0.55535  1.0000
  H   H688      1.0  0.15340  0.69274  0.42327  1.0000
  H   H689      1.0  0.05970  0.61518  0.43464  1.0000
  H   H690      1.0  0.23740  0.71444  0.40275  1.0000
  H   H691      1.0  0.24461  0.65366  0.58086  1.0000
  C   C578      1.0  0.26401  0.71673  0.60213  1.0000
  H   H692      1.0  0.02152  0.49884  0.63391  1.0000
  H   H693      1.0  0.03936  0.63348  0.31940  1.0000
  C   C579      1.0  0.33018  0.70855  0.33077  1.0000
  H   H694      1.0  0.18007  0.62922  0.56851  1.0000
  H   H695      1.0  0.28278  0.69524  0.61874  1.0000
  C   C580      1.0  0.10172  0.61825  0.61345  1.0000
  C   C581      1.0  0.11329  0.63340  0.64494  1.0000
  H   H696      1.0  0.20483  0.64587  0.33799  1.0000
  C   C582      1.0  0.33529  0.67840  0.31668  1.0000
  C   C583      1.0  0.22100  0.60862  0.33453  1.0000
  C   C584      1.0  0.35597  0.72860  0.32255  1.0000
  H   H697      1.0  0.11173  0.56908  0.63063  1.0000
  C   C585      1.0  0.18613  0.63532  0.57833  1.0000
  C   C586      1.0  0.24501  0.72313  0.59854  1.0000
  H   H698      1.0  0.16415  0.68722  0.49089  1.0000
  C   C587      1.0  0.15703  0.66920  0.32492  1.0000
  C   C588      1.0  0.18984  0.63682  0.61091  1.0000
  C   C589      1.0  0.20141  0.65118  0.60364  1.0000
  H   H699      1.0  0.20650  0.65724  0.61411  1.0000
  H   H700      1.0  0.23245  0.72373  0.34507  1.0000
  C   C590      1.0  0.17641  0.69148  0.46096  1.0000
  H   H701      1.0  0.13997  0.64112  0.59023  1.0000
  H   H702      1.0  0.18460  0.62551  0.33281  1.0000
  Fe  Fe81      1.0  0.10376  0.48836  0.64137  1.0000
  C   C591      1.0  0.19399  0.62387  0.31853  1.0000
  C   C592      1.0  0.09466  0.65821  0.62458  1.0000
  S   S159      1.0  0.33161  0.73391  0.64909  1.0000
  H   H703      1.0  0.04227  0.50960  0.62150  1.0000
  H   H704      1.0  0.22084  0.59419  0.33092  1.0000
  C   C593      1.0  0.29282  0.60811  0.32468  1.0000
  C   C594      1.0  0.99725  0.59955  0.51044  1.0000
  H   H705      1.0  0.09300  0.66897  0.63448  1.0000
  C   C595      1.0  0.16450  0.73122  0.37266  1.0000
  H   H706      1.0  0.14612  0.52517  0.64538  1.0000
  H   H707      1.0  0.21859  0.72968  0.31895  1.0000
  H   H708      1.0  0.14074  0.54475  0.62599  1.0000
  C   C596      1.0  0.13414  0.53495  0.63861  1.0000
  C   C597      1.0  0.17417  0.73241  0.38759  1.0000
  H   H709      1.0  0.12910  0.72749  0.36112  1.0000
  S   S160      1.0  0.99456  0.60823  0.40032  1.0000
  H   H710      1.0  0.29759  0.68479  0.31994  1.0000
  C   C598      1.0  0.34889  0.71213  0.32095  1.0000
  H   H711      1.0  0.34936  0.67258  0.32194  1.0000
  H   H712      1.0  0.16064  0.59138  0.64815  1.0000
  S   S161      1.0  0.12477  0.67566  0.66914  1.0000
  H   H713      1.0  0.14537  0.52471  0.78483  1.0000
  H   H714      1.0  0.28121  0.51258  0.80814  1.0000
  C   C599      1.0  0.29591  0.51423  0.80141  1.0000
  H   H715      1.0  0.31866  0.54303  0.76331  1.0000
  H   H716      1.0  0.30325  0.62580  0.71191  1.0000
  S   S162      1.0  0.16504  0.70954  0.65865  1.0000
  Fe  Fe82      1.0  0.29485  0.60723  0.80412  1.0000
  S   S163      1.0  0.32508  0.61334  0.79303  1.0000
  S   S164      1.0  0.28023  0.61657  0.83241  1.0000
  Fe  Fe83      1.0  0.29232  0.59335  0.76757  1.0000
  S   S165      1.0  0.32232  0.59857  0.75345  1.0000
  S   S166      1.0  0.27491  0.58468  0.74867  1.0000
  Fe  Fe84      1.0  0.33007  0.58475  0.78284  1.0000
  S   S167      1.0  0.35836  0.56421  0.78413  1.0000
  Fe  Fe85      1.0  0.31424  0.62655  0.76511  1.0000
  S   S168      1.0  0.31826  0.65720  0.75105  1.0000
  S   S169      1.0  0.30055  0.57747  0.79607  1.0000
  S   S170      1.0  0.28355  0.62239  0.77698  1.0000
  Fe  Fe86      1.0  0.16867  0.59223  0.73558  1.0000
  S   S171      1.0  0.13700  0.59829  0.74757  1.0000
  S   S172      1.0  0.18230  0.60596  0.70618  1.0000
  Fe  Fe87      1.0  0.17736  0.56444  0.77195  1.0000
  S   S173      1.0  0.14623  0.56808  0.78660  1.0000
  S   S174      1.0  0.20087  0.54657  0.78765  1.0000
  Fe  Fe88      1.0  0.14028  0.56588  0.75702  1.0000
  S   S175      1.0  0.11925  0.54821  0.75106  1.0000
  Fe  Fe89      1.0  0.14650  0.59996  0.77563  1.0000
  S   S176      1.0  0.13634  0.62751  0.78930  1.0000
  S   S177      1.0  0.17154  0.56003  0.74342  1.0000
  S   S178      1.0  0.17805  0.59610  0.76256  1.0000
  Fe  Fe90      1.0  0.15180  0.67495  0.87693  1.0000
  S   S179      1.0  0.16930  0.69271  0.85299  1.0000
  S   S180      1.0  0.14512  0.64683  0.87090  1.0000
  Fe  Fe91      1.0  0.15643  0.69902  0.90788  1.0000
  H   H717      1.0  0.16951  0.72415  0.70559  1.0000
  H   H718      1.0  0.33403  0.63341  0.72113  1.0000
  H   H719      1.0  0.32969  0.61807  0.93827  1.0000
  Fe  Fe92      1.0  0.18912  0.69000  0.87442  1.0000
  S   S181      1.0  0.22054  0.67806  0.86670  1.0000
  C   C600      1.0  0.40431  0.65786  0.97795  1.0000
  S   S182      1.0  0.17256  0.67119  0.89802  1.0000
  H   H720      1.0  0.43695  0.65457  0.95340  1.0000
  S   S183      1.0  0.32851  0.71127  0.83369  1.0000
  C   C601      1.0  0.22944  0.62407  0.68245  1.0000
  Fe  Fe93      1.0  0.33650  0.70649  0.88723  1.0000
  S   S184      1.0  0.31453  0.69232  0.87919  1.0000
  S   S185      1.0  0.33734  0.70091  0.91941  1.0000
  Fe  Fe94      1.0  0.33799  0.68485  0.85464  1.0000
  S   S186      1.0  0.34676  0.65446  0.84865  1.0000
  H   H721      1.0  0.14684  0.70845  0.97921  1.0000
  H   H722      1.0  0.37481  0.72805  0.65248  1.0000
  S   S187      1.0  0.36058  0.69743  0.86365  1.0000
  C   C602      1.0  0.15334  0.72308  0.94979  1.0000
  S   S188      1.0  0.37571  0.48569  0.84259  1.0000
  S   S189      1.0  0.39217  0.62470  0.95082  1.0000
  H   H723      1.0  0.32543  0.63833  0.88562  1.0000
  C   C603      1.0  0.35266  0.67978  0.92813  1.0000
  C   C604      1.0  0.36892  0.67178  0.91597  1.0000
  C   C605      1.0  0.38107  0.65501  0.92317  1.0000
  C   C606      1.0  0.37679  0.64588  0.94245  1.0000
  C   C607      1.0  0.36050  0.65379  0.95468  1.0000
  C   C608      1.0  0.34859  0.67085  0.94757  1.0000
  H   H724      1.0  0.37238  0.67875  0.90109  1.0000
  H   H725      1.0  0.39375  0.64903  0.91370  1.0000
  H   H726      1.0  0.18360  0.73166  0.84297  1.0000
  H   H727      1.0  0.33607  0.67704  0.95707  1.0000
  C   C609      1.0  0.23609  0.69504  0.86235  1.0000
  C   C610      1.0  0.14100  0.56507  0.68981  1.0000
  H   H728      1.0  0.21783  0.67934  0.92969  1.0000
  C   C611      1.0  0.20891  0.71209  0.94510  1.0000
  C   C612      1.0  0.26875  0.70147  0.85913  1.0000
  C   C613      1.0  0.25590  0.68835  0.86200  1.0000
  H   H729      1.0  0.22010  0.69072  0.90472  1.0000
  H   H730      1.0  0.14509  0.50783  0.76986  1.0000
  H   H731      1.0  0.28402  0.69617  0.85879  1.0000
  H   H732      1.0  0.26128  0.67296  0.86432  1.0000
  C   C614      1.0  0.14038  0.63216  0.81175  1.0000
  C   C615      1.0  0.14127  0.65126  0.81352  1.0000
  C   C616      1.0  0.14309  0.65591  0.83138  1.0000
  C   C617      1.0  0.14351  0.64159  0.84789  1.0000
  C   C618      1.0  0.14270  0.62247  0.84614  1.0000
  C   C619      1.0  0.14141  0.61772  0.82813  1.0000
  H   H733      1.0  0.14030  0.66261  0.80110  1.0000
  H   H734      1.0  0.14359  0.67068  0.83252  1.0000
  H   H735      1.0  0.14295  0.61128  0.85882  1.0000
  H   H736      1.0  0.14049  0.60301  0.82712  1.0000
  C   C620      1.0  0.29779  0.62654  0.83949  1.0000
  C   C621      1.0  0.31633  0.61572  0.84039  1.0000
  C   C622      1.0  0.33123  0.62434  0.84352  1.0000
  C   C623      1.0  0.32761  0.64381  0.84577  1.0000
  C   C624      1.0  0.30898  0.65457  0.84533  1.0000
  C   C625      1.0  0.29405  0.64591  0.84217  1.0000
  H   H737      1.0  0.31930  0.60077  0.83820  1.0000
  H   H738      1.0  0.34561  0.61596  0.84391  1.0000
  H   H739      1.0  0.30621  0.66964  0.84693  1.0000
  H   H740      1.0  0.27984  0.65438  0.84098  1.0000
  C   C626      1.0  0.25487  0.57344  0.76002  1.0000
  C   C627      1.0  0.25209  0.56599  0.77991  1.0000
  C   C628      1.0  0.23581  0.55707  0.78841  1.0000
  C   C629      1.0  0.22207  0.55618  0.77710  1.0000
  C   C630      1.0  0.22483  0.56377  0.75730  1.0000
  C   C631      1.0  0.24136  0.57206  0.74873  1.0000
  H   H741      1.0  0.26244  0.56708  0.78872  1.0000
  H   H742      1.0  0.23355  0.55141  0.80379  1.0000
  H   H743      1.0  0.21432  0.56307  0.74849  1.0000
  H   H744      1.0  0.24358  0.57750  0.73332  1.0000
  C   C632      1.0  0.34410  0.51611  0.94280  1.0000
  H   H745      1.0  0.32526  0.65197  0.90388  1.0000
  H   H746      1.0  0.25309  0.60949  0.72081  1.0000
  C   C633      1.0  0.15181  0.57827  0.67757  1.0000
  C   C634      1.0  0.36523  0.69645  0.69371  1.0000
  C   C635      1.0  0.32826  0.67206  0.68466  1.0000
  C   C636      1.0  0.36205  0.54311  0.80166  1.0000
  C   C637      1.0  0.37925  0.53007  0.79802  1.0000
  C   C638      1.0  0.38307  0.51280  0.81089  1.0000
  H   H747      1.0  0.38965  0.53323  0.78499  1.0000
  C   C639      1.0  0.29833  0.52839  0.78486  1.0000
  C   C640      1.0  0.36385  0.72821  0.70158  1.0000
  C   C641      1.0  0.14849  0.50826  0.71692  1.0000
  C   C642      1.0  0.14439  0.52292  0.72854  1.0000
  C   C643      1.0  0.12514  0.53041  0.73554  1.0000
  C   C644      1.0  0.11009  0.52331  0.73040  1.0000
  C   C645      1.0  0.11419  0.50893  0.71841  1.0000
  C   C646      1.0  0.23841  0.63984  0.67304  1.0000
  H   H748      1.0  0.15613  0.52824  0.73225  1.0000
  H   H749      1.0  0.09515  0.52890  0.73583  1.0000
  H   H750      1.0  0.21259  0.72483  0.94961  1.0000
  C   C647      1.0  0.32079  0.68664  0.69597  1.0000
  C   C648      1.0  0.31814  0.68199  0.71637  1.0000
  C   C649      1.0  0.32256  0.66273  0.72551  1.0000
  C   C650      1.0  0.33026  0.64823  0.71420  1.0000
  H   H751      1.0  0.31709  0.70147  0.68899  1.0000
  H   H752      1.0  0.31231  0.69331  0.72505  1.0000
  H   H753      1.0  0.28415  0.50619  0.84108  1.0000
  C   C651      1.0  0.14064  0.65521  0.67781  1.0000
  C   C652      1.0  0.13343  0.63917  0.68952  1.0000
  C   C653      1.0  0.14622  0.62362  0.69788  1.0000
  C   C654      1.0  0.16617  0.62414  0.69447  1.0000
  C   C655      1.0  0.17337  0.63977  0.68202  1.0000
  C   C656      1.0  0.16064  0.65529  0.67379  1.0000
  H   H754      1.0  0.11795  0.63903  0.69268  1.0000
  H   H755      1.0  0.14061  0.61132  0.70703  1.0000
  H   H756      1.0  0.18869  0.64044  0.67945  1.0000
  H   H757      1.0  0.33535  0.54887  0.82160  1.0000
  C   C657      1.0  0.29129  0.62325  0.70527  1.0000
  H   H758      1.0  0.35557  0.61732  0.93382  1.0000
  C   C658      1.0  0.24919  0.61846  0.70761  1.0000
  H   H759      1.0  0.23410  0.64815  0.65963  1.0000
  S   S190      1.0  0.13348  0.70085  0.88943  1.0000
  H   H760      1.0  0.36616  0.59024  0.92162  1.0000
  C   C659      1.0  0.15110  0.72144  0.97009  1.0000
  H   H761      1.0  0.39635  0.50279  0.80761  1.0000
  H   H762      1.0  0.27874  0.64530  0.73410  1.0000
  H   H763      1.0  0.10246  0.50348  0.71478  1.0000
  C   C660      1.0  0.25291  0.64495  0.68080  1.0000
  H   H764      1.0  0.28499  0.72453  0.81623  1.0000
  H   H765      1.0  0.40638  0.49378  0.86273  1.0000
  C   C661      1.0  0.15213  0.58112  0.65758  1.0000
  H   H766      1.0  0.16400  0.49921  0.81718  1.0000
  H   H767      1.0  0.18858  0.50215  0.80539  1.0000
  H   H768      1.0  0.12123  0.52001  0.67516  1.0000
  Fe  Fe95      1.0  0.38068  0.60640  0.97866  1.0000
  H   H769      1.0  0.18053  0.71273  0.81253  1.0000
  H   H770      1.0  0.39738  0.71921  0.78066  1.0000
  H   H771      1.0  0.24561  0.60402  0.79109  1.0000
  H   H772      1.0  0.36670  0.67528  0.81502  1.0000
  C   C662      1.0  0.29416  0.52498  0.98152  1.0000
  H   H773      1.0  0.31979  0.57516  0.88544  1.0000
  C   C663      1.0  0.13346  0.50119  0.71173  1.0000
  H   H774      1.0  0.26851  0.72496  0.76930  1.0000
  C   C664      1.0  0.38235  0.69750  0.79952  1.0000
  H   H775      1.0  0.09515  0.56773  0.65336  1.0000
  H   H776      1.0  0.20697  0.72553  0.78849  1.0000
  C   C665      1.0  0.15858  0.69823  0.72072  1.0000
  C   C666      1.0  0.36990  0.50833  0.82782  1.0000
  H   H777      1.0  0.25240  0.73069  0.81243  1.0000
  H   H778      1.0  0.36136  0.62736  0.88063  1.0000
  H   H779      1.0  0.17470  0.65026  0.73738  1.0000
  C   C667      1.0  0.25099  0.72037  0.90919  1.0000
  C   C668      1.0  0.14871  0.50894  0.78404  1.0000
  N   N38       1.0  0.20971  0.62835  0.84670  1.0000
  H   H780      1.0  0.16938  0.52203  0.80370  1.0000
  C   C669      1.0  0.19912  0.61567  0.86266  1.0000
  H   H781      1.0  0.40375  0.65780  0.96242  1.0000
  C   C670      1.0  0.21182  0.62110  0.82814  1.0000
  C   C671      1.0  0.23014  0.61563  0.81666  1.0000
  C   C672      1.0  0.19512  0.61910  0.82112  1.0000
  C   C673      1.0  0.23148  0.60834  0.79949  1.0000
  C   C674      1.0  0.19660  0.61172  0.80400  1.0000
  C   C675      1.0  0.21477  0.60626  0.79324  1.0000
  H   H782      1.0  0.22750  0.60136  0.70710  1.0000
  C   C676      1.0  0.17706  0.72456  0.80100  1.0000
  N   N39       1.0  0.30912  0.48822  0.82716  1.0000
  H   H783      1.0  0.20645  0.60031  0.86357  1.0000
  H   H784      1.0  0.30504  0.49927  0.96863  1.0000
  C   C677      1.0  0.23471  0.61351  0.69976  1.0000
  H   H785      1.0  0.25397  0.65113  0.72982  1.0000
  C   C678      1.0  0.36920  0.51032  0.96313  1.0000
  C   C679      1.0  0.31685  0.53170  0.77584  1.0000
  H   H786      1.0  0.24369  0.61666  0.82071  1.0000
  H   H787      1.0  0.18075  0.62306  0.82898  1.0000
  H   H788      1.0  0.16002  0.58622  0.68364  1.0000
  H   H789      1.0  0.18356  0.61002  0.79924  1.0000
  H   H790      1.0  0.21593  0.60023  0.78013  1.0000
  C   C680      1.0  0.12801  0.66849  0.75490  1.0000
  H   H791      1.0  0.11718  0.68140  0.75065  1.0000
  H   H792      1.0  0.12129  0.65533  0.75621  1.0000
  H   H793      1.0  0.13027  0.66873  0.76983  1.0000
  H   H794      1.0  0.16335  0.65115  0.76224  1.0000
  H   H795      1.0  0.15522  0.63709  0.74841  1.0000
  C   C681      1.0  0.17294  0.50606  0.80392  1.0000
  H   H796      1.0  0.33663  0.48594  0.83655  1.0000
  H   H797      1.0  0.33906  0.64160  0.68513  1.0000
  Fe  Fe96      1.0  0.30729  0.72038  0.85928  1.0000
  H   H798      1.0  0.23699  0.63906  0.84137  1.0000
  H   H799      1.0  0.39553  0.70765  0.75066  1.0000
  C   C682      1.0  0.22854  0.62909  0.85233  1.0000
  H   H800      1.0  0.18364  0.64892  0.84193  1.0000
  C   C683      1.0  0.13075  0.55438  0.68212  1.0000
  C   C684      1.0  0.39052  0.70671  0.78151  1.0000
  C   C685      1.0  0.24198  0.72815  0.85683  1.0000
  H   H801      1.0  0.28578  0.53705  0.77911  1.0000
  H   H802      1.0  0.40121  0.67323  0.98020  1.0000
  C   C686      1.0  0.26993  0.69120  0.93461  1.0000
  H   H803      1.0  0.21839  0.61991  0.67635  1.0000
  C   C687      1.0  0.37306  0.68169  0.80072  1.0000
  S   S191      1.0  0.33039  0.50829  0.92819  1.0000
  N   N40       1.0  0.21830  0.71015  0.92483  1.0000
  C   C688      1.0  0.15876  0.69132  0.75542  1.0000
  H   H804      1.0  0.35876  0.70285  0.72276  1.0000
  C   C689      1.0  0.22906  0.71495  0.85956  1.0000
  C   C690      1.0  0.32520  0.63703  0.90146  1.0000
  H   H805      1.0  0.18383  0.61627  0.86084  1.0000
  S   S192      1.0  0.17508  0.71736  0.88583  1.0000
  H   H806      1.0  0.14690  0.72799  0.81218  1.0000
  C   C691      1.0  0.14179  0.57062  0.64974  1.0000
  H   H807      1.0  0.23772  0.61451  0.85427  1.0000
  C   C692      1.0  0.30672  0.50770  0.97915  1.0000
  C   C693      1.0  0.17008  0.72013  0.73620  1.0000
  H   H808      1.0  0.36439  0.48960  0.94674  1.0000
  H   H809      1.0  0.10292  0.52273  0.66052  1.0000
  C   C694      1.0  0.26180  0.72131  0.85691  1.0000
  H   H810      1.0  0.22645  0.63469  0.86628  1.0000
  C   C695      1.0  0.24986  0.69307  0.93545  1.0000
  H   H811      1.0  0.18073  0.52554  0.76924  1.0000
  C   C696      1.0  0.27105  0.71830  0.90843  1.0000
  H   H812      1.0  0.42505  0.62436  0.96793  1.0000
  C   C697      1.0  0.18220  0.50975  0.76931  1.0000
  H   H813      1.0  0.29649  0.48789  0.85739  1.0000
  H   H814      1.0  0.17594  0.73330  0.73519  1.0000
  C   C698      1.0  0.35984  0.50402  0.95031  1.0000
  H   H815      1.0  0.19281  0.71410  0.94676  1.0000
  C   C699      1.0  0.19199  0.73181  0.78750  1.0000
  H   H816      1.0  0.29322  0.71867  0.77331  1.0000
  Fe  Fe97      1.0  0.15314  0.71805  0.86697  1.0000
  H   H817      1.0  0.28756  0.60895  0.71284  1.0000
  N   N41       1.0  0.36151  0.65792  0.78558  1.0000
  C   C700      1.0  0.36251  0.65140  0.76677  1.0000
  C   C701      1.0  0.37000  0.64102  0.79885  1.0000
  C   C702      1.0  0.34071  0.66357  0.79358  1.0000
  C   C703      1.0  0.37179  0.67448  0.78386  1.0000
  C   C704      1.0  0.38022  0.68429  0.76567  1.0000
  C   C705      1.0  0.38938  0.70019  0.76463  1.0000
  H   H818      1.0  0.35535  0.66296  0.75630  1.0000
  H   H819      1.0  0.37777  0.64662  0.76007  1.0000
  H   H820      1.0  0.35473  0.63888  0.76860  1.0000
  H   H821      1.0  0.38581  0.63674  0.79374  1.0000
  H   H822      1.0  0.36283  0.62818  0.80007  1.0000
  H   H823      1.0  0.36828  0.64387  0.81391  1.0000
  H   H824      1.0  0.33370  0.67603  0.78386  1.0000
  H   H825      1.0  0.33239  0.65152  0.79526  1.0000
  H   H826      1.0  0.33865  0.66769  0.80820  1.0000
  H   H827      1.0  0.37990  0.68003  0.75203  1.0000
  H   H828      1.0  0.19715  0.69406  0.92071  1.0000
  C   C706      1.0  0.15773  0.73330  0.80049  1.0000
  C   C707      1.0  0.34867  0.53883  0.81866  1.0000
  C   C708      1.0  0.36002  0.62941  0.89599  1.0000
  H   H829      1.0  0.19773  0.50352  0.76997  1.0000
  H   H830      1.0  0.35712  0.64686  0.96960  1.0000
  C   C709      1.0  0.36239  0.70860  0.70747  1.0000
  C   C710      1.0  0.28046  0.70391  0.92125  1.0000
  C   C711      1.0  0.29877  0.49828  0.84354  1.0000
  H   H831      1.0  0.31121  0.63269  0.90942  1.0000
  C   C712      1.0  0.33828  0.53474  0.94790  1.0000
  H   H832      1.0  0.20600  0.65845  0.83375  1.0000
  C   C713      1.0  0.16638  0.70824  0.75408  1.0000
  H   H833      1.0  0.37334  0.62114  0.90151  1.0000
  H   H834      1.0  0.13107  0.67680  0.71611  1.0000
  C   C714      1.0  0.27799  0.72265  0.78055  1.0000
  H   H835      1.0  0.32603  0.54417  0.94234  1.0000
  H   H836      1.0  0.34246  0.51821  0.84498  1.0000
  C   C715      1.0  0.25868  0.63441  0.69847  1.0000
  N   N42       1.0  0.16921  0.50062  0.78603  1.0000
  C   C716      1.0  0.33305  0.52066  0.78312  1.0000
  C   C717      1.0  0.34800  0.54125  0.96023  1.0000
  H   H837      1.0  0.16960  0.71205  0.76696  1.0000
  H   H838      1.0  0.27437  0.70982  0.79148  1.0000
  H   H839      1.0  0.29714  0.62186  0.68981  1.0000
  S   S193      1.0  0.33118  0.67703  0.65913  1.0000
  H   H840      1.0  0.15601  0.69526  0.70721  1.0000
  H   H841      1.0  0.34289  0.54891  0.90094  1.0000
  H   H842      1.0  0.26865  0.66986  0.69703  1.0000
  H   H843      1.0  0.15519  0.66294  0.71114  1.0000
  C   C718      1.0  0.16636  0.71502  0.71955  1.0000
  N   N43       1.0  0.34210  0.62315  0.90791  1.0000
  C   C719      1.0  0.34183  0.62457  0.92853  1.0000
  H   H844      1.0  0.36012  0.64503  0.89572  1.0000
  H   H845      1.0  0.19613  0.65382  0.85915  1.0000
  C   C720      1.0  0.23968  0.70800  0.92306  1.0000
  C   C721      1.0  0.35269  0.52146  0.83186  1.0000
  C   C722      1.0  0.32926  0.59794  0.89526  1.0000
  C   C723      1.0  0.34279  0.56388  0.90210  1.0000
  C   C724      1.0  0.13098  0.55670  0.66177  1.0000
  H   H846      1.0  0.16639  0.66768  0.66512  1.0000
  Fe  Fe98      1.0  0.34892  0.72483  0.84493  1.0000
  H   H847      1.0  0.34006  0.63989  0.93067  1.0000
  C   C725      1.0  0.33316  0.65290  0.69383  1.0000
  N   N44       1.0  0.14633  0.66791  0.74067  1.0000
  C   C726      1.0  0.16055  0.65096  0.74746  1.0000
  H   H848      1.0  0.13549  0.65126  0.72422  1.0000
  H   H849      1.0  0.21374  0.72016  0.85960  1.0000
  N   N45       1.0  0.27433  0.63901  0.70689  1.0000
  C   C727      1.0  0.28094  0.65752  0.69704  1.0000
  H   H850      1.0  0.19811  0.62015  0.87702  1.0000
  H   H851      1.0  0.38293  0.70290  0.81260  1.0000
  C   C728      1.0  0.34198  0.60292  0.90591  1.0000
  C   C729      1.0  0.35554  0.58754  0.91396  1.0000
  H   H852      1.0  0.14065  0.56301  0.70541  1.0000
  C   C730      1.0  0.14184  0.66472  0.72218  1.0000
  C   C731      1.0  0.35580  0.56834  0.91215  1.0000
  H   H853      1.0  0.15638  0.68240  0.76956  1.0000
  H   H854      1.0  0.24235  0.68274  0.94593  1.0000
  S   S194      1.0  0.15115  0.70271  0.93981  1.0000
  H   H855      1.0  0.27740  0.67988  0.94439  1.0000
  H   H856      1.0  0.29167  0.66123  0.70450  1.0000
  C   C732      1.0  0.43872  0.65590  0.96828  1.0000
  C   C733      1.0  0.33084  0.50632  0.79953  1.0000
  C   C734      1.0  0.15443  0.68588  0.73881  1.0000
  H   H857      1.0  0.26507  0.62650  0.73689  1.0000
  H   H858      1.0  0.36608  0.55677  0.91867  1.0000
  H   H859      1.0  0.31892  0.60864  0.88799  1.0000
  H   H860      1.0  0.28841  0.65678  0.68182  1.0000
  C   C735      1.0  0.26766  0.64058  0.72776  1.0000
  H   H861      1.0  0.30715  0.50900  0.84589  1.0000
  C   C736      1.0  0.32967  0.57867  0.89354  1.0000
  H   H862      1.0  0.34870  0.73022  0.80028  1.0000
  H   H863      1.0  0.38097  0.50062  0.96927  1.0000
  H   H864      1.0  0.34745  0.52357  0.77625  1.0000
  C   C737      1.0  0.19840  0.64822  0.84520  1.0000
  N   N46       1.0  0.12042  0.54553  0.65308  1.0000
  C   C738      1.0  0.36333  0.52894  0.96827  1.0000
  H   H865      1.0  0.12288  0.54430  0.69250  1.0000
  H   H866      1.0  0.29599  0.70255  0.92072  1.0000
  S   S195      1.0  0.35508  0.59196  0.98029  1.0000
  H   H867      1.0  0.34407  0.49860  0.80451  1.0000
  H   H868      1.0  0.30404  0.73206  0.79788  1.0000
  H   H869      1.0  0.16345  0.50240  0.71185  1.0000
  C   C739      1.0  0.31211  0.50273  0.80928  1.0000
  H   H870      1.0  0.21299  0.69906  0.95576  1.0000
  H   H871      1.0  0.17905  0.50795  0.75514  1.0000
  C   C740      1.0  0.21317  0.69282  0.91979  1.0000
  H   H872      1.0  0.34335  0.55566  0.96376  1.0000
  H   H873      1.0  0.25942  0.65714  0.67260  1.0000
  H   H874      1.0  0.13843  0.50161  0.79571  1.0000
  H   H875      1.0  0.36366  0.68134  0.69824  1.0000
  C   C741      1.0  0.37139  0.72336  0.66798  1.0000
  C   C742      1.0  0.20978  0.72741  0.91197  1.0000
  C   C743      1.0  0.36977  0.70379  0.67405  1.0000
  H   H876      1.0  0.21504  0.72639  0.89635  1.0000
  H   H877      1.0  0.28260  0.52979  0.97292  1.0000
  H   H878      1.0  0.45347  0.64789  0.97021  1.0000
  H   H879      1.0  0.19371  0.72888  0.91406  1.0000
  H   H880      1.0  0.09939  0.53781  0.67852  1.0000
  H   H881      1.0  0.43822  0.67156  0.96841  1.0000
  C   C744      1.0  0.11060  0.53096  0.66753  1.0000
  H   H882      1.0  0.27939  0.72793  0.89777  1.0000
  H   H883      1.0  0.11259  0.64308  0.65569  1.0000
  H   H884      1.0  0.24477  0.73175  0.89868  1.0000
  H   H885      1.0  0.12528  0.73258  0.77839  1.0000
  S   S196      1.0  0.32804  0.48661  0.88260  1.0000
  Fe  Fe99      1.0  0.14295  0.69630  0.64944  1.0000
  H   H886      1.0  0.10062  0.62577  0.65020  1.0000
  H   H887      1.0  0.37159  0.69432  0.66337  1.0000
  Fe  Fe100     1.0  0.02223  0.81595  0.17153  1.0000
  S   S197      1.0  0.02493  0.83456  0.14184  1.0000
  S   S198      1.0  0.04748  0.80485  0.18884  1.0000
  Fe  Fe101     1.0  0.02049  0.80886  0.13049  1.0000
  S   S199      1.0  0.04068  0.79232  0.10789  1.0000
  S   S200      1.0  0.01890  0.79009  0.15969  1.0000
  Fe  Fe102     1.0  0.13158  0.77249  0.27907  1.0000
  S   S201      1.0  0.11984  0.80198  0.28641  1.0000
  S   S202      1.0  0.11936  0.74705  0.29754  1.0000
  Fe  Fe103     1.0  0.16411  0.78660  0.24858  1.0000
  S   S203      1.0  0.15487  0.81751  0.25364  1.0000
  S   S204      1.0  0.19053  0.77205  0.23062  1.0000
  Fe  Fe104     1.0  0.15106  0.80476  0.28568  1.0000
  Fe  Fe105     1.0  0.12452  0.81158  0.25387  1.0000
  S   S205      1.0  0.09992  0.83099  0.23931  1.0000
  S   S206      1.0  0.16209  0.77451  0.28007  1.0000
  S   S207      1.0  0.13445  0.78162  0.24686  1.0000
  Fe  Fe106     1.0  0.40019  0.78840  0.25806  1.0000
  S   S208      1.0  0.42238  0.79870  0.23313  1.0000
  S   S209      1.0  0.40457  0.75725  0.27211  1.0000
  Fe  Fe107     1.0  0.37549  0.82762  0.25645  1.0000
  S   S210      1.0  0.39550  0.84109  0.23132  1.0000
  S   S211      1.0  0.34902  0.84546  0.27062  1.0000
  Fe  Fe108     1.0  0.39637  0.81392  0.21921  1.0000
  S   S212      1.0  0.39558  0.81205  0.18775  1.0000
  Fe  Fe109     1.0  0.41922  0.82453  0.24802  1.0000
  S   S213      1.0  0.44447  0.83845  0.25139  1.0000
  S   S214      1.0  0.37457  0.80188  0.24324  1.0000
  S   S215      1.0  0.39883  0.81288  0.27389  1.0000
  C   C745      1.0  0.21074  0.76742  0.28300  1.0000
  H   H888      1.0  0.35993  0.87959  0.31301  1.0000
  H   H889      1.0  0.37955  0.74047  0.23102  1.0000
  Fe  Fe110     1.0  0.17090  0.80616  0.03001  1.0000
  S   S216      1.0  0.15077  0.83436  0.02446  1.0000
  S   S217      1.0  0.18416  0.79641  0.05797  1.0000
  Fe  Fe111     1.0  0.12924  0.81648  0.02135  1.0000
  S   S218      1.0  0.09888  0.82865  0.03595  1.0000
  H   H890      1.0  0.25836  0.84080  0.28495  1.0000
  S   S219      1.0  0.14881  0.78803  0.02835  1.0000
  Fe  Fe112     1.0  0.26221  0.80967  0.15317  1.0000
  S   S220      1.0  0.28027  0.82167  0.12558  1.0000
  S   S221      1.0  0.24209  0.82820  0.17304  1.0000
  Fe  Fe113     1.0  0.27876  0.76853  0.14884  1.0000
  S   S222      1.0  0.29820  0.77700  0.12082  1.0000
  C   C746      1.0  0.23245  0.76050  0.04293  1.0000
  Fe  Fe114     1.0  0.30458  0.79923  0.13625  1.0000
  S   S223      1.0  0.33539  0.80467  0.13475  1.0000
  Fe  Fe115     1.0  0.27181  0.79838  0.11307  1.0000
  S   S224      1.0  0.26353  0.80460  0.08272  1.0000
  S   S225      1.0  0.28692  0.78912  0.16462  1.0000
  S   S226      1.0  0.25201  0.78804  0.14020  1.0000
  C   C747      1.0  0.27036  0.76516  0.27982  1.0000
  S   S227      1.0  0.18357  0.80752  0.99828  1.0000
  H   H891      1.0  0.07972  0.74133  0.27157  1.0000
  H   H892      1.0  0.20465  0.77471  0.15012  1.0000
  H   H893      1.0  0.05696  0.80588  0.24846  1.0000
  H   H894      1.0  0.30344  0.78347  0.30695  1.0000
  H   H895      1.0  0.25559  0.79391  0.27434  1.0000
  C   C748      1.0  0.20394  0.75931  0.14983  1.0000
  C   C749      1.0  0.20599  0.79967  0.06464  1.0000
  C   C750      1.0  0.21982  0.80934  0.05165  1.0000
  C   C751      1.0  0.23719  0.81095  0.05752  1.0000
  C   C752      1.0  0.24091  0.80308  0.07645  1.0000
  C   C753      1.0  0.22697  0.79358  0.08949  1.0000
  C   C754      1.0  0.20969  0.79184  0.08358  1.0000
  H   H896      1.0  0.21723  0.81547  0.03706  1.0000
  H   H897      1.0  0.24786  0.81830  0.04730  1.0000
  H   H898      1.0  0.22965  0.78736  0.10403  1.0000
  H   H899      1.0  0.19913  0.78429  0.09373  1.0000
  C   C755      1.0  0.34601  0.81126  0.29532  1.0000
  C   C756      1.0  0.43483  0.74524  0.18373  1.0000
  C   C757      1.0  0.29450  0.82083  0.28219  1.0000
  H   H900      1.0  0.17538  0.74476  0.04176  1.0000
  H   H901      1.0  0.33511  0.75902  0.13815  1.0000
  C   C758      1.0  0.01181  0.74486  0.10865  1.0000
  H   H902      1.0  0.30870  0.74937  0.30383  1.0000
  H   H903      1.0  0.35679  0.80453  0.28466  1.0000
  C   C759      1.0  0.39985  0.87271  0.30755  1.0000
  C   C760      1.0  0.99112  0.77165  0.12214  1.0000
  C   C761      1.0  0.37770  0.80895  0.17477  1.0000
  C   C762      1.0  0.35889  0.80532  0.18336  1.0000
  C   C763      1.0  0.34551  0.80359  0.17159  1.0000
  C   C764      1.0  0.35092  0.80570  0.15123  1.0000
  C   C765      1.0  0.36979  0.80888  0.14301  1.0000
  C   C766      1.0  0.38300  0.81036  0.15461  1.0000
  H   H904      1.0  0.35459  0.80415  0.19894  1.0000
  H   H905      1.0  0.33107  0.80092  0.17824  1.0000
  H   H906      1.0  0.37424  0.81041  0.12741  1.0000
  H   H907      1.0  0.39743  0.81306  0.14777  1.0000
  C   C767      1.0  0.45218  0.83911  0.27358  1.0000
  C   C768      1.0  0.46818  0.84815  0.27314  1.0000
  C   C769      1.0  0.47403  0.84991  0.29049  1.0000
  H   H908      1.0  0.07657  0.89524  0.01423  1.0000
  H   H909      1.0  0.47599  0.85402  0.25927  1.0000
  C   C770      1.0  0.44227  0.83159  0.29163  1.0000
  C   C771      1.0  0.20323  0.76197  0.02022  1.0000
  C   C772      1.0  0.43052  0.88311  0.30844  1.0000
  C   C773      1.0  0.44782  0.83373  0.30894  1.0000
  H   H910      1.0  0.43019  0.82431  0.29224  1.0000
  H   H911      1.0  0.05032  0.80890  0.27320  1.0000
  C   C774      1.0  0.36555  0.75821  0.27448  1.0000
  H   H912      1.0  0.11088  0.85194  0.00217  1.0000
  H   H913      1.0  0.32135  0.85548  0.30375  1.0000
  C   C775      1.0  0.24731  0.76005  0.05332  1.0000
  C   C776      1.0  0.32599  0.83995  0.30604  1.0000
  H   H914      1.0  0.36374  0.77322  0.27597  1.0000
  H   H915      1.0  0.00401  0.74811  0.09603  1.0000
  H   H916      1.0  0.38467  0.85960  0.26952  1.0000
  Fe  Fe116     1.0  0.16015  0.79122  0.99604  1.0000
  C   C777      1.0  0.20510  0.78808  0.21574  1.0000
  C   C778      1.0  0.22298  0.78051  0.20562  1.0000
  C   C779      1.0  0.23438  0.79288  0.19263  1.0000
  C   C780      1.0  0.22812  0.81292  0.19002  1.0000
  C   C781      1.0  0.21048  0.82057  0.20057  1.0000
  C   C782      1.0  0.19887  0.80812  0.21332  1.0000
  H   H917      1.0  0.22796  0.76504  0.20766  1.0000
  H   H918      1.0  0.24802  0.78685  0.18468  1.0000
  H   H919      1.0  0.20553  0.83605  0.19849  1.0000
  H   H920      1.0  0.18498  0.81406  0.22089  1.0000
  H   H921      1.0  0.42429  0.87567  0.28334  1.0000
  C   C783      1.0  0.29688  0.75926  0.29781  1.0000
  C   C784      1.0  0.26718  0.78485  0.28124  1.0000
  H   H922      1.0  0.29792  0.81895  0.26666  1.0000
  C   C785      1.0  0.05716  0.80267  0.08834  1.0000
  C   C786      1.0  0.07230  0.79043  0.07855  1.0000
  C   C787      1.0  0.08558  0.79813  0.06283  1.0000
  C   C788      1.0  0.08357  0.81814  0.05651  1.0000
  C   C789      1.0  0.06848  0.83035  0.06637  1.0000
  C   C790      1.0  0.05547  0.82269  0.08232  1.0000
  H   H923      1.0  0.07374  0.77491  0.08308  1.0000
  H   H924      1.0  0.09705  0.78856  0.05531  1.0000
  H   H925      1.0  0.06675  0.84584  0.06156  1.0000
  H   H926      1.0  0.04386  0.83228  0.08966  1.0000
  C   C791      1.0  0.06256  0.81341  0.20139  1.0000
  C   C792      1.0  0.07932  0.80088  0.20654  1.0000
  C   C793      1.0  0.09126  0.80632  0.21745  1.0000
  C   C794      1.0  0.08644  0.82430  0.22374  1.0000
  C   C795      1.0  0.06993  0.83705  0.21818  1.0000
  C   C796      1.0  0.05809  0.83169  0.20702  1.0000
  H   H927      1.0  0.08296  0.78666  0.20236  1.0000
  H   H928      1.0  0.10404  0.79644  0.22123  1.0000
  H   H929      1.0  0.06608  0.85106  0.22283  1.0000
  H   H930      1.0  0.04526  0.84153  0.20322  1.0000
  H   H931      1.0  0.20613  0.77060  0.26889  1.0000
  H   H932      1.0  0.02389  0.75723  0.13606  1.0000
  H   H933      1.0  0.33206  0.76738  0.16113  1.0000
  H   H934      1.0  0.06129  0.75785  0.29490  1.0000
  H   H935      1.0  0.42166  0.74485  0.23142  1.0000
  H   H936      1.0  0.08930  0.78734  0.25496  1.0000
  N   N47       1.0  0.38683  0.86585  0.29748  1.0000
  N   N48       1.0  0.27654  0.81322  0.29216  1.0000
  H   H937      1.0  0.15577  0.74548  0.31332  1.0000
  C   C797      1.0  0.46370  0.84292  0.30854  1.0000
  S   S228      1.0  0.13875  0.81838  0.98870  1.0000
  N   N49       1.0  0.20835  0.74652  0.16811  1.0000
  H   H938      1.0  0.13040  0.86412  0.98941  1.0000
  H   H939      1.0  0.25474  0.77241  0.05096  1.0000
  H   H940      1.0  0.04577  0.78518  0.23421  1.0000
  H   H941      1.0  0.40859  0.85402  0.27519  1.0000
  H   H942      1.0  0.08153  0.86927  0.01943  1.0000
  H   H943      1.0  0.33666  0.74416  0.19088  1.0000
  H   H944      1.0  0.03505  0.79811  0.26271  1.0000
  C   C798      1.0  0.20673  0.83622  0.30771  1.0000
  C   C799      1.0  0.33054  0.75525  0.15413  1.0000
  C   C800      1.0  0.08163  0.78198  0.26961  1.0000
  N   N50       1.0  0.10541  0.88268  0.00204  1.0000
  S   S229      1.0  0.16043  0.80807  0.31376  1.0000
  N   N51       1.0  0.99924  0.75081  0.12647  1.0000
  H   H945      1.0  0.00354  0.75395  0.15481  1.0000
  H   H946      1.0  0.08161  0.79267  0.27909  1.0000
  Fe  Fe117     1.0  0.16153  0.83440  0.99246  1.0000
  H   H947      1.0  0.21371  0.79677  0.28272  1.0000
  C   C801      1.0  0.22114  0.77815  0.30892  1.0000
  H   H948      1.0  0.20833  0.73733  0.28745  1.0000
  H   H949      1.0  0.48615  0.85719  0.28987  1.0000
  H   H950      1.0  0.03786  0.76819  0.28838  1.0000
  C   C802      1.0  0.05366  0.77088  0.23839  1.0000
  H   H951      1.0  0.35812  0.87479  0.28991  1.0000
  H   H952      1.0  0.23005  0.76206  0.17199  1.0000
  C   C803      1.0  0.25243  0.74398  0.06701  1.0000
  H   H953      1.0  0.37015  0.89427  0.29130  1.0000
  C   C804      1.0  0.05045  0.79885  0.26301  1.0000
  H   H954      1.0  0.31476  0.75455  0.15653  1.0000
  H   H955      1.0  0.27103  0.83135  0.31430  1.0000
  H   H956      1.0  0.23914  0.74402  0.15717  1.0000
  N   N52       1.0  0.06169  0.77936  0.26878  1.0000
  H   H957      1.0  0.24602  0.82056  0.29031  1.0000
  C   C805      1.0  0.38403  0.74689  0.27318  1.0000
  H   H958      1.0  0.19660  0.76985  0.18463  1.0000
  N   N53       1.0  0.20635  0.74460  0.03533  1.0000
  C   C806      1.0  0.21516  0.78213  0.29077  1.0000
  H   H959      1.0  0.22904  0.77364  0.03288  1.0000
  N   N54       1.0  0.30231  0.85523  0.16008  1.0000
  C   C807      1.0  0.28720  0.87168  0.16553  1.0000
  C   C808      1.0  0.30591  0.85739  0.13852  1.0000
  C   C809      1.0  0.29449  0.83697  0.16781  1.0000
  C   C810      1.0  0.31993  0.85474  0.16843  1.0000
  C   C811      1.0  0.31868  0.85359  0.18879  1.0000
  C   C812      1.0  0.33868  0.85501  0.15692  1.0000
  C   C813      1.0  0.33511  0.85293  0.19707  1.0000
  C   C814      1.0  0.35498  0.85448  0.16535  1.0000
  C   C815      1.0  0.35322  0.85340  0.18536  1.0000
  H   H960      1.0  0.29280  0.88565  0.16078  1.0000
  H   H961      1.0  0.27404  0.87284  0.15880  1.0000
  H   H962      1.0  0.28194  0.87013  0.18144  1.0000
  H   H963      1.0  0.31180  0.87090  0.13167  1.0000
  H   H964      1.0  0.29233  0.85809  0.13268  1.0000
  H   H965      1.0  0.31617  0.84480  0.13334  1.0000
  H   H966      1.0  0.30539  0.82427  0.16394  1.0000
  H   H967      1.0  0.29022  0.83469  0.18386  1.0000
  H   H968      1.0  0.28122  0.83679  0.16185  1.0000
  H   H969      1.0  0.30501  0.85294  0.19850  1.0000
  H   H970      1.0  0.34130  0.85515  0.14143  1.0000
  H   H971      1.0  0.33392  0.85181  0.21267  1.0000
  H   H972      1.0  0.36923  0.85422  0.15642  1.0000
  H   H973      1.0  0.36605  0.85239  0.19181  1.0000
  H   H974      1.0  0.46095  0.74409  0.16232  1.0000
  N   N55       1.0  0.08975  0.81219  0.13784  1.0000
  C   C816      1.0  0.09652  0.79707  0.15372  1.0000
  C   C817      1.0  0.08220  0.83059  0.14551  1.0000
  C   C818      1.0  0.07323  0.80601  0.13213  1.0000
  C   C819      1.0  0.10613  0.81499  0.12165  1.0000
  C   C820      1.0  0.10558  0.81291  0.10231  1.0000
  C   C821      1.0  0.12341  0.81992  0.12503  1.0000
  C   C822      1.0  0.12151  0.81519  0.08748  1.0000
  C   C823      1.0  0.13929  0.82212  0.11010  1.0000
  C   C824      1.0  0.13837  0.81965  0.09138  1.0000
  H   H975      1.0  0.10694  0.80169  0.16091  1.0000
  H   H976      1.0  0.08426  0.79352  0.16545  1.0000
  H   H977      1.0  0.10363  0.78343  0.14817  1.0000
  H   H978      1.0  0.09318  0.83540  0.15179  1.0000
  H   H979      1.0  0.06945  0.82917  0.15735  1.0000
  H   H980      1.0  0.07741  0.84244  0.13387  1.0000
  H   H981      1.0  0.07775  0.79217  0.12624  1.0000
  H   H982      1.0  0.06139  0.80351  0.14472  1.0000
  H   H983      1.0  0.06650  0.81724  0.12110  1.0000
  H   H984      1.0  0.09302  0.80951  0.09820  1.0000
  H   H985      1.0  0.12477  0.82210  0.13928  1.0000
  H   H986      1.0  0.12078  0.81349  0.07282  1.0000
  H   H987      1.0  0.15242  0.82575  0.11299  1.0000
  H   H988      1.0  0.15074  0.82122  0.07984  1.0000
  H   H989      1.0  0.05072  0.78179  0.29888  1.0000
  C   C825      1.0  0.41844  0.87715  0.29829  1.0000
  C   C826      1.0  0.19503  0.75464  0.18452  1.0000
  H   H990      1.0  0.27360  0.74447  0.12444  1.0000
  C   C827      1.0  0.08428  0.88210  0.00807  1.0000
  H   H991      1.0  0.39765  0.87888  0.26823  1.0000
  C   C828      1.0  0.07257  0.74638  0.25901  1.0000
  C   C829      1.0  0.11368  0.88112  0.02001  1.0000
  H   H992      1.0  0.19885  0.77542  0.02675  1.0000
  H   H993      1.0  0.09064  0.76831  0.27536  1.0000
  C   C830      1.0  0.05248  0.77144  0.28857  1.0000
  H   H994      1.0  0.26390  0.74391  0.07501  1.0000
  S   S230      1.0  0.27929  0.73803  0.16451  1.0000
  C   C831      1.0  0.26007  0.82533  0.28320  1.0000
  H   H995      1.0  0.00281  0.78067  0.11702  1.0000
  H   H996      1.0  0.44488  0.88586  0.30125  1.0000
  C   C832      1.0  0.22227  0.74462  0.04595  1.0000
  C   C833      1.0  0.11430  0.86555  0.99272  1.0000
  H   H997      1.0  0.18916  0.75865  0.14732  1.0000
  H   H998      1.0  0.12982  0.87837  0.01741  1.0000
  C   C834      1.0  0.19163  0.82849  0.30329  1.0000
  C   C835      1.0  0.21784  0.74454  0.31171  1.0000
  H   H999      1.0  0.18458  0.75636  0.05740  1.0000
  H   H1000     1.0  0.40028  0.76294  0.23152  1.0000
  C   C836      1.0  0.28531  0.75245  0.28788  1.0000
  H   H1001     1.0  0.29335  0.83650  0.28278  1.0000
  H   H1002     1.0  0.18812  0.83188  0.28876  1.0000
  C   C837      1.0  0.34931  0.75001  0.27419  1.0000
  H   H1003     1.0  0.17953  0.75507  0.18364  1.0000
  H   H1004     1.0  0.26217  0.82511  0.26733  1.0000
  H   H1005     1.0  0.38655  0.75287  0.18729  1.0000
  H   H1006     1.0  0.39712  0.83598  0.30808  1.0000
  H   H1007     1.0  0.10945  0.86867  0.03116  1.0000
  C   C838      1.0  0.33972  0.83127  0.29207  1.0000
  H   H1008     1.0  0.19812  0.74631  0.19884  1.0000
  H   H1009     1.0  0.33510  0.75888  0.27501  1.0000
  C   C839      1.0  0.10974  0.90023  0.98807  1.0000
  H   H1010     1.0  0.34239  0.78429  0.31425  1.0000
  C   C840      1.0  0.39485  0.86459  0.27674  1.0000
  H   H1011     1.0  0.21445  0.75533  0.13686  1.0000
  C   C841      1.0  0.29380  0.77889  0.29938  1.0000
  C   C842      1.0  0.38323  0.84628  0.30743  1.0000
  H   H1012     1.0  0.26141  0.75979  0.27206  1.0000
  Fe  Fe118     1.0  0.99193  0.84151  0.14797  1.0000
  H   H1013     1.0  0.30732  0.81333  0.28895  1.0000
  H   H1014     1.0  0.12220  0.74622  0.25653  1.0000
  H   H1015     1.0  0.21468  0.84562  0.29647  1.0000
  C   C843      1.0  0.27896  0.79236  0.29097  1.0000
  C   C844      1.0  0.33794  0.79981  0.31218  1.0000
  H   H1016     1.0  0.23305  0.73698  0.18295  1.0000
  H   H1017     1.0  0.28820  0.73735  0.28613  1.0000
  H   H1018     1.0  0.36322  0.76642  0.14366  1.0000
  C   C845      1.0  0.18792  0.74394  0.04927  1.0000
  H   H1019     1.0  0.39804  0.76470  0.13844  1.0000
  C   C846      1.0  0.37163  0.75286  0.14923  1.0000
  C   C847      1.0  0.39177  0.75206  0.14605  1.0000
  C   C848      1.0  0.06257  0.76568  0.25532  1.0000
  C   C849      1.0  0.42136  0.73480  0.19705  1.0000
  C   C850      1.0  0.36799  0.87922  0.29801  1.0000
  H   H1020     1.0  0.37422  0.84024  0.29976  1.0000
  C   C851      1.0  0.41230  0.75523  0.22186  1.0000
  C   C852      1.0  0.01186  0.74860  0.14135  1.0000
  H   H1021     1.0  0.10868  0.89454  0.02656  1.0000
  H   H1022     1.0  0.42095  0.76635  0.21334  1.0000
  H   H1023     1.0  0.43331  0.76082  0.18233  1.0000
  C   C853      1.0  0.21201  0.74869  0.29348  1.0000
  H   H1024     1.0  0.21648  0.76339  0.00908  1.0000
  C   C854      1.0  0.39271  0.75978  0.19684  1.0000
  C   C855      1.0  0.27297  0.81580  0.31278  1.0000
  H   H1025     1.0  0.14077  0.89519  0.98969  1.0000
  H   H1026     1.0  0.07743  0.88058  0.99582  1.0000
  H   H1027     1.0  0.02449  0.75270  0.10409  1.0000
  H   H1028     1.0  0.40098  0.77078  0.18739  1.0000
  C   C856      1.0  0.05500  0.75763  0.22591  1.0000
  H   H1029     1.0  0.04832  0.76211  0.21293  1.0000
  H   H1030     1.0  0.22468  0.79010  0.31401  1.0000
  C   C857      1.0  0.36294  0.73652  0.15907  1.0000
  H   H1031     1.0  0.19135  0.76149  0.01228  1.0000
  C   C858      1.0  0.22845  0.74736  0.17018  1.0000
  N   N56       1.0  0.40483  0.74516  0.20928  1.0000
  C   C859      1.0  0.45072  0.73581  0.17220  1.0000
  N   N57       1.0  0.34172  0.73662  0.16225  1.0000
  H   H1032     1.0  0.38037  0.76810  0.20568  1.0000
  C   C860      1.0  0.40383  0.73508  0.15248  1.0000
  C   C861      1.0  0.12894  0.90449  0.98329  1.0000
  C   C862      1.0  0.06496  0.73883  0.22997  1.0000
  H   H1033     1.0  0.43086  0.89618  0.46783  1.0000
  S   S231      1.0  0.36690  0.75312  0.60615  1.0000
  H   H1034     1.0  0.37541  0.85634  0.42042  1.0000
  H   H1035     1.0  0.25702  0.75038  0.34883  1.0000
  C   C863      1.0  0.31234  0.85295  0.59836  1.0000
  H   H1036     1.0  0.31768  0.74939  0.35235  1.0000
  Fe  Fe119     1.0  0.24533  0.83223  0.35810  1.0000
  S   S232      1.0  0.25698  0.80058  0.36246  1.0000
  H   H1037     1.0  0.33987  0.76594  0.49467  1.0000
  Fe  Fe120     1.0  0.26774  0.83862  0.38961  1.0000
  S   S233      1.0  0.28064  0.80725  0.39526  1.0000
  S   S234      1.0  0.27659  0.85938  0.40575  1.0000
  Fe  Fe121     1.0  0.28549  0.80910  0.36290  1.0000
  S   S235      1.0  0.31253  0.79374  0.34619  1.0000
  Fe  Fe122     1.0  0.25076  0.80248  0.39415  1.0000
  S   S236      1.0  0.23647  0.77967  0.41498  1.0000
  S   S237      1.0  0.27433  0.84093  0.35700  1.0000
  S   S238      1.0  0.23707  0.83379  0.39016  1.0000
  Fe  Fe123     1.0  0.37878  0.83397  0.51049  1.0000
  S   S239      1.0  0.34758  0.84631  0.51863  1.0000
  S   S240      1.0  0.39447  0.80768  0.52772  1.0000
  Fe  Fe124     1.0  0.38488  0.86529  0.47508  1.0000
  S   S241      1.0  0.35375  0.88034  0.48113  1.0000
  S   S242      1.0  0.40388  0.87788  0.44783  1.0000
  Fe  Fe125     1.0  0.35832  0.87501  0.51249  1.0000
  S   S243      1.0  0.34726  0.89530  0.53507  1.0000
  Fe  Fe126     1.0  0.34616  0.85033  0.48657  1.0000
  S   S244      1.0  0.32338  0.83707  0.47711  1.0000
  S   S245      1.0  0.38980  0.86222  0.50588  1.0000
  S   S246      1.0  0.37704  0.83573  0.47899  1.0000
  H   H1038     1.0  0.28001  0.86116  0.48813  1.0000
  C   C864      1.0  0.46564  0.91167  0.43108  1.0000
  C   C865      1.0  0.32385  0.80842  0.32603  1.0000
  C   C866      1.0  0.32009  0.85715  0.57875  1.0000
  H   H1039     1.0  0.43541  0.92278  0.44027  1.0000
  H   H1040     1.0  0.17466  0.73524  0.32733  1.0000
  C   C867      1.0  0.44070  0.84945  0.37729  1.0000
  H   H1041     1.0  0.17634  0.80499  0.34832  1.0000
  C   C868      1.0  0.21341  0.76163  0.63847  1.0000
  H   H1042     1.0  0.37527  0.84626  0.32251  1.0000
  S   S247      1.0  0.41057  0.94603  0.62382  1.0000
  H   H1043     1.0  0.32542  0.91406  0.62862  1.0000
  C   C869      1.0  0.32634  0.73891  0.34358  1.0000
  C   C870      1.0  0.46041  0.88167  0.46232  1.0000
  Fe  Fe127     1.0  0.39381  0.95319  0.59882  1.0000
  S   S248      1.0  0.39940  0.93268  0.57655  1.0000
  H   H1044     1.0  0.35032  0.75459  0.33515  1.0000
  S   S249      1.0  0.36509  0.96197  0.61717  1.0000
  H   H1045     1.0  0.24899  0.75244  0.61909  1.0000
  C   C871      1.0  0.44761  0.91151  0.44320  1.0000
  H   H1046     1.0  0.34428  0.90281  0.61167  1.0000
  H   H1047     1.0  0.25303  0.79009  0.64464  1.0000
  H   H1048     1.0  0.13751  0.77774  0.33445  1.0000
  C   C872      1.0  0.36336  0.76099  0.53382  1.0000
  H   H1049     1.0  0.28560  0.74240  0.37296  1.0000
  C   C873      1.0  0.36199  0.90501  0.54699  1.0000
  C   C874      1.0  0.35315  0.91547  0.56219  1.0000
  C   C875      1.0  0.36433  0.92380  0.57164  1.0000
  C   C876      1.0  0.38449  0.92188  0.56588  1.0000
  C   C877      1.0  0.39333  0.91105  0.55103  1.0000
  C   C878      1.0  0.38219  0.90268  0.54163  1.0000
  H   H1050     1.0  0.33754  0.91727  0.56651  1.0000
  H   H1051     1.0  0.35734  0.93190  0.58317  1.0000
  H   H1052     1.0  0.40892  0.90941  0.54648  1.0000
  H   H1053     1.0  0.38924  0.89478  0.52994  1.0000
  C   C879      1.0  0.38531  0.79364  0.54974  1.0000
  C   C880      1.0  0.36552  0.79547  0.55795  1.0000
  C   C881      1.0  0.35928  0.78288  0.57512  1.0000
  C   C882      1.0  0.37297  0.76893  0.58427  1.0000
  C   C883      1.0  0.39265  0.76778  0.57630  1.0000
  C   C884      1.0  0.39873  0.77981  0.55907  1.0000
  H   H1054     1.0  0.35512  0.80641  0.55105  1.0000
  H   H1055     1.0  0.34404  0.78405  0.58137  1.0000
  H   H1056     1.0  0.40332  0.75720  0.58332  1.0000
  H   H1057     1.0  0.41402  0.77832  0.55290  1.0000
  C   C885      1.0  0.29210  0.85238  0.42373  1.0000
  C   C886      1.0  0.29996  0.86662  0.42939  1.0000
  C   C887      1.0  0.31071  0.86199  0.44488  1.0000
  C   C888      1.0  0.31332  0.84309  0.45522  1.0000
  C   C889      1.0  0.30591  0.82877  0.44922  1.0000
  C   C890      1.0  0.29567  0.83329  0.43342  1.0000
  H   H1058     1.0  0.29734  0.88143  0.42204  1.0000
  H   H1059     1.0  0.31613  0.87323  0.44938  1.0000
  H   H1060     1.0  0.30779  0.81413  0.45708  1.0000
  H   H1061     1.0  0.29009  0.82205  0.42916  1.0000
  H   H1062     1.0  0.33724  0.96496  0.58763  1.0000
  H   H1063     1.0  0.31135  0.96997  0.61487  1.0000
  H   H1064     1.0  0.32546  0.78954  0.48973  1.0000
  H   H1065     1.0  0.27291  0.76970  0.39072  1.0000
  C   C891      1.0  0.39420  0.87475  0.32744  1.0000
  H   H1066     1.0  0.43542  0.85582  0.36334  1.0000
  C   C892      1.0  0.15759  0.74807  0.35993  1.0000
  C   C893      1.0  0.46569  0.85032  0.42369  1.0000
  C   C894      1.0  0.45602  0.86693  0.41339  1.0000
  C   C895      1.0  0.43716  0.87518  0.42108  1.0000
  C   C896      1.0  0.42762  0.86680  0.43903  1.0000
  C   C897      1.0  0.43718  0.85012  0.44938  1.0000
  C   C898      1.0  0.45625  0.84205  0.44181  1.0000
  H   H1067     1.0  0.46295  0.87348  0.39946  1.0000
  H   H1068     1.0  0.42989  0.88816  0.41307  1.0000
  H   H1069     1.0  0.42998  0.84357  0.46327  1.0000
  H   H1070     1.0  0.46361  0.82919  0.44991  1.0000
  H   H1071     1.0  0.45684  0.84799  0.37425  1.0000
  N   N58       1.0  0.23177  0.76014  0.64599  1.0000
  C   C899      1.0  0.40220  0.88843  0.61709  1.0000
  H   H1072     1.0  0.31992  0.77775  0.63794  1.0000
  H   H1073     1.0  0.43893  0.80268  0.37608  1.0000
  C   C900      1.0  0.47847  0.88158  0.45021  1.0000
  H   H1074     1.0  0.17405  0.78084  0.37958  1.0000
  C   C901      1.0  0.20048  0.82055  0.34111  1.0000
  C   C902      1.0  0.18508  0.81329  0.33681  1.0000
  C   C903      1.0  0.27224  0.74224  0.38326  1.0000
  H   H1075     1.0  0.20354  0.81770  0.35580  1.0000
  H   H1076     1.0  0.15796  0.77922  0.35285  1.0000
  H   H1077     1.0  0.35092  0.96245  0.55543  1.0000
  C   C904      1.0  0.32369  0.79926  0.52481  1.0000
  S   S250      1.0  0.22989  0.84289  0.33174  1.0000
  H   H1078     1.0  0.20844  0.77671  0.63150  1.0000
  H   H1079     1.0  0.29674  0.85504  0.60302  1.0000
  H   H1080     1.0  0.34799  0.92265  0.62227  1.0000
  H   H1081     1.0  0.22766  0.78426  0.34457  1.0000
  C   C905      1.0  0.22430  0.73676  0.35116  1.0000
  H   H1082     1.0  0.31422  0.76193  0.54204  1.0000
  S   S251      1.0  0.30876  0.75867  0.61346  1.0000
  C   C906      1.0  0.35483  0.79366  0.50474  1.0000
  H   H1083     1.0  0.32922  0.80384  0.53645  1.0000
  H   H1084     1.0  0.31050  0.86276  0.56811  1.0000
  H   H1085     1.0  0.37712  0.90761  0.60999  1.0000
  C   C907      1.0  0.38229  0.89556  0.62046  1.0000
  N   N59       1.0  0.22952  0.75504  0.33898  1.0000
  H   H1086     1.0  0.41139  0.89508  0.60448  1.0000
  H   H1087     1.0  0.35018  0.80604  0.49353  1.0000
  H   H1088     1.0  0.48949  0.86922  0.45342  1.0000
  N   N60       1.0  0.37464  0.84423  0.58026  1.0000
  C   C908      1.0  0.38342  0.82447  0.58872  1.0000
  C   C909      1.0  0.38092  0.84644  0.55885  1.0000
  C   C910      1.0  0.38252  0.85873  0.58743  1.0000
  C   C911      1.0  0.35325  0.84710  0.58616  1.0000
  C   C912      1.0  0.34020  0.85428  0.57267  1.0000
  C   C913      1.0  0.34486  0.84330  0.60606  1.0000
  H   H1089     1.0  0.43429  0.88902  0.33575  1.0000
  H   H1090     1.0  0.32153  0.88429  0.64769  1.0000
  C   C914      1.0  0.32884  0.80132  0.64628  1.0000
  H   H1091     1.0  0.37627  0.81326  0.58540  1.0000
  H   H1092     1.0  0.39919  0.82102  0.58287  1.0000
  H   H1093     1.0  0.38227  0.82246  0.60476  1.0000
  H   H1094     1.0  0.37489  0.83633  0.55249  1.0000
  H   H1095     1.0  0.39701  0.84319  0.55471  1.0000
  H   H1096     1.0  0.37643  0.86149  0.55153  1.0000
  H   H1097     1.0  0.37946  0.85717  0.60356  1.0000
  H   H1098     1.0  0.39856  0.85738  0.58296  1.0000
  H   H1099     1.0  0.37605  0.87375  0.58151  1.0000
  H   H1100     1.0  0.34513  0.85795  0.55730  1.0000
  H   H1101     1.0  0.35381  0.83810  0.61723  1.0000
  H   H1102     1.0  0.25576  0.76673  0.32638  1.0000
  N   N61       1.0  0.34885  0.89511  0.64146  1.0000
  C   C915      1.0  0.16225  0.74729  0.32573  1.0000
  N   N62       1.0  0.23315  0.83673  0.45013  1.0000
  C   C916      1.0  0.22435  0.85195  0.43545  1.0000
  C   C917      1.0  0.24470  0.82095  0.43988  1.0000
  C   C918      1.0  0.21701  0.82904  0.46421  1.0000
  C   C919      1.0  0.24575  0.84382  0.46051  1.0000
  C   C920      1.0  0.25444  0.83127  0.47569  1.0000
  C   C921      1.0  0.25000  0.86301  0.45584  1.0000
  C   C922      1.0  0.26645  0.83758  0.48566  1.0000
  C   C923      1.0  0.26193  0.86919  0.46600  1.0000
  C   C924      1.0  0.27014  0.85651  0.48085  1.0000
  H   H1103     1.0  0.23568  0.85757  0.42365  1.0000
  H   H1104     1.0  0.21470  0.84629  0.42814  1.0000
  H   H1105     1.0  0.21539  0.86432  0.44216  1.0000
  H   H1106     1.0  0.25662  0.82637  0.42879  1.0000
  H   H1107     1.0  0.23565  0.81487  0.43225  1.0000
  H   H1108     1.0  0.25147  0.80859  0.44981  1.0000
  H   H1109     1.0  0.20864  0.84016  0.47302  1.0000
  H   H1110     1.0  0.20671  0.82450  0.45674  1.0000
  H   H1111     1.0  0.22222  0.81599  0.47438  1.0000
  H   H1112     1.0  0.25234  0.81634  0.47969  1.0000
  H   H1113     1.0  0.24487  0.87340  0.44397  1.0000
  C   C925      1.0  0.32950  0.77747  0.50156  1.0000
  H   H1114     1.0  0.26548  0.88368  0.46179  1.0000
  H   H1115     1.0  0.27341  0.82764  0.49680  1.0000
  C   C926      1.0  0.44283  0.82205  0.40322  1.0000
  C   C927      1.0  0.41285  0.83338  0.39010  1.0000
  C   C928      1.0  0.40285  0.84489  0.40434  1.0000
  C   C929      1.0  0.40124  0.82512  0.38086  1.0000
  C   C930      1.0  0.38262  0.84765  0.40930  1.0000
  C   C931      1.0  0.38096  0.82802  0.38590  1.0000
  C   C932      1.0  0.37168  0.83919  0.40013  1.0000
  H   H1116     1.0  0.43828  0.80784  0.40983  1.0000
  H   H1117     1.0  0.43837  0.83151  0.41449  1.0000
  H   H1118     1.0  0.43535  0.86016  0.38729  1.0000
  H   H1119     1.0  0.41057  0.85186  0.41190  1.0000
  H   H1120     1.0  0.40747  0.81627  0.36977  1.0000
  H   H1121     1.0  0.32013  0.81246  0.51400  1.0000
  H   H1122     1.0  0.37235  0.82143  0.37886  1.0000
  H   H1123     1.0  0.35597  0.84128  0.40413  1.0000
  H   H1124     1.0  0.43960  0.82834  0.32270  1.0000
  C   C933      1.0  0.22141  0.77083  0.35062  1.0000
  H   H1125     1.0  0.12203  0.76597  0.35475  1.0000
  C   C934      1.0  0.21124  0.83230  0.32663  1.0000
  H   H1126     1.0  0.45890  0.81571  0.36771  1.0000
  H   H1127     1.0  0.31863  0.84284  0.62726  1.0000
  C   C935      1.0  0.33418  0.74263  0.55825  1.0000
  C   C936      1.0  0.48168  0.89673  0.43424  1.0000
  N   N63       1.0  0.14774  0.74711  0.34374  1.0000
  N   N64       1.0  0.43434  0.83052  0.38537  1.0000
  H   H1128     1.0  0.24442  0.77775  0.62014  1.0000
  C   C937      1.0  0.24742  0.76314  0.62899  1.0000
  H   H1129     1.0  0.18504  0.75108  0.40172  1.0000
  C   C938      1.0  0.13194  0.76397  0.34085  1.0000
  H   H1130     1.0  0.45904  0.81980  0.40023  1.0000
  C   C939      1.0  0.17133  0.76697  0.37765  1.0000
  H   H1131     1.0  0.48704  0.90732  0.39520  1.0000
  C   C940      1.0  0.24715  0.75834  0.40582  1.0000
  H   H1132     1.0  0.43785  0.82338  0.35666  1.0000
  H   H1133     1.0  0.37238  0.97200  0.54366  1.0000
  C   C941      1.0  0.26490  0.75786  0.39317  1.0000
  C   C942      1.0  0.44271  0.81743  0.37088  1.0000
  H   H1134     1.0  0.46682  0.92340  0.41897  1.0000
  H   H1135     1.0  0.36178  0.79958  0.51447  1.0000
  H   H1136     1.0  0.25779  0.74114  0.32699  1.0000
  H   H1137     1.0  0.36605  0.78350  0.49681  1.0000
  H   H1138     1.0  0.26184  0.76130  0.63360  1.0000
  N   N65       1.0  0.33821  0.78424  0.51576  1.0000
  C   C943      1.0  0.16183  0.76592  0.36255  1.0000
  H   H1139     1.0  0.34136  0.86988  0.63431  1.0000
  C   C944      1.0  0.22241  0.75926  0.32012  1.0000
  H   H1140     1.0  0.30971  0.79419  0.53136  1.0000
  C   C945      1.0  0.41038  0.87326  0.63011  1.0000
  C   C946      1.0  0.33746  0.87900  0.64594  1.0000
  H   H1141     1.0  0.30824  0.83542  0.33396  1.0000
  C   C947      1.0  0.32937  0.75786  0.54345  1.0000
  C   C948      1.0  0.32471  0.84609  0.61199  1.0000
  S   S252      1.0  0.46858  0.84697  0.33093  1.0000
  C   C949      1.0  0.36022  0.97303  0.55616  1.0000
  H   H1142     1.0  0.36714  0.96820  0.56943  1.0000
  C   C950      1.0  0.34140  0.90924  0.62521  1.0000
  H   H1143     1.0  0.37538  0.76760  0.52524  1.0000
  H   H1144     1.0  0.35878  0.76088  0.64822  1.0000
  C   C951      1.0  0.44502  0.89657  0.45882  1.0000
  C   C952      1.0  0.39868  0.86515  0.64657  1.0000
  S   S253      1.0  0.15831  0.76529  0.64323  1.0000
  H   H1145     1.0  0.32287  0.73552  0.56785  1.0000
  H   H1146     1.0  0.16829  0.76107  0.32170  1.0000
  Fe  Fe128     1.0  0.30158  0.74859  0.64550  1.0000
  S   S254      1.0  0.40098  0.98348  0.59079  1.0000
  C   C953      1.0  0.17751  0.75024  0.39014  1.0000
  H   H1147     1.0  0.20539  0.77453  0.35153  1.0000
  Fe  Fe129     1.0  0.41501  0.97726  0.61760  1.0000
  Fe  Fe130     1.0  0.33840  0.74209  0.61665  1.0000
  H   H1148     1.0  0.31606  0.77144  0.50842  1.0000
  H   H1149     1.0  0.34119  0.80177  0.63467  1.0000
  C   C954      1.0  0.34379  0.76773  0.53092  1.0000
  H   H1150     1.0  0.21502  0.75194  0.62756  1.0000
  H   H1151     1.0  0.42589  0.86807  0.62768  1.0000
  C   C955      1.0  0.36798  0.74569  0.54863  1.0000
  H   H1152     1.0  0.22471  0.76685  0.36573  1.0000
  H   H1153     1.0  0.12297  0.76229  0.33032  1.0000
  C   C956      1.0  0.34474  0.74192  0.33385  1.0000
  C   C957      1.0  0.25095  0.75327  0.33510  1.0000
  C   C958      1.0  0.36990  0.88754  0.63708  1.0000
  S   S255      1.0  0.48930  0.83932  0.41421  1.0000
  Fe  Fe131     1.0  0.38228  0.95699  0.64152  1.0000
  H   H1154     1.0  0.45811  0.86975  0.47412  1.0000
  S   S256      1.0  0.48915  0.87268  0.36323  1.0000
  C   C959      1.0  0.31670  0.78769  0.64811  1.0000
  C   C960      1.0  0.32878  0.97926  0.58738  1.0000
  H   H1155     1.0  0.38292  0.74118  0.55099  1.0000
  C   C961      1.0  0.23740  0.74247  0.40961  1.0000
  H   H1156     1.0  0.22382  0.74264  0.41964  1.0000
  H   H1157     1.0  0.38485  0.75694  0.64657  1.0000
  C   C962      1.0  0.42460  0.88478  0.32797  1.0000
  C   C963      1.0  0.18054  0.81715  0.31791  1.0000
  C   C964      1.0  0.35344  0.73664  0.56090  1.0000
  H   H1158     1.0  0.40185  0.88202  0.35266  1.0000
  C   C965      1.0  0.31379  0.98188  0.60313  1.0000
  C   C966      1.0  0.31829  0.82854  0.32309  1.0000
  C   C967      1.0  0.40643  0.88069  0.33745  1.0000
  H   H1159     1.0  0.38031  0.87159  0.33544  1.0000
  H   H1160     1.0  0.25958  0.81022  0.32072  1.0000
  H   H1161     1.0  0.28511  0.80830  0.32052  1.0000
  Fe  Fe132     1.0  0.15557  0.73559  0.63733  1.0000
  H   H1162     1.0  0.24183  0.73588  0.58787  1.0000
  H   H1163     1.0  0.20845  0.73652  0.35294  1.0000
  H   H1164     1.0  0.22809  0.73469  0.36595  1.0000
  H   H1165     1.0  0.22284  0.80978  0.69671  1.0000
  H   H1166     1.0  0.12668  0.76127  0.81558  1.0000
  C   C968      1.0  0.21249  0.78609  0.68957  1.0000
  H   H1167     1.0  0.15689  0.84498  0.82312  1.0000
  S   S257      1.0  0.17291  0.76747  0.97732  1.0000
  Fe  Fe133     1.0  0.17103  0.84161  0.76226  1.0000
  S   S258      1.0  0.20217  0.83345  0.76584  1.0000
  S   S259      1.0  0.15258  0.86683  0.77648  1.0000
  Fe  Fe134     1.0  0.17414  0.80913  0.73719  1.0000
  S   S260      1.0  0.20572  0.79938  0.73941  1.0000
  S   S261      1.0  0.15897  0.78930  0.72538  1.0000
  Fe  Fe135     1.0  0.19724  0.80285  0.77067  1.0000
  S   S262      1.0  0.21117  0.78061  0.79310  1.0000
  Fe  Fe136     1.0  0.20761  0.83099  0.73429  1.0000
  S   S263      1.0  0.23212  0.84263  0.71303  1.0000
  S   S264      1.0  0.16537  0.81076  0.76927  1.0000
  S   S265      1.0  0.17655  0.84095  0.72991  1.0000
  Fe  Fe137     1.0  0.34727  0.82733  0.68935  1.0000
  S   S266      1.0  0.37660  0.81377  0.69632  1.0000
  S   S267      1.0  0.34243  0.82864  0.65905  1.0000
  Fe  Fe138     1.0  0.33202  0.83615  0.72991  1.0000
  S   S268      1.0  0.36035  0.82396  0.74044  1.0000
  S   S269      1.0  0.30492  0.84580  0.74998  1.0000
  Fe  Fe139     1.0  0.37341  0.83934  0.71134  1.0000
  S   S270      1.0  0.39847  0.85585  0.70298  1.0000
  Fe  Fe140     1.0  0.36081  0.79973  0.72438  1.0000
  S   S271      1.0  0.36374  0.76773  0.73564  1.0000
  S   S272      1.0  0.34486  0.85382  0.70243  1.0000
  S   S273      1.0  0.33167  0.81094  0.71583  1.0000
  C   C969      1.0  0.32555  0.81363  0.65999  1.0000
  Fe  Fe141     1.0  0.14414  0.94293  0.88194  1.0000
  S   S274      1.0  0.17561  0.94210  0.86879  1.0000
  S   S275      1.0  0.13152  0.92062  0.90641  1.0000
  C   C970      1.0  0.22453  0.79995  0.68643  1.0000
  Fe  Fe142     1.0  0.16505  0.94457  0.84027  1.0000
  S   S276      1.0  0.18200  0.92325  0.82010  1.0000
  H   H1168     1.0  0.15534  0.81369  0.84535  1.0000
  S   S277      1.0  0.13379  0.94451  0.85357  1.0000
  C   C971      1.0  0.39106  0.88060  0.69485  1.0000
  C   C972      1.0  0.37335  0.89031  0.70330  1.0000
  H   H1169     1.0  0.25002  0.73884  0.66318  1.0000
  H   H1170     1.0  0.37057  0.86590  0.66350  1.0000
  C   C973      1.0  0.39639  0.91014  0.67217  1.0000
  C   C974      1.0  0.40278  0.89066  0.67955  1.0000
  H   H1171     1.0  0.36442  0.88273  0.71535  1.0000
  H   H1172     1.0  0.25740  0.77588  0.83909  1.0000
  H   H1173     1.0  0.41654  0.88320  0.67303  1.0000
  C   C975      1.0  0.16071  0.88154  0.78980  1.0000
  C   C976      1.0  0.18005  0.87881  0.79258  1.0000
  C   C977      1.0  0.18618  0.89158  0.80204  1.0000
  C   C978      1.0  0.17309  0.90715  0.80909  1.0000
  C   C979      1.0  0.15363  0.90956  0.80685  1.0000
  C   C980      1.0  0.14753  0.89690  0.79718  1.0000
  H   H1174     1.0  0.19040  0.86698  0.78734  1.0000
  H   H1175     1.0  0.20123  0.88939  0.80385  1.0000
  H   H1176     1.0  0.14334  0.92142  0.81221  1.0000
  H   H1177     1.0  0.13252  0.89916  0.79521  1.0000
  C   C981      1.0  0.25225  0.84370  0.72339  1.0000
  C   C982      1.0  0.27056  0.84357  0.71174  1.0000
  C   C983      1.0  0.28676  0.84442  0.71981  1.0000
  C   C984      1.0  0.28467  0.84551  0.73955  1.0000
  C   C985      1.0  0.26631  0.84615  0.75108  1.0000
  C   C986      1.0  0.25017  0.84519  0.74303  1.0000
  H   H1178     1.0  0.27225  0.84266  0.69647  1.0000
  H   H1179     1.0  0.30081  0.84448  0.71069  1.0000
  H   H1180     1.0  0.26451  0.84754  0.76623  1.0000
  H   H1181     1.0  0.23609  0.84624  0.75195  1.0000
  C   C987      1.0  0.14369  0.90350  0.92359  1.0000
  C   C988      1.0  0.13512  0.88737  0.93338  1.0000
  C   C989      1.0  0.14393  0.87370  0.94757  1.0000
  C   C990      1.0  0.16102  0.87645  0.95276  1.0000
  C   C991      1.0  0.16985  0.89233  0.94261  1.0000
  C   C992      1.0  0.16134  0.90571  0.92799  1.0000
  H   H1182     1.0  0.12157  0.88542  0.92994  1.0000
  H   H1183     1.0  0.13739  0.86116  0.95465  1.0000
  H   H1184     1.0  0.18316  0.89453  0.94639  1.0000
  H   H1185     1.0  0.16813  0.91804  0.92059  1.0000
  H   H1186     1.0  0.20492  0.76300  0.67935  1.0000
  H   H1187     1.0  0.25201  0.75621  0.80750  1.0000
  C   C993      1.0  0.16624  0.79412  0.68467  1.0000
  C   C994      1.0  0.36426  0.76201  0.76065  1.0000
  C   C995      1.0  0.37376  0.77236  0.76951  1.0000
  H   H1188     1.0  0.11352  0.77629  0.76586  1.0000
  H   H1189     1.0  0.21298  0.74103  0.91506  1.0000
  H   H1190     1.0  0.12354  0.94344  0.94745  1.0000
  H   H1191     1.0  0.38096  0.78399  0.76091  1.0000
  S   S278      1.0  0.28623  0.76903  0.66570  1.0000
  C   C996      1.0  0.16243  0.75720  0.83704  1.0000
  C   C997      1.0  0.15941  0.77627  0.82733  1.0000
  C   C998      1.0  0.17477  0.78395  0.81470  1.0000
  C   C999      1.0  0.19312  0.77255  0.81175  1.0000
  C   C1000     1.0  0.19656  0.75406  0.82274  1.0000
  H   H1192     1.0  0.40442  0.96609  0.71045  1.0000
  H   H1193     1.0  0.14510  0.78495  0.82924  1.0000
  H   H1194     1.0  0.17238  0.79865  0.80716  1.0000
  S   S279      1.0  0.36697  0.74600  0.82558  1.0000
  C   C1001     1.0  0.36734  0.90996  0.69646  1.0000
  H   H1195     1.0  0.25038  0.77379  0.77563  1.0000
  H   H1196     1.0  0.31579  0.80365  0.77044  1.0000
  C   C1002     1.0  0.09568  0.91246  0.97751  1.0000
  C   C1003     1.0  0.16335  0.75448  0.94684  1.0000
  H   H1197     1.0  0.30850  0.82952  0.79030  1.0000
  S   S280      1.0  0.14249  0.74659  0.84988  1.0000
  H   H1198     1.0  0.35343  0.91719  0.65586  1.0000
  H   H1199     1.0  0.39910  0.98050  0.68747  1.0000
  C   C1004     1.0  0.29711  0.79954  0.67656  1.0000
  C   C1005     1.0  0.30963  0.81287  0.67506  1.0000
  H   H1200     1.0  0.35039  0.78467  0.67989  1.0000
  C   C1006     1.0  0.23681  0.74019  0.65650  1.0000
  H   H1201     1.0  0.28483  0.79891  0.68826  1.0000
  H   H1202     1.0  0.30691  0.82259  0.68552  1.0000
  H   H1203     1.0  0.20685  0.87385  0.73061  1.0000
  H   H1204     1.0  0.10439  0.74957  0.78651  1.0000
  C   C1007     1.0  0.15248  0.76011  0.68376  1.0000
  C   C1008     1.0  0.15258  0.76588  0.70162  1.0000
  C   C1009     1.0  0.15958  0.78282  0.70224  1.0000
  H   H1205     1.0  0.20128  0.78522  0.70232  1.0000
  H   H1206     1.0  0.33982  0.86932  0.65983  1.0000
  H   H1207     1.0  0.34965  0.89496  0.67167  1.0000
  H   H1208     1.0  0.14696  0.75725  0.71506  1.0000
  H   H1209     1.0  0.08991  0.93679  0.95485  1.0000
  S   S281      1.0  0.36988  0.94405  0.67174  1.0000
  H   H1210     1.0  0.16266  0.87292  0.83466  1.0000
  H   H1211     1.0  0.13537  0.76316  0.75406  1.0000
  C   C1010     1.0  0.21121  0.90443  0.74642  1.0000
  H   H1212     1.0  0.31827  0.77231  0.74146  1.0000
  H   H1213     1.0  0.19100  0.89374  0.86387  1.0000
  C   C1011     1.0  0.43923  0.97156  0.68575  1.0000
  H   H1214     1.0  0.18715  0.88455  0.84376  1.0000
  H   H1215     1.0  0.23658  0.74356  0.85492  1.0000
  C   C1012     1.0  0.28902  0.78787  0.74427  1.0000
  N   N66       1.0  0.13215  0.75817  0.78538  1.0000
  C   C1013     1.0  0.11956  0.74314  0.78860  1.0000
  H   H1216     1.0  0.21518  0.90223  0.70771  1.0000
  H   H1217     1.0  0.16513  0.83810  0.89187  1.0000
  N   N67       1.0  0.27531  0.74016  0.78966  1.0000
  H   H1218     1.0  0.37073  0.77983  0.65048  1.0000
  C   C1014     1.0  0.31515  0.81915  0.80199  1.0000
  H   H1219     1.0  0.16876  0.76693  0.93770  1.0000
  H   H1220     1.0  0.17726  0.93026  0.74061  1.0000
  H   H1221     1.0  0.16027  0.74171  0.92259  1.0000
  H   H1222     1.0  0.40512  0.85380  0.65712  1.0000
  C   C1015     1.0  0.15900  0.77146  0.66619  1.0000
  N   N68       1.0  0.36864  0.75730  0.67571  1.0000
  H   H1223     1.0  0.19933  0.75407  0.76355  1.0000
  H   H1224     1.0  0.28757  0.74952  0.81082  1.0000
  H   H1225     1.0  0.38225  0.77505  0.79617  1.0000
  H   H1226     1.0  0.21081  0.74529  0.82075  1.0000
  H   H1227     1.0  0.32951  0.91089  0.66264  1.0000
  H   H1228     1.0  0.19338  0.92280  0.76708  1.0000
  C   C1016     1.0  0.24127  0.78856  0.65670  1.0000
  H   H1229     1.0  0.29242  0.79974  0.73276  1.0000
  C   C1017     1.0  0.18765  0.74782  0.77344  1.0000
  H   H1230     1.0  0.20493  0.92622  0.71264  1.0000
  C   C1018     1.0  0.15272  0.74914  0.78583  1.0000
  N   N69       1.0  0.42509  0.95906  0.68519  1.0000
  C   C1019     1.0  0.40503  0.96585  0.69475  1.0000
  H   H1231     1.0  0.22491  0.73600  0.66832  1.0000
  H   H1232     1.0  0.42077  0.92939  0.69514  1.0000
  H   H1233     1.0  0.43265  0.93898  0.71038  1.0000
  C   C1020     1.0  0.42418  0.95843  0.66470  1.0000
  H   H1234     1.0  0.20131  0.75745  0.65008  1.0000
  H   H1235     1.0  0.11022  0.77733  0.80128  1.0000
  N   N70       1.0  0.31314  0.79888  0.80190  1.0000
  C   C1021     1.0  0.32223  0.79378  0.78253  1.0000
  H   H1236     1.0  0.17110  0.90901  0.75750  1.0000
  C   C1022     1.0  0.32442  0.78612  0.81642  1.0000
  C   C1023     1.0  0.29226  0.79721  0.80582  1.0000
  C   C1024     1.0  0.27973  0.80790  0.79280  1.0000
  C   C1025     1.0  0.28359  0.78563  0.82271  1.0000
  C   C1026     1.0  0.25986  0.80703  0.79638  1.0000
  C   C1027     1.0  0.26369  0.78485  0.82613  1.0000
  C   C1028     1.0  0.25186  0.79550  0.81300  1.0000
  H   H1237     1.0  0.32090  0.77873  0.78171  1.0000
  C   C1029     1.0  0.16586  0.78851  0.66678  1.0000
  H   H1238     1.0  0.34848  0.76653  0.70066  1.0000
  C   C1030     1.0  0.10065  0.92797  0.96318  1.0000
  H   H1239     1.0  0.30800  0.82382  0.81608  1.0000
  H   H1240     1.0  0.07775  0.97150  0.83423  1.0000
  H   H1241     1.0  0.32381  0.77055  0.81696  1.0000
  H   H1242     1.0  0.34012  0.78746  0.81291  1.0000
  H   H1243     1.0  0.31923  0.78983  0.83125  1.0000
  H   H1244     1.0  0.28523  0.81715  0.77976  1.0000
  H   H1245     1.0  0.29180  0.77697  0.83357  1.0000
  H   H1246     1.0  0.25061  0.81529  0.78617  1.0000
  C   C1031     1.0  0.30082  0.78674  0.66321  1.0000
  H   H1247     1.0  0.23644  0.79479  0.81567  1.0000
  H   H1248     1.0  0.18981  0.87642  0.75247  1.0000
  C   C1032     1.0  0.29899  0.75706  0.76393  1.0000
  C   C1033     1.0  0.37450  0.76727  0.78945  1.0000
  H   H1249     1.0  0.46377  0.95506  0.66903  1.0000
  C   C1034     1.0  0.21472  0.77341  0.67630  1.0000
  H   H1250     1.0  0.40522  0.91759  0.65998  1.0000
  H   H1251     1.0  0.16613  0.76906  0.76169  1.0000
  S   S282      1.0  0.16163  0.97732  0.83473  1.0000
  C   C1035     1.0  0.23892  0.80114  0.67009  1.0000
  H   H1252     1.0  0.15931  0.81077  0.87958  1.0000
  H   H1253     1.0  0.39920  0.75308  0.67657  1.0000
  C   C1036     1.0  0.26540  0.77271  0.76881  1.0000
  C   C1037     1.0  0.45884  0.96732  0.67658  1.0000
  H   H1254     1.0  0.19971  0.86862  0.86171  1.0000
  H   H1255     1.0  0.35367  0.91742  0.70317  1.0000
  H   H1256     1.0  0.33747  0.76526  0.68040  1.0000
  C   C1038     1.0  0.38533  0.76179  0.68256  1.0000
  H   H1257     1.0  0.43795  0.95113  0.65693  1.0000
  C   C1039     1.0  0.30349  0.77243  0.74920  1.0000
  C   C1040     1.0  0.35549  0.74208  0.79187  1.0000
  H   H1258     1.0  0.33796  0.79484  0.77929  1.0000
  C   C1041     1.0  0.37865  0.91981  0.68067  1.0000
  H   H1259     1.0  0.33068  0.82097  0.79954  1.0000
  C   C1042     1.0  0.37089  0.76391  0.65434  1.0000
  S   S283      1.0  0.17131  0.86121  0.97240  1.0000
  H   H1260     1.0  0.38392  0.75865  0.69867  1.0000
  S   S284      1.0  0.13849  0.97537  0.88009  1.0000
  H   H1261     1.0  0.23433  0.88611  0.72997  1.0000
  H   H1262     1.0  0.19040  0.91146  0.70581  1.0000
  H   H1263     1.0  0.13468  0.78160  0.79904  1.0000
  H   H1264     1.0  0.17136  0.80737  0.68481  1.0000
  C   C1043     1.0  0.35520  0.74681  0.77182  1.0000
  H   H1265     1.0  0.18165  0.88172  0.72951  1.0000
  H   H1266     1.0  0.25877  0.79993  0.74993  1.0000
  C   C1044     1.0  0.23045  0.89457  0.74163  1.0000
  C   C1045     1.0  0.20756  0.91503  0.76209  1.0000
  C   C1046     1.0  0.24507  0.89525  0.75190  1.0000
  C   C1047     1.0  0.22225  0.91547  0.77236  1.0000
  C   C1048     1.0  0.24096  0.90562  0.76729  1.0000
  C   C1049     1.0  0.20190  0.91120  0.71448  1.0000
  C   C1050     1.0  0.34516  0.90495  0.65863  1.0000
  C   C1051     1.0  0.27981  0.75682  0.77439  1.0000
  C   C1052     1.0  0.17670  0.91457  0.74207  1.0000
  Fe  Fe143     1.0  0.13099  0.97694  0.85072  1.0000
  C   C1053     1.0  0.43133  0.93909  0.69503  1.0000
  H   H1267     1.0  0.14681  0.74718  0.68357  1.0000
  H   H1268     1.0  0.14851  0.92289  0.96551  1.0000
  S   S285      1.0  0.27800  0.73736  0.85457  1.0000
  C   C1054     1.0  0.06663  0.98399  0.83141  1.0000
  C   C1055     1.0  0.36542  0.75209  0.80069  1.0000
  H   H1269     1.0  0.25966  0.88756  0.74799  1.0000
  H   H1270     1.0  0.21894  0.92329  0.78458  1.0000
  H   H1271     1.0  0.25226  0.90592  0.77537  1.0000
  N   N71       1.0  0.16884  0.87556  0.87084  1.0000
  C   C1056     1.0  0.15316  0.89233  0.86746  1.0000
  C   C1057     1.0  0.17045  0.87229  0.89178  1.0000
  C   C1058     1.0  0.18748  0.88079  0.85959  1.0000
  C   C1059     1.0  0.16470  0.85852  0.86436  1.0000
  C   C1060     1.0  0.16210  0.85964  0.84488  1.0000
  C   C1061     1.0  0.16353  0.84039  0.87678  1.0000
  C   C1062     1.0  0.15878  0.84367  0.83813  1.0000
  C   C1063     1.0  0.16016  0.82448  0.86989  1.0000
  C   C1064     1.0  0.15787  0.82609  0.85061  1.0000
  H   H1272     1.0  0.13872  0.88885  0.87509  1.0000
  H   H1273     1.0  0.15550  0.90512  0.87294  1.0000
  H   H1274     1.0  0.15231  0.89732  0.85180  1.0000
  H   H1275     1.0  0.17348  0.88542  0.89610  1.0000
  H   H1276     1.0  0.18257  0.86047  0.89537  1.0000
  H   H1277     1.0  0.15668  0.86887  0.90118  1.0000
  H   H1278     1.0  0.38668  0.77737  0.67814  1.0000
  C   C1065     1.0  0.36788  0.73633  0.68159  1.0000
  H   H1279     1.0  0.16552  0.91333  0.73362  1.0000
  C   C1066     1.0  0.27003  0.78796  0.75398  1.0000
  H   H1280     1.0  0.41256  0.95050  0.66363  1.0000
  Fe  Fe144     1.0  0.16939  0.97497  0.86427  1.0000
  H   H1281     1.0  0.10897  0.86640  0.97885  1.0000
  C   C1067     1.0  0.18116  0.74635  0.83536  1.0000
  N   N72       1.0  0.19600  0.90343  0.73530  1.0000
  C   C1068     1.0  0.16158  0.75259  0.96717  1.0000
  H   H1282     1.0  0.31064  0.74525  0.76688  1.0000
  C   C1069     1.0  0.35048  0.76884  0.68456  1.0000
  C   C1070     1.0  0.12560  0.77011  0.80098  1.0000
  C   C1071     1.0  0.16836  0.75641  0.77257  1.0000
  C   C1072     1.0  0.19354  0.88300  0.73701  1.0000
  H   H1283     1.0  0.13581  0.78419  0.76439  1.0000
  H   H1284     1.0  0.39479  0.95613  0.69403  1.0000
  C   C1073     1.0  0.12916  0.77089  0.76662  1.0000
  C   C1074     1.0  0.22927  0.77417  0.65947  1.0000
  H   H1285     1.0  0.17076  0.79755  0.65331  1.0000
  C   C1075     1.0  0.37878  0.87221  0.65011  1.0000
  H   H1286     1.0  0.34806  0.73861  0.76495  1.0000
  H   H1287     1.0  0.24859  0.81163  0.66799  1.0000
  C   C1076     1.0  0.11959  0.93182  0.95902  1.0000
  H   H1288     1.0  0.44560  0.93228  0.68772  1.0000
  C   C1077     1.0  0.15887  0.74002  0.93821  1.0000
  H   H1289     1.0  0.42125  0.97332  0.65642  1.0000
  H   H1290     1.0  0.48714  0.97589  0.66896  1.0000
  H   H1291     1.0  0.36170  0.73702  0.71281  1.0000
  C   C1078     1.0  0.25511  0.74305  0.80051  1.0000
  H   H1292     1.0  0.24411  0.74441  0.79097  1.0000
  C   C1079     1.0  0.13364  0.92023  0.96920  1.0000
  C   C1080     1.0  0.28860  0.73646  0.80413  1.0000
  H   H1293     1.0  0.11817  0.73500  0.80370  1.0000
  C   C1081     1.0  0.15516  0.73605  0.97871  1.0000
  S   S286      1.0  0.32707  0.73540  0.86954  1.0000
  C   C1082     1.0  0.47238  0.97911  0.67649  1.0000
  H   H1294     1.0  0.08086  0.91007  0.97967  1.0000
  H   H1295     1.0  0.78161  0.21928  0.09958  1.0000
  C   C1083     1.0  0.90780  0.99307  0.04094  1.0000
  H   H1296     1.0  0.80970  0.03230  0.21578  1.0000
  H   H1297     1.0  0.63750  0.22005  0.30259  1.0000
  S   S287      1.0  0.62585  0.11192  0.29263  1.0000
  Fe  Fe145     1.0  0.67917  0.11211  0.26703  1.0000
  S   S288      1.0  0.65679  0.10622  0.25178  1.0000
  S   S289      1.0  0.70915  0.11715  0.25269  1.0000
  Fe  Fe146     1.0  0.63747  0.13058  0.26520  1.0000
  S   S290      1.0  0.61735  0.15441  0.24994  1.0000
  Fe  Fe147     1.0  0.64697  0.08783  0.28025  1.0000
  S   S291      1.0  0.63994  0.05797  0.28269  1.0000
  S   S292      1.0  0.66055  0.13795  0.27829  1.0000
  S   S293      1.0  0.67137  0.09116  0.29405  1.0000
  Fe  Fe148     1.0  0.83931  0.07722  0.26125  1.0000
  S   S294      1.0  0.80915  0.09046  0.25623  1.0000
  S   S295      1.0  0.85844  0.05718  0.24095  1.0000
  Fe  Fe149     1.0  0.83604  0.09897  0.29612  1.0000
  S   S296      1.0  0.80566  0.11347  0.29304  1.0000
  H   H1298     1.0  0.83271  0.02552  0.14831  1.0000
  Fe  Fe150     1.0  0.80109  0.08474  0.28860  1.0000
  H   H1299     1.0  0.86183  0.01924  0.01951  1.0000
  Fe  Fe151     1.0  0.81661  0.11797  0.26111  1.0000
  S   S297      1.0  0.80397  0.14581  0.24389  1.0000
  S   S298      1.0  0.83067  0.06937  0.29372  1.0000
  S   S299      1.0  0.84768  0.10555  0.26400  1.0000
  Fe  Fe152     1.0  0.85231  0.12632  0.02235  1.0000
  S   S300      1.0  0.87010  0.09639  0.02291  1.0000
  S   S301      1.0  0.85371  0.13736  0.05030  1.0000
  H   H1300     1.0  0.79525  0.20659  0.08074  1.0000
  C   C1084     1.0  0.57308  0.06454  0.31334  1.0000
  Fe  Fe153     1.0  0.84357  0.08710  0.01818  1.0000
  S   S302      1.0  0.83232  0.06053  0.03710  1.0000
  H   H1301     1.0  0.65216  0.18330  0.23303  1.0000
  S   S303      1.0  0.82517  0.11664  0.01862  1.0000
  C   C1085     1.0  0.77706  0.17595  0.08947  1.0000
  Fe  Fe154     1.0  0.84562  0.20693  0.15659  1.0000
  C   C1086     1.0  0.63022  0.19120  0.31560  1.0000
  S   S304      1.0  0.86263  0.18396  0.17580  1.0000
  Fe  Fe155     1.0  0.64978  0.21469  0.15451  1.0000
  Fe  Fe156     1.0  0.83382  0.22080  0.11690  1.0000
  S   S305      1.0  0.83201  0.21581  0.08649  1.0000
  H   H1302     1.0  0.80668  0.05374  0.14424  1.0000
  S   S306      1.0  0.82159  0.20129  0.14334  1.0000
  C   C1087     1.0  0.69616  0.19542  0.21170  1.0000
  N   N73       1.0  0.89481  0.03236  0.99831  1.0000
  H   H1303     1.0  0.81982  0.05204  0.23595  1.0000
  S   S307      1.0  0.64499  0.18375  0.16058  1.0000
  S   S308      1.0  0.82805  0.23223  0.16970  1.0000
  H   H1304     1.0  0.69637  0.19307  0.19664  1.0000
  H   H1305     1.0  0.82771  0.11228  0.21746  1.0000
  H   H1306     1.0  0.58250  0.07744  0.24079  1.0000
  C   C1088     1.0  0.67829  0.20554  0.25134  1.0000
  H   H1307     1.0  0.90347  0.23411  0.24836  1.0000
  H   H1308     1.0  0.85668  0.13867  0.30127  1.0000
  C   C1089     1.0  0.84863  0.15974  0.05938  1.0000
  C   C1090     1.0  0.85212  0.15969  0.07820  1.0000
  C   C1091     1.0  0.84741  0.17672  0.08659  1.0000
  C   C1092     1.0  0.83928  0.19415  0.07618  1.0000
  C   C1093     1.0  0.83602  0.19429  0.05725  1.0000
  C   C1094     1.0  0.84061  0.17720  0.04890  1.0000
  H   H1309     1.0  0.85866  0.14643  0.08636  1.0000
  H   H1310     1.0  0.85017  0.17638  0.10108  1.0000
  H   H1311     1.0  0.82978  0.20768  0.04902  1.0000
  H   H1312     1.0  0.83786  0.17755  0.03441  1.0000
  H   H1313     1.0  0.80849  0.17172  0.08043  1.0000
  C   C1095     1.0  0.87508  0.01184  0.02469  1.0000
  H   H1314     1.0  0.70345  0.15746  0.22484  1.0000
  H   H1315     1.0  0.59277  0.12581  0.24085  1.0000
  H   H1316     1.0  0.86686  0.16620  0.31119  1.0000
  C   C1096     1.0  0.82058  0.15708  0.22589  1.0000
  C   C1097     1.0  0.81356  0.17163  0.21152  1.0000
  C   C1098     1.0  0.82651  0.18019  0.19637  1.0000
  C   C1099     1.0  0.84654  0.17423  0.19553  1.0000
  C   C1100     1.0  0.85361  0.16006  0.21020  1.0000
  C   C1101     1.0  0.84060  0.15151  0.22543  1.0000
  H   H1317     1.0  0.79809  0.17602  0.21184  1.0000
  H   H1318     1.0  0.82093  0.19120  0.18520  1.0000
  H   H1319     1.0  0.86911  0.15558  0.20969  1.0000
  H   H1320     1.0  0.84609  0.14066  0.23675  1.0000
  H   H1321     1.0  0.65798  0.20676  0.22210  1.0000
  C   C1102     1.0  0.62533  0.16234  0.22513  1.0000
  C   C1103     1.0  0.61734  0.18077  0.21641  1.0000
  C   C1104     1.0  0.62357  0.18752  0.19669  1.0000
  C   C1105     1.0  0.63742  0.17566  0.18543  1.0000
  C   C1106     1.0  0.64530  0.15715  0.19411  1.0000
  C   C1107     1.0  0.63949  0.15061  0.21399  1.0000
  H   H1322     1.0  0.60637  0.18991  0.22493  1.0000
  H   H1323     1.0  0.61726  0.20172  0.19005  1.0000
  H   H1324     1.0  0.65600  0.14792  0.18544  1.0000
  H   H1325     1.0  0.64569  0.13637  0.22051  1.0000
  S   S309      1.0  0.85929  0.22473  0.12954  1.0000
  C   C1108     1.0  0.72674  0.10529  0.26712  1.0000
  C   C1109     1.0  0.74434  0.11212  0.26441  1.0000
  C   C1110     1.0  0.75843  0.10297  0.27595  1.0000
  C   C1111     1.0  0.75516  0.08666  0.28995  1.0000
  C   C1112     1.0  0.73755  0.07986  0.29271  1.0000
  C   C1113     1.0  0.72341  0.08911  0.28124  1.0000
  H   H1326     1.0  0.74714  0.12436  0.25326  1.0000
  H   H1327     1.0  0.77188  0.10847  0.27387  1.0000
  C   C1114     1.0  0.63298  0.20717  0.30040  1.0000
  H   H1328     1.0  0.71037  0.08314  0.28278  1.0000
  C   C1115     1.0  0.86160  0.01621  0.08359  1.0000
  C   C1116     1.0  0.87219  0.02929  0.07034  1.0000
  C   C1117     1.0  0.86327  0.04331  0.05648  1.0000
  C   C1118     1.0  0.84376  0.04409  0.05534  1.0000
  C   C1119     1.0  0.83306  0.03124  0.06879  1.0000
  C   C1120     1.0  0.84186  0.01751  0.08301  1.0000
  H   H1329     1.0  0.88750  0.02831  0.07057  1.0000
  H   H1330     1.0  0.87164  0.05316  0.04641  1.0000
  H   H1331     1.0  0.81792  0.03176  0.06811  1.0000
  H   H1332     1.0  0.83354  0.00751  0.09305  1.0000
  C   C1121     1.0  0.83882  0.01972  0.20442  1.0000
  C   C1122     1.0  0.85854  0.01922  0.20461  1.0000
  C   C1123     1.0  0.86427  0.03066  0.21592  1.0000
  C   C1124     1.0  0.85042  0.04261  0.22735  1.0000
  C   C1125     1.0  0.83070  0.04304  0.22722  1.0000
  C   C1126     1.0  0.82499  0.03177  0.21576  1.0000
  H   H1333     1.0  0.86438  0.02512  0.12659  1.0000
  C   C1127     1.0  0.77892  0.14992  0.06339  1.0000
  H   H1334     1.0  0.86859  0.05055  0.00977  1.0000
  H   H1335     1.0  0.80980  0.14925  0.05837  1.0000
  Fe  Fe157     1.0  0.83596  0.12231  0.98615  1.0000
  H   H1336     1.0  0.73509  0.06708  0.30326  1.0000
  S   S310      1.0  0.67707  0.21789  0.16364  1.0000
  C   C1128     1.0  0.91505  0.03518  0.98967  1.0000
  H   H1337     1.0  0.79375  0.23121  0.20641  1.0000
  N   N74       1.0  0.77652  0.18997  0.10249  1.0000
  Fe  Fe158     1.0  0.65128  0.11663  0.30429  1.0000
  S   S311      1.0  0.87420  0.99757  0.09923  1.0000
  C   C1129     1.0  0.72084  0.22550  0.24376  1.0000
  C   C1130     1.0  0.79131  0.18270  0.11546  1.0000
  H   H1338     1.0  0.62935  0.02074  0.30006  1.0000
  N   N75       1.0  0.75173  0.18028  0.26774  1.0000
  C   C1131     1.0  0.77229  0.18190  0.26722  1.0000
  C   C1132     1.0  0.74149  0.18112  0.28795  1.0000
  C   C1133     1.0  0.75100  0.16097  0.26335  1.0000
  C   C1134     1.0  0.74339  0.19576  0.25307  1.0000
  C   C1135     1.0  0.72784  0.21078  0.25805  1.0000
  C   C1136     1.0  0.75131  0.19645  0.23304  1.0000
  C   C1137     1.0  0.62434  0.03039  0.31064  1.0000
  C   C1138     1.0  0.87649  0.23075  0.18819  1.0000
  C   C1139     1.0  0.87330  0.99766  0.04126  1.0000
  H   H1339     1.0  0.78121  0.18093  0.25264  1.0000
  H   H1340     1.0  0.77348  0.19596  0.27100  1.0000
  H   H1341     1.0  0.77940  0.16995  0.27742  1.0000
  H   H1342     1.0  0.72605  0.17932  0.28966  1.0000
  H   H1343     1.0  0.74204  0.19493  0.29266  1.0000
  H   H1344     1.0  0.74822  0.16927  0.29847  1.0000
  H   H1345     1.0  0.75620  0.14898  0.27470  1.0000
  H   H1346     1.0  0.73593  0.15954  0.26243  1.0000
  H   H1347     1.0  0.76048  0.15798  0.24949  1.0000
  H   H1348     1.0  0.72083  0.21158  0.27287  1.0000
  H   H1349     1.0  0.76327  0.18563  0.22817  1.0000
  C   C1140     1.0  0.87666  0.22146  0.20730  1.0000
  S   S312      1.0  0.85185  0.09191  0.98548  1.0000
  H   H1350     1.0  0.74584  0.20214  0.10672  1.0000
  C   C1141     1.0  0.57671  0.09532  0.29260  1.0000
  H   H1351     1.0  0.89444  0.07973  0.14321  1.0000
  H   H1352     1.0  0.78980  0.19202  0.12669  1.0000
  S   S313      1.0  0.77455  0.23230  0.16908  1.0000
  C   C1142     1.0  0.58644  0.06553  0.27921  1.0000
  H   H1353     1.0  0.57214  0.12426  0.25970  1.0000
  S   S314      1.0  0.83059  0.00641  0.18972  1.0000
  H   H1354     1.0  0.69179  0.21129  0.21159  1.0000
  C   C1143     1.0  0.88420  0.05100  0.00385  1.0000
  H   H1355     1.0  0.61724  0.09872  0.23578  1.0000
  H   H1356     1.0  0.83943  0.13537  0.19192  1.0000
  H   H1357     1.0  0.69471  0.16222  0.29008  1.0000
  N   N76       1.0  0.59069  0.09679  0.25651  1.0000
  H   H1358     1.0  0.82026  0.10151  0.20009  1.0000
  C   C1144     1.0  0.66272  0.19100  0.22205  1.0000
  C   C1145     1.0  0.68427  0.19279  0.28413  1.0000
  H   H1359     1.0  0.68759  0.11942  0.30669  1.0000
  H   H1360     1.0  0.83627  0.12481  0.17218  1.0000
  H   H1361     1.0  0.71127  0.19128  0.21481  1.0000
  H   H1362     1.0  0.56364  0.09689  0.24738  1.0000
  H   H1363     1.0  0.69526  0.15677  0.25754  1.0000
  H   H1364     1.0  0.88472  0.06286  0.99115  1.0000
  H   H1365     1.0  0.89073  0.05526  0.01500  1.0000
  H   H1366     1.0  0.67846  0.15423  0.23338  1.0000
  H   H1367     1.0  0.92396  0.02171  0.98503  1.0000
  C   C1146     1.0  0.58772  0.11812  0.25568  1.0000
  C   C1147     1.0  0.69025  0.17437  0.27919  1.0000
  H   H1368     1.0  0.57495  0.11080  0.29182  1.0000
  C   C1148     1.0  0.57955  0.09294  0.24253  1.0000
  H   H1369     1.0  0.87314  0.20692  0.21146  1.0000
  H   H1370     1.0  0.68422  0.19500  0.29878  1.0000
  H   H1371     1.0  0.68667  0.16190  0.20821  1.0000
  H   H1372     1.0  0.67416  0.22279  0.27401  1.0000
  H   H1373     1.0  0.67365  0.21809  0.24102  1.0000
  S   S315      1.0  0.68661  0.23210  0.30824  1.0000
  C   C1149     1.0  0.62429  0.19083  0.27737  1.0000
  Fe  Fe159     1.0  0.80535  0.22863  0.15362  1.0000
  C   C1150     1.0  0.72903  0.22576  0.22427  1.0000
  C   C1151     1.0  0.78091  0.20851  0.09046  1.0000
  H   H1374     1.0  0.85907  0.99446  0.04835  1.0000
  C   C1152     1.0  0.57112  0.08462  0.31089  1.0000
  H   H1375     1.0  0.86998  0.02803  0.98729  1.0000
  H   H1376     1.0  0.61677  0.16264  0.28861  1.0000
  C   C1153     1.0  0.74427  0.21128  0.21892  1.0000
  C   C1154     1.0  0.62773  0.04958  0.30587  1.0000
  N   N77       1.0  0.84498  0.08725  0.09238  1.0000
  C   C1155     1.0  0.86492  0.08571  0.08090  1.0000
  C   C1156     1.0  0.83118  0.08985  0.07860  1.0000
  C   C1157     1.0  0.84149  0.10492  0.10144  1.0000
  C   C1158     1.0  0.84195  0.07017  0.10759  1.0000
  C   C1159     1.0  0.85656  0.05360  0.11036  1.0000
  C   C1160     1.0  0.82382  0.06973  0.12020  1.0000
  C   C1161     1.0  0.85315  0.03777  0.12492  1.0000
  C   C1162     1.0  0.82062  0.05385  0.13476  1.0000
  C   C1163     1.0  0.83526  0.03789  0.13710  1.0000
  H   H1377     1.0  0.86822  0.07335  0.07278  1.0000
  H   H1378     1.0  0.86680  0.09885  0.06974  1.0000
  H   H1379     1.0  0.87609  0.08409  0.09029  1.0000
  H   H1380     1.0  0.81580  0.09314  0.08560  1.0000
  H   H1381     1.0  0.83267  0.07653  0.07221  1.0000
  H   H1382     1.0  0.83373  0.10192  0.06629  1.0000
  H   H1383     1.0  0.85122  0.10334  0.11231  1.0000
  H   H1384     1.0  0.84418  0.11790  0.09034  1.0000
  H   H1385     1.0  0.82627  0.10832  0.10884  1.0000
  H   H1386     1.0  0.87067  0.05224  0.10128  1.0000
  H   H1387     1.0  0.81190  0.08161  0.11876  1.0000
  H   H1388     1.0  0.77967  0.14007  0.05334  1.0000
  H   H1389     1.0  0.61508  0.07474  0.24833  1.0000
  H   H1390     1.0  0.66125  0.18862  0.20744  1.0000
  H   H1391     1.0  0.87956  0.03018  0.21585  1.0000
  C   C1164     1.0  0.68813  0.16355  0.22308  1.0000
  H   H1392     1.0  0.75088  0.21167  0.20376  1.0000
  H   H1393     1.0  0.59622  0.12213  0.26539  1.0000
  C   C1165     1.0  0.75735  0.19390  0.11514  1.0000
  H   H1394     1.0  0.87921  0.10894  0.19631  1.0000
  H   H1395     1.0  0.74781  0.15393  0.07065  1.0000
  C   C1166     1.0  0.89342  0.01696  0.01559  1.0000
  C   C1167     1.0  0.84806  0.07420  0.18155  1.0000
  C   C1168     1.0  0.79499  0.16787  0.07907  1.0000
  H   H1396     1.0  0.86940  0.01011  0.19596  1.0000
  H   H1397     1.0  0.62027  0.09191  0.26078  1.0000
  C   C1169     1.0  0.79588  0.15502  0.06630  1.0000
  H   H1398     1.0  0.75778  0.20294  0.12606  1.0000
  S   S316      1.0  0.77340  0.07424  0.30330  1.0000
  C   C1170     1.0  0.88133  0.07837  0.15376  1.0000
  C   C1171     1.0  0.58072  0.05502  0.29754  1.0000
  H   H1399     1.0  0.87003  0.08947  0.21338  1.0000
  H   H1400     1.0  0.76979  0.21500  0.08100  1.0000
  S   S317      1.0  0.86211  0.13425  0.98988  1.0000
  H   H1401     1.0  0.86084  0.11412  0.21645  1.0000
  C   C1172     1.0  0.75997  0.17070  0.08591  1.0000
  C   C1173     1.0  0.86581  0.10435  0.20541  1.0000
  C   C1174     1.0  0.67853  0.20840  0.27017  1.0000
  H   H1402     1.0  0.83542  0.07137  0.19219  1.0000
  H   H1403     1.0  0.84825  0.04814  0.17048  1.0000
  H   H1404     1.0  0.87780  0.05170  0.14611  1.0000
  H   H1405     1.0  0.88210  0.10386  0.16465  1.0000
  N   N78       1.0  0.85051  0.10475  0.19383  1.0000
  C   C1175     1.0  0.85738  0.09034  0.18053  1.0000
  C   C1176     1.0  0.85531  0.06062  0.16907  1.0000
  H   H1406     1.0  0.83494  0.08692  0.21742  1.0000
  H   H1407     1.0  0.85971  0.12967  0.17384  1.0000
  C   C1177     1.0  0.83255  0.10116  0.20772  1.0000
  C   C1178     1.0  0.84636  0.12443  0.18240  1.0000
  C   C1179     1.0  0.90981  0.00712  0.02424  1.0000
  C   C1180     1.0  0.87417  0.09207  0.16614  1.0000
  C   C1181     1.0  0.87197  0.06261  0.15532  1.0000
  H   H1408     1.0  0.92429  0.01018  0.01859  1.0000
  H   H1409     1.0  0.74561  0.17652  0.09268  1.0000
  C   C1182     1.0  0.69035  0.17141  0.26033  1.0000
  H   H1410     1.0  0.59276  0.05739  0.26756  1.0000
  H   H1411     1.0  0.58333  0.10137  0.22777  1.0000
  Fe  Fe160     1.0  0.87744  0.10346  0.99030  1.0000
  H   H1412     1.0  0.62205  0.19060  0.26278  1.0000
  H   H1413     1.0  0.75262  0.18024  0.12346  1.0000
  C   C1183     1.0  0.76101  0.15776  0.07315  1.0000
  H   H1414     1.0  0.58273  0.03933  0.29965  1.0000
  C   C1184     1.0  0.58453  0.08604  0.27612  1.0000
  H   H1415     1.0  0.80642  0.18283  0.10753  1.0000
  N   N79       1.0  0.68281  0.18409  0.22610  1.0000
  C   C1185     1.0  0.61165  0.09026  0.25000  1.0000
  C   C1186     1.0  0.63007  0.20686  0.28158  1.0000
  C   C1187     1.0  0.62130  0.17507  0.29196  1.0000
  H   H1416     1.0  0.79009  0.16771  0.12309  1.0000
  C   C1188     1.0  0.68385  0.18686  0.24593  1.0000
  H   H1417     1.0  0.87288  0.22347  0.17768  1.0000
  H   H1418     1.0  0.63234  0.21912  0.27016  1.0000
  C   C1189     1.0  0.67682  0.01794  0.31068  1.0000
  H   H1419     1.0  0.73392  0.23158  0.17817  1.0000
  H   H1420     1.0  0.71887  0.12940  0.30660  1.0000
  C   C1190     1.0  0.88154  0.23065  0.22091  1.0000
  C   C1191     1.0  0.62419  0.17518  0.31078  1.0000
  H   H1421     1.0  0.88146  0.22253  0.23542  1.0000
  H   H1422     1.0  0.67149  0.00560  0.30715  1.0000
  C   C1192     1.0  0.88960  0.98837  0.04943  1.0000
  H   H1423     1.0  0.69026  0.02047  0.30017  1.0000
  H   H1424     1.0  0.92222  0.04009  0.99997  1.0000
  H   H1425     1.0  0.66574  0.03100  0.30778  1.0000
  S   S318      1.0  0.65549  0.23356  0.12523  1.0000
  H   H1426     1.0  0.92035  0.98600  0.04763  1.0000
  C   C1193     1.0  0.88589  0.02780  0.98293  1.0000
  C   C1194     1.0  0.73784  0.23445  0.16254  1.0000
  C   C1195     1.0  0.70626  0.03132  0.33736  1.0000
  S   S319      1.0  0.59329  0.02907  0.36496  1.0000
  C   C1196     1.0  0.78029  0.08785  0.36482  1.0000
  Fe  Fe161     1.0  0.65517  0.06373  0.50016  1.0000
  S   S320      1.0  0.63826  0.09284  0.48981  1.0000
  S   S321      1.0  0.66311  0.03864  0.48280  1.0000
  Fe  Fe162     1.0  0.66638  0.07810  0.53429  1.0000
  S   S322      1.0  0.65043  0.10796  0.52589  1.0000
  S   S323      1.0  0.67738  0.07219  0.56332  1.0000
  Fe  Fe163     1.0  0.62670  0.09342  0.52178  1.0000
  S   S324      1.0  0.59620  0.10698  0.53419  1.0000
  Fe  Fe164     1.0  0.66334  0.10478  0.49505  1.0000
  S   S325      1.0  0.67897  0.12850  0.47654  1.0000
  S   S326      1.0  0.64177  0.06350  0.53175  1.0000
  S   S327      1.0  0.68115  0.07580  0.50368  1.0000
  Fe  Fe165     1.0  0.86802  0.20356  0.41146  1.0000
  H   H1427     1.0  0.77403  0.14048  0.34494  1.0000
  C   C1197     1.0  0.65065  0.09455  0.40248  1.0000
  Fe  Fe166     1.0  0.86126  0.18640  0.37638  1.0000
  S   S328      1.0  0.82993  0.19972  0.38030  1.0000
  S   S329      1.0  0.87119  0.17397  0.34812  1.0000
  N   N80       1.0  0.62235  0.05598  0.39807  1.0000
  H   H1428     1.0  0.62745  0.03925  0.37491  1.0000
  Fe  Fe167     1.0  0.83028  0.18950  0.41210  1.0000
  S   S330      1.0  0.80420  0.17604  0.42725  1.0000
  H   H1429     1.0  0.81166  0.10518  0.35748  1.0000
  S   S331      1.0  0.86141  0.17448  0.40825  1.0000
  Fe  Fe168     1.0  0.71947  0.17527  0.34675  1.0000
  S   S332      1.0  0.68836  0.18652  0.34530  1.0000
  S   S333      1.0  0.73073  0.14868  0.33330  1.0000
  Fe  Fe169     1.0  0.72270  0.20781  0.36637  1.0000
  C   C1198     1.0  0.64608  0.19113  0.45986  1.0000
  Fe  Fe170     1.0  0.68589  0.19069  0.37604  1.0000
  S   S334      1.0  0.66046  0.17902  0.39623  1.0000
  S   S335      1.0  0.71691  0.17745  0.37806  1.0000
  H   H1430     1.0  0.80455  0.12661  0.42199  1.0000
  C   C1199     1.0  0.67394  0.04932  0.33518  1.0000
  Fe  Fe171     1.0  0.75947  0.09495  0.61366  1.0000
  S   S336      1.0  0.74242  0.12477  0.61423  1.0000
  S   S337      1.0  0.75576  0.07842  0.59058  1.0000
  Fe  Fe172     1.0  0.77089  0.13371  0.61366  1.0000
  S   S338      1.0  0.77753  0.16175  0.59525  1.0000
  S   S339      1.0  0.78849  0.10443  0.61111  1.0000
  S   S340      1.0  0.72844  0.20413  0.33502  1.0000
  H   H1431     1.0  0.66182  0.98647  0.53371  1.0000
  C   C1200     1.0  0.61724  0.01957  0.47000  1.0000
  S   S341      1.0  0.54829  0.06294  0.60947  1.0000
  C   C1201     1.0  0.63910  0.01525  0.55453  1.0000
  C   C1202     1.0  0.76243  0.21036  0.61976  1.0000
  C   C1203     1.0  0.77099  0.19748  0.60664  1.0000
  C   C1204     1.0  0.76513  0.17941  0.60926  1.0000
  C   C1205     1.0  0.75014  0.17469  0.62431  1.0000
  H   H1432     1.0  0.65330  0.99765  0.43864  1.0000
  C   C1206     1.0  0.64768  0.07274  0.43304  1.0000
  H   H1433     1.0  0.78237  0.20131  0.59481  1.0000
  H   H1434     1.0  0.74509  0.16107  0.62614  1.0000
  C   C1207     1.0  0.61395  0.08051  0.63187  1.0000
  H   H1435     1.0  0.75911  0.16096  0.35501  1.0000
  H   H1436     1.0  0.52833  0.06921  0.57171  1.0000
  H   H1437     1.0  0.80957  0.09281  0.38216  1.0000
  H   H1438     1.0  0.78358  0.19055  0.33588  1.0000
  C   C1208     1.0  0.86230  0.15441  0.32213  1.0000
  H   H1439     1.0  0.56911  0.05624  0.32762  1.0000
  H   H1440     1.0  0.63273  0.04939  0.43546  1.0000
  C   C1209     1.0  0.78530  0.18944  0.41526  1.0000
  C   C1210     1.0  0.78581  0.20893  0.40757  1.0000
  C   C1211     1.0  0.77238  0.21932  0.39586  1.0000
  H   H1441     1.0  0.50945  0.08847  0.56524  1.0000
  H   H1442     1.0  0.80012  0.06519  0.33721  1.0000
  H   H1443     1.0  0.77026  0.16376  0.33020  1.0000
  H   H1444     1.0  0.51565  0.08367  0.58943  1.0000
  S   S342      1.0  0.69127  0.22154  0.36671  1.0000
  C   C1212     1.0  0.74810  0.20507  0.63544  1.0000
  C   C1213     1.0  0.58361  0.09494  0.55582  1.0000
  C   C1214     1.0  0.58875  0.07505  0.56197  1.0000
  C   C1215     1.0  0.57785  0.06561  0.57856  1.0000
  C   C1216     1.0  0.56201  0.07597  0.58945  1.0000
  C   C1217     1.0  0.55703  0.09594  0.58357  1.0000
  C   C1218     1.0  0.56768  0.10533  0.56668  1.0000
  H   H1445     1.0  0.60080  0.06683  0.55366  1.0000
  H   H1446     1.0  0.58162  0.05014  0.58289  1.0000
  H   H1447     1.0  0.54483  0.10408  0.59182  1.0000
  H   H1448     1.0  0.56358  0.12071  0.56203  1.0000
  C   C1219     1.0  0.69904  0.07656  0.56935  1.0000
  C   C1220     1.0  0.71703  0.07349  0.55723  1.0000
  C   C1221     1.0  0.73422  0.07453  0.56376  1.0000
  C   C1222     1.0  0.73361  0.07910  0.58226  1.0000
  C   C1223     1.0  0.71554  0.08305  0.59400  1.0000
  C   C1224     1.0  0.69842  0.08147  0.58770  1.0000
  H   H1449     1.0  0.71781  0.06951  0.54317  1.0000
  H   H1450     1.0  0.74811  0.07141  0.55458  1.0000
  H   H1451     1.0  0.71483  0.08645  0.60831  1.0000
  H   H1452     1.0  0.68464  0.08369  0.59728  1.0000
  C   C1225     1.0  0.67420  0.14094  0.45346  1.0000
  C   C1226     1.0  0.68662  0.15373  0.44288  1.0000
  C   C1227     1.0  0.68272  0.16504  0.42514  1.0000
  C   C1228     1.0  0.66617  0.16393  0.41792  1.0000
  C   C1229     1.0  0.65375  0.15104  0.42842  1.0000
  C   C1230     1.0  0.65787  0.13938  0.44604  1.0000
  H   H1453     1.0  0.69921  0.15510  0.44856  1.0000
  H   H1454     1.0  0.69224  0.17510  0.41737  1.0000
  H   H1455     1.0  0.64092  0.15009  0.42292  1.0000
  H   H1456     1.0  0.64825  0.12949  0.45399  1.0000
  S   S343      1.0  0.87116  0.21373  0.37913  1.0000
  S   S344      1.0  0.49363  0.08537  0.63267  1.0000
  H   H1457     1.0  0.70363  0.07837  0.34215  1.0000
  C   C1231     1.0  0.86255  0.15472  0.34181  1.0000
  H   H1458     1.0  0.63157  0.22178  0.33484  1.0000
  H   H1459     1.0  0.82017  0.16091  0.33711  1.0000
  S   S345      1.0  0.89088  0.21095  0.42630  1.0000
  H   H1460     1.0  0.66117  0.19070  0.45302  1.0000
  H   H1461     1.0  0.65036  0.04373  0.59095  1.0000
  C   C1232     1.0  0.71017  0.13797  0.33487  1.0000
  C   C1233     1.0  0.69554  0.13869  0.35119  1.0000
  C   C1234     1.0  0.67791  0.13263  0.35142  1.0000
  C   C1235     1.0  0.67471  0.12618  0.33518  1.0000
  H   H1462     1.0  0.61639  0.04048  0.59095  1.0000
  C   C1236     1.0  0.62406  0.02356  0.56781  1.0000
  H   H1463     1.0  0.69759  0.14441  0.36350  1.0000
  H   H1464     1.0  0.66648  0.13378  0.36386  1.0000
  H   H1465     1.0  0.62358  0.08304  0.61808  1.0000
  C   C1237     1.0  0.64831  0.02776  0.47208  1.0000
  C   C1238     1.0  0.65721  0.01628  0.45774  1.0000
  C   C1239     1.0  0.64620  0.00661  0.44946  1.0000
  C   C1240     1.0  0.62615  0.00797  0.45576  1.0000
  C   C1241     1.0  0.62818  0.02958  0.47797  1.0000
  H   H1466     1.0  0.67277  0.01471  0.45310  1.0000
  H   H1467     1.0  0.79964  0.06064  0.39057  1.0000
  C   C1242     1.0  0.60722  0.03639  0.34248  1.0000
  H   H1468     1.0  0.62169  0.16254  0.32154  1.0000
  C   C1243     1.0  0.64087  0.17676  0.47538  1.0000
  Fe  Fe173     1.0  0.83958  0.22586  0.38535  1.0000
  C   C1244     1.0  0.85149  0.12306  0.33040  1.0000
  C   C1245     1.0  0.61084  0.05545  0.33778  1.0000
  C   C1246     1.0  0.83576  0.21581  0.56333  1.0000
  H   H1469     1.0  0.62269  0.14718  0.52833  1.0000
  H   H1470     1.0  0.62110  0.03826  0.48903  1.0000
  H   H1471     1.0  0.60536  0.06532  0.34809  1.0000
  C   C1247     1.0  0.68895  0.99433  0.55062  1.0000
  H   H1472     1.0  0.70839  0.99690  0.32282  1.0000
  H   H1473     1.0  0.79333  0.04993  0.37231  1.0000
  H   H1474     1.0  0.65591  0.10721  0.39349  1.0000
  C   C1248     1.0  0.85696  0.13922  0.35576  1.0000
  C   C1249     1.0  0.77069  0.18056  0.41187  1.0000
  H   H1475     1.0  0.82058  0.16251  0.36818  1.0000
  H   H1476     1.0  0.63908  0.06006  0.36907  1.0000
  H   H1477     1.0  0.80415  0.16232  0.32049  1.0000
  H   H1478     1.0  0.77012  0.16555  0.41799  1.0000
  C   C1250     1.0  0.80183  0.13283  0.40741  1.0000
  C   C1251     1.0  0.63732  0.06188  0.42569  1.0000
  H   H1479     1.0  0.65069  0.06837  0.44780  1.0000
  C   C1252     1.0  0.67985  0.06586  0.33826  1.0000
  C   C1253     1.0  0.81448  0.14425  0.39518  1.0000
  C   C1254     1.0  0.78531  0.13021  0.40119  1.0000
  H   H1480     1.0  0.64853  0.03919  0.38526  1.0000
  S   S346      1.0  0.63149  0.99597  0.39077  1.0000
  H   H1481     1.0  0.65732  0.99734  0.34214  1.0000
  H   H1482     1.0  0.61516  0.19167  0.36402  1.0000
  H   H1483     1.0  0.60864  0.08066  0.37963  1.0000
  H   H1484     1.0  0.81057  0.13983  0.33604  1.0000
  H   H1485     1.0  0.69158  0.03207  0.53730  1.0000
  C   C1255     1.0  0.81059  0.15328  0.37679  1.0000
  C   C1256     1.0  0.70753  0.13023  0.31918  1.0000
  H   H1486     1.0  0.62801  0.02831  0.41656  1.0000
  H   H1487     1.0  0.82397  0.06756  0.34001  1.0000
  C   C1257     1.0  0.65427  0.08907  0.42150  1.0000
  N   N81       1.0  0.74827  0.14412  0.55347  1.0000
  C   C1258     1.0  0.75878  0.12596  0.56332  1.0000
  C   C1259     1.0  0.76303  0.15627  0.54302  1.0000
  C   C1260     1.0  0.73548  0.15475  0.56844  1.0000
  C   C1261     1.0  0.73631  0.13945  0.54071  1.0000
  C   C1262     1.0  0.72185  0.12759  0.54862  1.0000
  C   C1263     1.0  0.73843  0.14646  0.52038  1.0000
  C   C1264     1.0  0.71026  0.12308  0.53695  1.0000
  C   C1265     1.0  0.72677  0.14180  0.50884  1.0000
  C   C1266     1.0  0.71273  0.13014  0.51709  1.0000
  H   H1488     1.0  0.76763  0.11684  0.55267  1.0000
  H   H1489     1.0  0.76869  0.12883  0.57237  1.0000
  H   H1490     1.0  0.74874  0.11698  0.57330  1.0000
  H   H1491     1.0  0.77172  0.15938  0.55317  1.0000
  H   H1492     1.0  0.75616  0.17059  0.53590  1.0000
  H   H1493     1.0  0.77358  0.14886  0.53193  1.0000
  H   H1494     1.0  0.72501  0.14595  0.57812  1.0000
  H   H1495     1.0  0.74400  0.15888  0.57811  1.0000
  H   H1496     1.0  0.72694  0.16828  0.56164  1.0000
  H   H1497     1.0  0.71947  0.12155  0.56392  1.0000
  H   H1498     1.0  0.74903  0.15550  0.51298  1.0000
  H   H1499     1.0  0.69939  0.11390  0.54333  1.0000
  H   H1500     1.0  0.72864  0.14720  0.49334  1.0000
  H   H1501     1.0  0.70380  0.12650  0.50806  1.0000
  H   H1502     1.0  0.61148  0.00896  0.33265  1.0000
  C   C1267     1.0  0.78133  0.13908  0.38272  1.0000
  S   S347      1.0  0.61164  0.99505  0.44691  1.0000
  C   C1268     1.0  0.76927  0.09356  0.34944  1.0000
  H   H1503     1.0  0.59184  0.15030  0.52021  1.0000
  C   C1269     1.0  0.61560  0.03925  0.41198  1.0000
  H   H1504     1.0  0.61417  0.14318  0.47883  1.0000
  H   H1505     1.0  0.85639  0.22906  0.45069  1.0000
  H   H1506     1.0  0.60345  0.20484  0.34395  1.0000
  C   C1270     1.0  0.80846  0.07470  0.34179  1.0000
  C   C1271     1.0  0.61251  0.20616  0.46137  1.0000
  C   C1272     1.0  0.64035  0.08377  0.39496  1.0000
  H   H1507     1.0  0.59182  0.19285  0.48266  1.0000
  C   C1273     1.0  0.75733  0.19093  0.39985  1.0000
  H   H1508     1.0  0.59548  0.07540  0.40386  1.0000
  N   N82       1.0  0.63285  0.19106  0.33577  1.0000
  H   H1509     1.0  0.63605  0.21668  0.44055  1.0000
  H   H1510     1.0  0.79966  0.18724  0.35310  1.0000
  N   N83       1.0  0.80086  0.07829  0.36199  1.0000
  H   H1511     1.0  0.59022  0.17608  0.51484  1.0000
  C   C1274     1.0  0.75121  0.10071  0.38649  1.0000
  H   H1512     1.0  0.64980  0.02248  0.34211  1.0000
  H   H1513     1.0  0.59169  0.07362  0.61900  1.0000
  H   H1514     1.0  0.85748  0.13906  0.37089  1.0000
  C   C1275     1.0  0.64580  0.17306  0.34264  1.0000
  H   H1515     1.0  0.77817  0.08798  0.39582  1.0000
  C   C1276     1.0  0.68689  0.03142  0.33488  1.0000
  H   H1516     1.0  0.64433  0.20669  0.35293  1.0000
  H   H1517     1.0  0.77437  0.18673  0.36146  1.0000
  H   H1518     1.0  0.50770  0.05255  0.61215  1.0000
  H   H1519     1.0  0.63898  0.15991  0.34488  1.0000
  H   H1520     1.0  0.74411  0.10359  0.40083  1.0000
  C   C1277     1.0  0.66235  0.02708  0.56796  1.0000
  C   C1278     1.0  0.62810  0.03371  0.58096  1.0000
  H   H1521     1.0  0.69776  0.01890  0.51741  1.0000
  C   C1279     1.0  0.64721  0.03544  0.58104  1.0000
  H   H1522     1.0  0.72707  0.04785  0.34139  1.0000
  C   C1280     1.0  0.74980  0.10222  0.35267  1.0000
  C   C1281     1.0  0.61375  0.19164  0.34869  1.0000
  H   H1523     1.0  0.66418  0.00833  0.35976  1.0000
  C   C1282     1.0  0.81318  0.09062  0.36675  1.0000
  C   C1283     1.0  0.90378  0.23260  0.44788  1.0000
  S   S348      1.0  0.58721  0.98648  0.40765  1.0000
  H   H1524     1.0  0.77520  0.12182  0.41103  1.0000
  C   C1284     1.0  0.65878  0.01695  0.55408  1.0000
  C   C1285     1.0  0.75845  0.21026  0.39151  1.0000
  C   C1286     1.0  0.85165  0.12343  0.35007  1.0000
  Fe  Fe174     1.0  0.52541  0.07437  0.63362  1.0000
  H   H1525     1.0  0.52275  0.04120  0.59296  1.0000
  H   H1526     1.0  0.67553  0.03551  0.52004  1.0000
  C   C1287     1.0  0.64142  0.20776  0.33787  1.0000
  H   H1527     1.0  0.82698  0.14683  0.40032  1.0000
  H   H1528     1.0  0.84009  0.22786  0.52358  1.0000
  H   H1529     1.0  0.74172  0.10619  0.34064  1.0000
  H   H1530     1.0  0.76805  0.13684  0.37901  1.0000
  C   C1288     1.0  0.61429  0.02372  0.32906  1.0000
  S   S349      1.0  0.84529  0.10242  0.32411  1.0000
  H   H1531     1.0  0.85413  0.23223  0.34626  1.0000
  H   H1532     1.0  0.80809  0.08847  0.33128  1.0000
  H   H1533     1.0  0.87014  0.21693  0.53718  1.0000
  H   H1534     1.0  0.49921  0.03517  0.60221  1.0000
  H   H1535     1.0  0.60175  0.02068  0.47503  1.0000
  Fe  Fe175     1.0  0.60384  0.99887  0.37934  1.0000
  H   H1536     1.0  0.91812  0.22726  0.44059  1.0000
  S   S350      1.0  0.65156  0.12147  0.33439  1.0000
  H   H1537     1.0  0.69836  0.99269  0.34854  1.0000
  Fe  Fe176     1.0  0.69676  0.21582  0.33599  1.0000
  S   S351      1.0  0.83676  0.21727  0.41763  1.0000
  H   H1538     1.0  0.67686  0.02915  0.56850  1.0000
  C   C1289     1.0  0.74080  0.10592  0.37109  1.0000
  N   N84       1.0  0.79002  0.16106  0.35049  1.0000
  C   C1290     1.0  0.80691  0.15582  0.33543  1.0000
  C   C1291     1.0  0.77264  0.15629  0.34501  1.0000
  C   C1292     1.0  0.78681  0.18228  0.35016  1.0000
  C   C1293     1.0  0.79394  0.15093  0.36991  1.0000
  H   H1539     1.0  0.58592  0.16261  0.49735  1.0000
  C   C1294     1.0  0.63493  0.04834  0.38108  1.0000
  C   C1295     1.0  0.60712  0.19178  0.47688  1.0000
  H   H1540     1.0  0.66226  0.09745  0.42731  1.0000
  C   C1296     1.0  0.63324  0.06713  0.40639  1.0000
  H   H1541     1.0  0.74646  0.18388  0.39684  1.0000
  H   H1542     1.0  0.60700  0.03146  0.40549  1.0000
  H   H1543     1.0  0.61654  0.12971  0.50260  1.0000
  C   C1297     1.0  0.60490  0.06876  0.39161  1.0000
  H   H1544     1.0  0.60595  0.04380  0.42520  1.0000
  H   H1545     1.0  0.63804  0.08857  0.38008  1.0000
  C   C1298     1.0  0.62118  0.14211  0.49174  1.0000
  C   C1299     1.0  0.62707  0.15859  0.51596  1.0000
  C   C1300     1.0  0.59507  0.16261  0.50835  1.0000
  H   H1546     1.0  0.64299  0.15433  0.51147  1.0000
  H   H1547     1.0  0.62466  0.17249  0.52161  1.0000
  N   N85       1.0  0.67510  0.00880  0.53998  1.0000
  H   H1548     1.0  0.81824  0.05131  0.37247  1.0000
  C   C1301     1.0  0.71210  0.04809  0.34004  1.0000
  N   N86       1.0  0.61606  0.16038  0.49985  1.0000
  H   H1549     1.0  0.79677  0.21601  0.41047  1.0000
  H   H1550     1.0  0.59594  0.06057  0.38603  1.0000
  N   N87       1.0  0.49926  0.06348  0.58406  1.0000
  C   C1302     1.0  0.62122  0.17652  0.48429  1.0000
  H   H1551     1.0  0.84805  0.11128  0.36099  1.0000
  H   H1552     1.0  0.65239  0.16554  0.48004  1.0000
  H   H1553     1.0  0.72575  0.11291  0.37336  1.0000
  H   H1554     1.0  0.65929  0.05084  0.33240  1.0000
  C   C1303     1.0  0.63193  0.20575  0.45280  1.0000
  H   H1555     1.0  0.82226  0.19301  0.58261  1.0000
  H   H1556     1.0  0.60156  0.21758  0.45579  1.0000
  H   H1557     1.0  0.77526  0.09148  0.33471  1.0000
  C   C1304     1.0  0.69894  0.06531  0.34049  1.0000
  H   H1558     1.0  0.63710  0.13820  0.48714  1.0000
  C   C1305     1.0  0.80306  0.05926  0.37494  1.0000
  C   C1306     1.0  0.77067  0.09177  0.38346  1.0000
  C   C1307     1.0  0.68547  0.02445  0.52830  1.0000
  C   C1308     1.0  0.59604  0.07517  0.63232  1.0000
  H   H1559     1.0  0.68135  0.99366  0.51534  1.0000
  H   H1560     1.0  0.66977  0.07943  0.33822  1.0000
  C   C1309     1.0  0.69478  0.99614  0.33356  1.0000
  H   H1561     1.0  0.71728  0.01857  0.33695  1.0000
  C   C1310     1.0  0.82517  0.20769  0.58074  1.0000
  H   H1562     1.0  0.62428  0.07652  0.31633  1.0000
  H   H1563     1.0  0.78349  0.17141  0.64428  1.0000
  H   H1564     1.0  0.65946  0.17070  0.33201  1.0000
  N   N88       1.0  0.68042  0.01425  0.33099  1.0000
  C   C1311     1.0  0.74186  0.18732  0.63750  1.0000
  H   H1565     1.0  0.65862  0.00938  0.51740  1.0000
  H   H1566     1.0  0.82888  0.08420  0.36412  1.0000
  H   H1567     1.0  0.60912  0.02243  0.56769  1.0000
  H   H1568     1.0  0.80981  0.21220  0.60919  1.0000
  H   H1569     1.0  0.64980  0.17329  0.35697  1.0000
  C   C1312     1.0  0.66887  0.99911  0.52612  1.0000
  S   S352      1.0  0.75637  0.08689  0.64639  1.0000
  H   H1570     1.0  0.76699  0.22426  0.61779  1.0000
  H   H1571     1.0  0.87818  0.23205  0.55037  1.0000
  C   C1313     1.0  0.88749  0.22661  0.44385  1.0000
  C   C1314     1.0  0.51367  0.07688  0.57730  1.0000
  H   H1572     1.0  0.60693  0.17887  0.34880  1.0000
  H   H1573     1.0  0.63484  0.00791  0.54455  1.0000
  C   C1315     1.0  0.87023  0.23220  0.53834  1.0000
  C   C1316     1.0  0.50747  0.04743  0.59842  1.0000
  H   H1574     1.0  0.69578  0.00097  0.55988  1.0000
  C   C1317     1.0  0.66216  0.01059  0.34432  1.0000
  C   C1318     1.0  0.68972  0.12459  0.31924  1.0000
  H   H1575     1.0  0.84093  0.20688  0.55213  1.0000
  C   C1319     1.0  0.49713  0.05536  0.56711  1.0000
  H   H1576     1.0  0.51141  0.04835  0.55990  1.0000
  Fe  Fe177     1.0  0.78381  0.09937  0.64397  1.0000
  S   S353      1.0  0.74368  0.22321  0.37459  1.0000
  H   H1577     1.0  0.65553  0.20860  0.32793  1.0000
  H   H1578     1.0  0.56545  0.09190  0.32334  1.0000
  H   H1579     1.0  0.70105  0.98729  0.54049  1.0000
  C   C1320     1.0  0.62139  0.06190  0.31967  1.0000
  Fe  Fe178     1.0  0.74155  0.11778  0.64635  1.0000
  C   C1321     1.0  0.81813  0.21846  0.59574  1.0000
  S   S354      1.0  0.76856  0.12947  0.64601  1.0000
  H   H1580     1.0  0.63350  0.08696  0.64760  1.0000
  H   H1581     1.0  0.77305  0.23435  0.39000  1.0000
  C   C1322     1.0  0.86907  0.23357  0.45350  1.0000
  H   H1582     1.0  0.49071  0.06690  0.55611  1.0000
  C   C1323     1.0  0.85654  0.13881  0.31646  1.0000
  C   C1324     1.0  0.61948  0.08273  0.64904  1.0000
  Fe  Fe179     1.0  0.86272  0.12749  0.78307  1.0000
  S   S355      1.0  0.86790  0.09952  0.77174  1.0000
  S   S356      1.0  0.85420  0.12698  0.81520  1.0000
  Fe  Fe180     1.0  0.87438  0.15037  0.74329  1.0000
  S   S357      1.0  0.88164  0.12412  0.72878  1.0000
  S   S358      1.0  0.87338  0.18046  0.72642  1.0000
  Fe  Fe181     1.0  0.85348  0.11625  0.74641  1.0000
  S   S359      1.0  0.82563  0.11293  0.73663  1.0000
  Fe  Fe182     1.0  0.89539  0.11011  0.75549  1.0000
  S   S360      1.0  0.92496  0.09134  0.75605  1.0000
  S   S361      1.0  0.84591  0.14338  0.75972  1.0000
  S   S362      1.0  0.89055  0.13729  0.76801  1.0000
  H   H1583     1.0  0.88767  0.03861  0.96935  1.0000
  H   H1584     1.0  0.90344  0.11594  0.89212  1.0000
  H   H1585     1.0  0.63500  0.08929  0.69778  1.0000
  Fe  Fe183     1.0  0.49557  0.10406  0.65389  1.0000
  H   H1586     1.0  0.76968  0.09788  0.79041  1.0000
  S   S363      1.0  0.95139  0.12246  0.89148  1.0000
  H   H1587     1.0  0.79504  0.08848  0.78381  1.0000
  Fe  Fe184     1.0  0.71797  0.16320  0.88069  1.0000
  S   S364      1.0  0.71903  0.13087  0.88844  1.0000
  S   S365      1.0  0.69806  0.18795  0.89316  1.0000
  Fe  Fe185     1.0  0.75371  0.16018  0.85060  1.0000
  S   S366      1.0  0.75826  0.12784  0.85573  1.0000
  S   S367      1.0  0.77209  0.17809  0.82762  1.0000
  Fe  Fe186     1.0  0.72605  0.13120  0.85584  1.0000
  S   S368      1.0  0.71824  0.11619  0.83345  1.0000
  Fe  Fe187     1.0  0.75121  0.13017  0.88757  1.0000
  S   S369      1.0  0.76888  0.11138  0.91014  1.0000
  S   S370      1.0  0.72234  0.16350  0.84864  1.0000
  S   S371      1.0  0.74933  0.16228  0.88211  1.0000
  H   H1588     1.0  0.54754  0.16653  0.83016  1.0000
  H   H1589     1.0  0.78587  0.07465  0.70537  1.0000
  H   H1590     1.0  0.71334  0.21127  0.69064  1.0000
  H   H1591     1.0  0.83855  0.20397  0.67638  1.0000
  H   H1592     1.0  0.66711  0.16121  0.66680  1.0000
  S   S372      1.0  0.71551  0.13071  0.66565  1.0000
  Fe  Fe188     1.0  0.63087  0.10975  0.78301  1.0000
  S   S373      1.0  0.65383  0.11709  0.75775  1.0000
  S   S374      1.0  0.63560  0.11151  0.81341  1.0000
  Fe  Fe189     1.0  0.60085  0.10999  0.75609  1.0000
  S   S375      1.0  0.62189  0.11806  0.72926  1.0000
  S   S376      1.0  0.56957  0.11181  0.75181  1.0000
  Fe  Fe190     1.0  0.64352  0.09592  0.74417  1.0000
  S   S377      1.0  0.66422  0.07618  0.72567  1.0000
  Fe  Fe191     1.0  0.62999  0.13828  0.74544  1.0000
  S   S378      1.0  0.63318  0.16912  0.73356  1.0000
  S   S379      1.0  0.62214  0.08641  0.77052  1.0000
  S   S380      1.0  0.60734  0.13222  0.77125  1.0000
  Fe  Fe192     1.0  0.52031  0.07238  0.67761  1.0000
  N   N89       1.0  0.61211  0.08232  0.68571  1.0000
  S   S381      1.0  0.53851  0.06275  0.70196  1.0000
  C   C1325     1.0  0.58000  0.18319  0.78503  1.0000
  C   C1326     1.0  0.58896  0.07411  0.66716  1.0000
  C   C1327     1.0  0.80134  0.17924  0.87134  1.0000
  C   C1328     1.0  0.56236  0.09845  0.73665  1.0000
  C   C1329     1.0  0.56852  0.07846  0.73785  1.0000
  C   C1330     1.0  0.56093  0.06784  0.72722  1.0000
  C   C1331     1.0  0.54762  0.07710  0.71475  1.0000
  C   C1332     1.0  0.54196  0.09721  0.71301  1.0000
  C   C1333     1.0  0.54896  0.10774  0.72424  1.0000
  H   H1593     1.0  0.57850  0.07104  0.74761  1.0000
  H   H1594     1.0  0.56528  0.05229  0.72881  1.0000
  H   H1595     1.0  0.53196  0.10463  0.70328  1.0000
  H   H1596     1.0  0.54398  0.12317  0.72331  1.0000
  C   C1334     1.0  0.63085  0.18106  0.75332  1.0000
  C   C1335     1.0  0.62733  0.20130  0.75065  1.0000
  C   C1336     1.0  0.62490  0.21086  0.76659  1.0000
  C   C1337     1.0  0.62599  0.20014  0.78516  1.0000
  C   C1338     1.0  0.63029  0.17994  0.78769  1.0000
  C   C1339     1.0  0.63267  0.17040  0.77178  1.0000
  H   H1597     1.0  0.62597  0.20958  0.73638  1.0000
  C   C1340     1.0  0.96790  0.14787  0.92348  1.0000
  H   H1598     1.0  0.63179  0.17162  0.80192  1.0000
  H   H1599     1.0  0.63618  0.15479  0.77381  1.0000
  C   C1341     1.0  0.70109  0.11501  0.68119  1.0000
  C   C1342     1.0  0.68579  0.12288  0.69438  1.0000
  C   C1343     1.0  0.67425  0.11091  0.70755  1.0000
  C   C1344     1.0  0.67819  0.09089  0.70802  1.0000
  C   C1345     1.0  0.69344  0.08289  0.69470  1.0000
  C   C1346     1.0  0.70486  0.09501  0.68115  1.0000
  H   H1600     1.0  0.68298  0.13827  0.69464  1.0000
  H   H1601     1.0  0.66251  0.11730  0.71753  1.0000
  H   H1602     1.0  0.69645  0.06740  0.69495  1.0000
  H   H1603     1.0  0.71654  0.08892  0.67078  1.0000
  C   C1347     1.0  0.65861  0.11352  0.81844  1.0000
  C   C1348     1.0  0.67595  0.10780  0.80627  1.0000
  C   C1349     1.0  0.69399  0.10850  0.81125  1.0000
  C   C1350     1.0  0.69498  0.11536  0.82820  1.0000
  C   C1351     1.0  0.67764  0.12141  0.84023  1.0000
  C   C1352     1.0  0.65959  0.12033  0.83544  1.0000
  H   H1604     1.0  0.67547  0.10233  0.79329  1.0000
  H   H1605     1.0  0.70727  0.10366  0.80189  1.0000
  H   H1606     1.0  0.67814  0.12657  0.85339  1.0000
  H   H1607     1.0  0.64631  0.12462  0.84507  1.0000
  C   C1353     1.0  0.78340  0.11914  0.92396  1.0000
  C   C1354     1.0  0.79030  0.10622  0.93973  1.0000
  C   C1355     1.0  0.80153  0.11190  0.95127  1.0000
  C   C1356     1.0  0.59771  0.09798  0.69379  1.0000
  H   H1608     1.0  0.78668  0.09177  0.94324  1.0000
  C   C1357     1.0  0.68727  0.18050  0.66494  1.0000
  S   S382      1.0  0.62127  0.21192  0.80531  1.0000
  C   C1358     1.0  0.73910  0.22009  0.86615  1.0000
  C   C1359     1.0  0.72614  0.20695  0.86999  1.0000
  C   C1360     1.0  0.71128  0.20720  0.88609  1.0000
  C   C1361     1.0  0.56800  0.17526  0.75851  1.0000
  H   H1609     1.0  0.75167  0.20008  0.90101  1.0000
  H   H1610     1.0  0.75111  0.21909  0.85423  1.0000
  H   H1611     1.0  0.72818  0.19622  0.86076  1.0000
  H   H1612     1.0  0.72926  0.18020  0.92357  1.0000
  H   H1613     1.0  0.60054  0.10008  0.70801  1.0000
  C   C1362     1.0  0.93950  0.11329  0.91489  1.0000
  C   C1363     1.0  0.92143  0.12345  0.92243  1.0000
  C   C1364     1.0  0.91153  0.11687  0.94105  1.0000
  C   C1365     1.0  0.91972  0.10012  0.95243  1.0000
  C   C1366     1.0  0.93783  0.09001  0.94492  1.0000
  C   C1367     1.0  0.94765  0.09649  0.92623  1.0000
  H   H1614     1.0  0.91507  0.13656  0.91387  1.0000
  C   C1368     1.0  0.79977  0.19606  0.85748  1.0000
  H   H1615     1.0  0.94434  0.07710  0.95364  1.0000
  H   H1616     1.0  0.96159  0.08861  0.92068  1.0000
  C   C1369     1.0  0.82261  0.10753  0.71412  1.0000
  C   C1370     1.0  0.80581  0.11654  0.70623  1.0000
  C   C1371     1.0  0.80175  0.11118  0.68957  1.0000
  C   C1372     1.0  0.81401  0.09611  0.68108  1.0000
  C   C1373     1.0  0.83097  0.08735  0.68879  1.0000
  C   C1374     1.0  0.83541  0.09319  0.70503  1.0000
  H   H1617     1.0  0.79581  0.12769  0.71307  1.0000
  H   H1618     1.0  0.78895  0.11850  0.68358  1.0000
  H   H1619     1.0  0.84060  0.07569  0.68238  1.0000
  H   H1620     1.0  0.84828  0.08593  0.71103  1.0000
  C   C1375     1.0  0.83283  0.14326  0.82005  1.0000
  C   C1376     1.0  0.81980  0.13909  0.83715  1.0000
  C   C1377     1.0  0.80129  0.15024  0.83976  1.0000
  C   C1378     1.0  0.79594  0.16574  0.82543  1.0000
  C   C1379     1.0  0.80938  0.17064  0.80884  1.0000
  C   C1380     1.0  0.82787  0.15937  0.80615  1.0000
  H   H1621     1.0  0.82362  0.12665  0.84793  1.0000
  H   H1622     1.0  0.79108  0.14663  0.85277  1.0000
  H   H1623     1.0  0.80530  0.18269  0.79777  1.0000
  H   H1624     1.0  0.83812  0.16290  0.79314  1.0000
  C   C1381     1.0  0.94170  0.09182  0.77147  1.0000
  C   C1382     1.0  0.93741  0.10245  0.78695  1.0000
  C   C1383     1.0  0.95169  0.10191  0.79857  1.0000
  C   C1384     1.0  0.97027  0.09084  0.79461  1.0000
  C   C1385     1.0  0.97430  0.08038  0.77919  1.0000
  C   C1386     1.0  0.96019  0.08078  0.76786  1.0000
  H   H1625     1.0  0.92318  0.11104  0.78990  1.0000
  H   H1626     1.0  0.94847  0.11021  0.81029  1.0000
  C   C1387     1.0  0.66697  0.22929  0.70870  1.0000
  H   H1627     1.0  0.96371  0.07256  0.75601  1.0000
  C   C1388     1.0  0.86435  0.19696  0.74258  1.0000
  C   C1389     1.0  0.85832  0.21643  0.73538  1.0000
  H   H1628     1.0  0.76193  0.09442  0.82312  1.0000
  H   H1629     1.0  0.49984  0.09614  0.71348  1.0000
  C   C1390     1.0  0.85849  0.20459  0.77521  1.0000
  C   C1391     1.0  0.86398  0.19095  0.76256  1.0000
  H   H1630     1.0  0.85792  0.22101  0.72005  1.0000
  C   C1392     1.0  0.71754  0.06673  0.75283  1.0000
  H   H1631     1.0  0.85879  0.19997  0.79058  1.0000
  H   H1632     1.0  0.86841  0.17591  0.76827  1.0000
  H   H1633     1.0  0.50080  0.09183  0.74849  1.0000
  H   H1634     1.0  0.80672  0.14246  0.65480  1.0000
  H   H1635     1.0  0.51064  0.22705  0.88193  1.0000
  C   C1393     1.0  0.89222  0.23067  0.69663  1.0000
  C   C1394     1.0  0.85288  0.23003  0.74801  1.0000
  H   H1636     1.0  0.64885  0.20351  0.70417  1.0000
  C   C1395     1.0  0.70834  0.22184  0.89736  1.0000
  C   C1396     1.0  0.75557  0.09796  0.69335  1.0000
  H   H1637     1.0  0.74277  0.10165  0.68576  1.0000
  C   C1397     1.0  0.74534  0.22882  0.93379  1.0000
  H   H1638     1.0  0.50839  0.23100  0.85668  1.0000
  H   H1639     1.0  0.90316  0.20265  0.72797  1.0000
  H   H1640     1.0  0.57864  0.07157  0.68039  1.0000
  C   C1398     1.0  0.80639  0.15595  0.65981  1.0000
  S   S383      1.0  0.51941  0.05058  0.65886  1.0000
  H   H1641     1.0  0.64639  0.22257  0.88819  1.0000
  H   H1642     1.0  0.81420  0.19959  0.70537  1.0000
  H   H1643     1.0  0.69686  0.22215  0.90981  1.0000
  C   C1399     1.0  0.79293  0.18965  0.66004  1.0000
  C   C1400     1.0  0.65998  0.19778  0.69312  1.0000
  C   C1401     1.0  0.65624  0.18219  0.68598  1.0000
  H   H1644     1.0  0.82460  0.20796  0.81272  1.0000
  H   H1645     1.0  0.75674  0.18663  0.96113  1.0000
  H   H1646     1.0  0.98945  0.19366  0.88905  1.0000
  C   C1402     1.0  0.57722  0.18720  0.76564  1.0000
  H   H1647     1.0  0.71508  0.05420  0.76383  1.0000
  H   H1648     1.0  0.85338  0.15877  0.70915  1.0000
  H   H1649     1.0  0.82134  0.10403  0.81868  1.0000
  C   C1403     1.0  0.84394  0.15719  0.69902  1.0000
  H   H1650     1.0  0.80993  0.17563  0.71700  1.0000
  C   C1404     1.0  0.78840  0.13769  0.91951  1.0000
  H   H1651     1.0  0.76686  0.06297  0.68539  1.0000
  C   C1405     1.0  0.72320  0.09888  0.72411  1.0000
  N   N90       1.0  0.69011  0.18313  0.80048  1.0000
  C   C1406     1.0  0.71092  0.18246  0.80116  1.0000
  C   C1407     1.0  0.68043  0.20364  0.79963  1.0000
  C   C1408     1.0  0.68110  0.17206  0.81884  1.0000
  C   C1409     1.0  0.68846  0.17439  0.78376  1.0000
  C   C1410     1.0  0.67947  0.18502  0.76784  1.0000
  C   C1411     1.0  0.69617  0.15459  0.78301  1.0000
  C   C1412     1.0  0.67813  0.17613  0.75240  1.0000
  C   C1413     1.0  0.69437  0.14578  0.76771  1.0000
  C   C1414     1.0  0.68528  0.15653  0.75246  1.0000
  H   H1652     1.0  0.71281  0.18997  0.81282  1.0000
  H   H1653     1.0  0.71877  0.16736  0.80413  1.0000
  H   H1654     1.0  0.71844  0.18966  0.78716  1.0000
  H   H1655     1.0  0.68717  0.21309  0.78672  1.0000
  H   H1656     1.0  0.68167  0.20976  0.81249  1.0000
  H   H1657     1.0  0.66460  0.20508  0.79939  1.0000
  H   H1658     1.0  0.68917  0.15713  0.82207  1.0000
  H   H1659     1.0  0.68081  0.17896  0.83165  1.0000
  H   H1660     1.0  0.66587  0.17086  0.81820  1.0000
  H   H1661     1.0  0.67291  0.20007  0.76717  1.0000
  H   H1662     1.0  0.70339  0.14568  0.79448  1.0000
  H   H1663     1.0  0.67076  0.18424  0.74064  1.0000
  H   H1664     1.0  0.69975  0.13046  0.76787  1.0000
  H   H1665     1.0  0.68345  0.14965  0.74080  1.0000
  H   H1666     1.0  0.73269  0.17259  0.94873  1.0000
  C   C1415     1.0  0.61164  0.06415  0.69999  1.0000
  H   H1667     1.0  0.84315  0.12200  0.91586  1.0000
  H   H1668     1.0  0.89215  0.21524  0.69960  1.0000
  H   H1669     1.0  0.79373  0.07148  0.86973  1.0000
  H   H1670     1.0  0.65191  0.23236  0.85243  1.0000
  H   H1671     1.0  0.77270  0.14023  0.78683  1.0000
  H   H1672     1.0  0.61581  0.06553  0.71391  1.0000
  H   H1673     1.0  0.58531  0.17331  0.84079  1.0000
  C   C1416     1.0  0.83373  0.18292  0.87340  1.0000
  H   H1674     1.0  0.85456  0.18355  0.66778  1.0000
  H   H1675     1.0  0.78355  0.14761  0.90722  1.0000
  C   C1417     1.0  0.59419  0.14483  0.81858  1.0000
  C   C1418     1.0  0.82132  0.18433  0.70916  1.0000
  H   H1676     1.0  0.69734  0.23354  0.66536  1.0000
  H   H1677     1.0  0.83099  0.18466  0.71962  1.0000
  H   H1678     1.0  0.78203  0.23243  0.84280  1.0000
  H   H1679     1.0  0.95610  0.15819  0.91810  1.0000
  C   C1419     1.0  0.80613  0.13061  0.94710  1.0000
  H   H1680     1.0  0.67077  0.22390  0.88900  1.0000
  C   C1420     1.0  0.79978  0.14332  0.93093  1.0000
  N   N91       1.0  0.83236  0.17605  0.69185  1.0000
  C   C1421     1.0  0.84613  0.18908  0.68106  1.0000
  C   C1422     1.0  0.81895  0.17439  0.67899  1.0000
  N   N92       1.0  0.91619  0.22856  0.71961  1.0000
  C   C1423     1.0  0.79332  0.17226  0.65382  1.0000
  H   H1681     1.0  0.85666  0.19052  0.69017  1.0000
  H   H1682     1.0  0.96955  0.18559  0.90609  1.0000
  C   C1424     1.0  0.85345  0.22422  0.76783  1.0000
  H   H1683     1.0  0.62184  0.05187  0.69420  1.0000
  C   C1425     1.0  0.81902  0.15687  0.67225  1.0000
  H   H1684     1.0  0.59698  0.05998  0.70389  1.0000
  H   H1685     1.0  0.75648  0.11059  0.69991  1.0000
  H   H1686     1.0  0.92224  0.12715  0.86353  1.0000
  N   N93       1.0  0.75462  0.08014  0.70807  1.0000
  S   S384      1.0  0.52804  0.09533  0.65237  1.0000
  H   H1687     1.0  0.96573  0.16389  0.88508  1.0000
  H   H1688     1.0  0.91019  0.09948  0.83084  1.0000
  H   H1689     1.0  0.75021  0.16347  0.92975  1.0000
  C   C1426     1.0  0.67764  0.20523  0.68621  1.0000
  H   H1690     1.0  0.58275  0.19935  0.75594  1.0000
  C   C1427     1.0  0.91985  0.11490  0.85719  1.0000
  H   H1691     1.0  0.90837  0.13568  0.82551  1.0000
  H   H1692     1.0  0.93099  0.11396  0.84386  1.0000
  H   H1693     1.0  0.92322  0.10122  0.86744  1.0000
  H   H1694     1.0  0.75564  0.04977  0.70721  1.0000
  C   C1428     1.0  0.91750  0.20721  0.72186  1.0000
  C   C1429     1.0  0.89842  0.10132  0.84358  1.0000
  H   H1695     1.0  0.89946  0.08748  0.85403  1.0000
  C   C1430     1.0  0.74014  0.17675  0.93362  1.0000
  N   N94       1.0  0.89977  0.11777  0.85289  1.0000
  C   C1431     1.0  0.89694  0.13591  0.83870  1.0000
  H   H1696     1.0  0.88455  0.10336  0.83788  1.0000
  H   H1697     1.0  0.88283  0.13832  0.83340  1.0000
  H   H1698     1.0  0.89732  0.14873  0.84525  1.0000
  H   H1699     1.0  0.78646  0.20028  0.85146  1.0000
  H   H1700     1.0  0.77360  0.17324  0.94445  1.0000
  C   C1432     1.0  0.88451  0.11896  0.87035  1.0000
  C   C1433     1.0  0.88877  0.11781  0.88930  1.0000
  N   N95       1.0  0.75062  0.19324  0.93191  1.0000
  C   C1434     1.0  0.76168  0.19604  0.91184  1.0000
  C   C1435     1.0  0.76451  0.18762  0.94585  1.0000
  H   H1701     1.0  0.69583  0.11258  0.73831  1.0000
  H   H1702     1.0  0.72412  0.11172  0.71325  1.0000
  C   C1436     1.0  0.56446  0.15493  0.79008  1.0000
  C   C1437     1.0  0.86458  0.12136  0.86868  1.0000
  H   H1703     1.0  0.86020  0.12238  0.85477  1.0000
  H   H1704     1.0  0.84496  0.20685  0.85539  1.0000
  H   H1705     1.0  0.91668  0.22584  0.75031  1.0000
  C   C1438     1.0  0.87394  0.11898  0.90543  1.0000
  H   H1706     1.0  0.87751  0.11801  0.91977  1.0000
  N   N96       1.0  0.78963  0.11328  0.79817  1.0000
  C   C1439     1.0  0.56151  0.15924  0.77074  1.0000
  H   H1707     1.0  0.55494  0.14958  0.76496  1.0000
  C   C1440     1.0  0.84989  0.12240  0.88491  1.0000
  H   H1708     1.0  0.94800  0.13408  0.94648  1.0000
  H   H1709     1.0  0.67690  0.23191  0.85433  1.0000
  H   H1710     1.0  0.83479  0.12397  0.88328  1.0000
  C   C1441     1.0  0.85456  0.12124  0.90326  1.0000
  C   C1442     1.0  0.56068  0.15532  0.83175  1.0000
  H   H1711     1.0  0.98854  0.07192  0.77583  1.0000
  C   C1443     1.0  0.75444  0.06410  0.69766  1.0000
  H   H1712     1.0  0.81999  0.10846  0.78546  1.0000
  C   C1444     1.0  0.73735  0.08179  0.72353  1.0000
  C   C1445     1.0  0.81826  0.17268  0.87931  1.0000
  S   S385      1.0  0.90808  0.09145  0.97615  1.0000
  C   C1446     1.0  0.80922  0.08740  0.84455  1.0000
  H   H1713     1.0  0.60738  0.14859  0.80827  1.0000
  C   C1447     1.0  0.66986  0.17356  0.67198  1.0000
  H   H1714     1.0  0.59067  0.13188  0.81435  1.0000
  C   C1448     1.0  0.57372  0.16684  0.79790  1.0000
  H   H1715     1.0  0.83438  0.14667  0.70720  1.0000
  C   C1449     1.0  0.78430  0.10200  0.78516  1.0000
  H   H1716     1.0  0.77376  0.06217  0.72712  1.0000
  H   H1717     1.0  0.73104  0.18292  0.64962  1.0000
  H   H1718     1.0  0.64337  0.07623  0.67801  1.0000
  H   H1719     1.0  0.70413  0.22697  0.70803  1.0000
  H   H1720     1.0  0.78408  0.11036  0.77019  1.0000
  H   H1721     1.0  0.75974  0.12617  0.80710  1.0000
  C   C1450     1.0  0.83236  0.19976  0.85946  1.0000
  H   H1722     1.0  0.77464  0.19817  0.94372  1.0000
  C   C1451     1.0  0.79325  0.07933  0.85511  1.0000
  N   N97       1.0  0.57790  0.16132  0.81803  1.0000
  C   C1452     1.0  0.77423  0.13034  0.80082  1.0000
  H   H1723     1.0  0.80606  0.12937  0.77357  1.0000
  H   H1724     1.0  0.69071  0.08406  0.76357  1.0000
  C   C1453     1.0  0.69107  0.19617  0.67182  1.0000
  C   C1454     1.0  0.80777  0.12057  0.78809  1.0000
  C   C1455     1.0  0.77555  0.09239  0.82841  1.0000
  H   H1725     1.0  0.77760  0.13888  0.81091  1.0000
  H   H1726     1.0  0.80363  0.15766  0.92731  1.0000
  C   C1456     1.0  0.70054  0.21525  0.70177  1.0000
  C   C1457     1.0  0.80847  0.09806  0.82591  1.0000
  H   H1727     1.0  0.70472  0.20110  0.66585  1.0000
  H   H1728     1.0  0.82220  0.08565  0.85094  1.0000
  S   S386      1.0  0.98729  0.08074  0.86456  1.0000
  H   H1729     1.0  0.56029  0.14161  0.79845  1.0000
  S   S387      1.0  0.81906  0.13916  0.96189  1.0000
  H   H1730     1.0  0.84371  0.22615  0.82591  1.0000
  H   H1731     1.0  0.81212  0.13012  0.79647  1.0000
  C   C1458     1.0  0.79145  0.10109  0.81734  1.0000
  H   H1732     1.0  0.76396  0.07569  0.85536  1.0000
  C   C1459     1.0  0.77652  0.08167  0.84698  1.0000
  C   C1460     1.0  0.73765  0.21144  0.93604  1.0000
  H   H1733     1.0  0.80504  0.20475  0.67635  1.0000
  H   H1734     1.0  0.58758  0.19285  0.78940  1.0000
  H   H1735     1.0  0.84693  0.17768  0.87957  1.0000
  H   H1736     1.0  0.77345  0.08778  0.72455  1.0000
  H   H1737     1.0  0.59839  0.14021  0.83326  1.0000
  C   C1461     1.0  0.73411  0.06580  0.73849  1.0000
  C   C1462     1.0  0.65603  0.23274  0.88918  1.0000
  H   H1738     1.0  0.57247  0.19066  0.82376  1.0000
  C   C1463     1.0  0.70382  0.08358  0.75279  1.0000
  H   H1739     1.0  0.94626  0.22397  0.72330  1.0000
  C   C1464     1.0  0.77262  0.07598  0.71673  1.0000
  H   H1740     1.0  0.76058  0.22932  0.92856  1.0000
  C   C1465     1.0  0.80565  0.19081  0.67228  1.0000
  H   H1741     1.0  0.63291  0.10171  0.67380  1.0000
  H   H1742     1.0  0.55746  0.14136  0.82960  1.0000
  H   H1743     1.0  0.56292  0.15288  0.84715  1.0000
  C   C1466     1.0  0.58349  0.17727  0.82526  1.0000
  C   C1467     1.0  0.60705  0.07965  0.66728  1.0000
  C   C1468     1.0  0.73691  0.23399  0.87805  1.0000
  H   H1744     1.0  0.78949  0.17104  0.87554  1.0000
  H   H1745     1.0  0.89258  0.01322  0.97927  1.0000
  N   N98       1.0  0.68234  0.22158  0.69342  1.0000
  H   H1746     1.0  0.66426  0.21803  0.72170  1.0000
  H   H1747     1.0  0.74078  0.06636  0.69153  1.0000
  H   H1748     1.0  0.56632  0.17812  0.74336  1.0000
  H   H1749     1.0  0.64280  0.17653  0.69164  1.0000
  H   H1750     1.0  0.85387  0.15068  0.68698  1.0000
  H   H1751     1.0  0.92741  0.19927  0.73216  1.0000
  C   C1469     1.0  0.70675  0.09965  0.73858  1.0000
  C   C1470     1.0  0.63169  0.08762  0.68357  1.0000
  H   H1752     1.0  0.69037  0.23006  0.95313  1.0000
  H   H1753     1.0  0.59778  0.18084  0.81740  1.0000
  Fe  Fe193     1.0  0.98054  0.10936  0.87521  1.0000
  H   H1754     1.0  0.76856  0.09616  0.68186  1.0000
  H   H1755     1.0  0.82865  0.14360  0.67636  1.0000
  H   H1756     1.0  0.91548  0.04678  0.97661  1.0000
  C   C1471     1.0  0.70576  0.22964  0.94774  1.0000
  H   H1757     1.0  0.80634  0.10190  0.96357  1.0000
  S   S388      1.0  0.80798  0.08659  0.66206  1.0000
  H   H1758     1.0  0.77078  0.20756  0.90912  1.0000
  H   H1759     1.0  0.81944  0.15955  0.88995  1.0000
  H   H1760     1.0  0.59782  0.11202  0.68370  1.0000
  H   H1761     1.0  0.74420  0.05233  0.73900  1.0000
  H   H1762     1.0  0.77168  0.18262  0.90851  1.0000
  H   H1763     1.0  0.89769  0.12488  0.94669  1.0000
  C   C1472     1.0  0.71743  0.21234  0.94332  1.0000
  C   C1473     1.0  0.96307  0.13408  0.93973  1.0000
  C   C1474     1.0  0.90821  0.23425  0.73894  1.0000
  H   H1764     1.0  0.62160  0.22649  0.76458  1.0000
  H   H1765     1.0  0.97350  0.10885  0.95919  1.0000
  H   H1766     1.0  0.78270  0.20232  0.65533  1.0000
  H   H1767     1.0  0.69938  0.20239  0.71339  1.0000
  H   H1768     1.0  0.92303  0.20192  0.70776  1.0000
  H   H1769     1.0  0.94223  0.23029  0.69848  1.0000
  H   H1770     1.0  0.71022  0.19995  0.94549  1.0000
  C   C1475     1.0  0.81520  0.20690  0.85112  1.0000
  H   H1771     1.0  0.58267  0.09485  0.69649  1.0000
  C   C1476     1.0  0.97743  0.11979  0.94688  1.0000
  C   C1477     1.0  0.93624  0.23298  0.71358  1.0000
  H   H1772     1.0  0.89289  0.23182  0.74373  1.0000
  S   S389      1.0  0.98948  0.08923  0.80781  1.0000
  H   H1773     1.0  0.79861  0.21181  0.81891  1.0000
  S   S390      1.0  0.98719  0.12653  0.84519  1.0000
  H   H1774     1.0  0.98598  0.17035  0.86720  1.0000
  C   C1478     1.0  0.81170  0.21861  0.81754  1.0000
  H   H1775     1.0  0.69800  0.17350  0.65426  1.0000
  S   S391      1.0  0.73809  0.21984  0.65313  1.0000
  H   H1776     1.0  0.81077  0.23126  0.80558  1.0000
  C   C1479     1.0  0.98742  0.14792  0.91399  1.0000
  H   H1777     1.0  0.98527  0.14558  0.87799  1.0000
  C   C1480     1.0  0.98179  0.16063  0.88108  1.0000
  C   C1481     1.0  0.98556  0.18231  0.90164  1.0000
  N   N99       1.0  0.81333  0.22437  0.83598  1.0000
  C   C1482     1.0  0.58362  0.07191  0.64995  1.0000
  H   H1778     1.0  0.56967  0.06775  0.65027  1.0000
  H   H1779     1.0  0.77657  0.24121  0.12695  1.0000
  C   C1483     1.0  0.74734  0.24235  0.12208  1.0000
  C   C1484     1.0  0.52229  0.34404  0.01784  1.0000
  S   S392      1.0  0.62932  0.46196  0.17790  1.0000
  H   H1780     1.0  0.67145  0.30762  0.19731  1.0000
  S   S393      1.0  0.64738  0.44907  0.08415  1.0000
  C   C1485     1.0  0.67882  0.47612  0.16767  1.0000
  Fe  Fe194     1.0  0.68055  0.35686  0.21531  1.0000
  S   S394      1.0  0.71103  0.35003  0.20000  1.0000
  S   S395      1.0  0.65980  0.37151  0.19463  1.0000
  Fe  Fe195     1.0  0.69084  0.33462  0.25404  1.0000
  S   S396      1.0  0.72226  0.32658  0.24179  1.0000
  H   H1781     1.0  0.88067  0.25662  0.16772  1.0000
  Fe  Fe196     1.0  0.71963  0.35701  0.22592  1.0000
  S   S397      1.0  0.74540  0.37215  0.21870  1.0000
  Fe  Fe197     1.0  0.71115  0.32034  0.21695  1.0000
  S   S398      1.0  0.72616  0.29555  0.20179  1.0000
  S   S399      1.0  0.68907  0.36627  0.24040  1.0000
  S   S400      1.0  0.67971  0.32601  0.23008  1.0000
  Fe  Fe198     1.0  0.86852  0.35052  0.26569  1.0000
  S   S401      1.0  0.85131  0.33326  0.29041  1.0000
  S   S402      1.0  0.88795  0.36987  0.27182  1.0000
  Fe  Fe199     1.0  0.85673  0.33108  0.23510  1.0000
  S   S403      1.0  0.83883  0.31272  0.25776  1.0000
  S   S404      1.0  0.85982  0.32898  0.20304  1.0000
  Fe  Fe200     1.0  0.82845  0.33934  0.27143  1.0000
  S   S405      1.0  0.79687  0.34353  0.28454  1.0000
  Fe  Fe201     1.0  0.86319  0.30813  0.27451  1.0000
  S   S406      1.0  0.87296  0.27726  0.28733  1.0000
  S   S407      1.0  0.84460  0.35873  0.24749  1.0000
  S   S408      1.0  0.88231  0.32463  0.25091  1.0000
  Fe  Fe202     1.0  0.58243  0.36535  0.00055  1.0000
  H   H1782     1.0  0.63010  0.37227  0.14334  1.0000
  C   C1486     1.0  0.86005  0.27114  0.31074  1.0000
  Fe  Fe203     1.0  0.60148  0.38187  0.02867  1.0000
  S   S409      1.0  0.62901  0.36021  0.02458  1.0000
  S   S410      1.0  0.59587  0.40708  0.04597  1.0000
  Fe  Fe204     1.0  0.60915  0.33872  0.02661  1.0000
  S   S411      1.0  0.61497  0.30720  0.04013  1.0000
  S   S412      1.0  0.58152  0.35964  0.03307  1.0000
  C   C1487     1.0  0.86465  0.38759  0.30190  1.0000
  H   H1783     1.0  0.61586  0.42651  0.98576  1.0000
  S   S413      1.0  0.84773  0.27917  0.14220  1.0000
  C   C1488     1.0  0.51357  0.31609  0.00965  1.0000
  S   S414      1.0  0.61293  0.47999  0.12438  1.0000
  S   S415      1.0  0.61862  0.28457  0.13002  1.0000
  S   S416      1.0  0.68224  0.32324  0.28594  1.0000
  H   H1784     1.0  0.88134  0.28506  0.24298  1.0000
  C   C1489     1.0  0.62096  0.43410  0.99557  1.0000
  H   H1785     1.0  0.69571  0.44767  0.14666  1.0000
  C   C1490     1.0  0.79142  0.24449  0.21241  1.0000
  N   N100      1.0  0.81732  0.45605  0.30994  1.0000
  C   C1491     1.0  0.85165  0.44948  0.29238  1.0000
  S   S417      1.0  0.66520  0.26461  0.14933  1.0000
  C   C1492     1.0  0.64933  0.43716  0.00947  1.0000
  S   S418      1.0  0.55628  0.37088  0.98470  1.0000
  S   S419      1.0  0.60886  0.34316  0.99446  1.0000
  H   H1786     1.0  0.69163  0.25668  0.17595  1.0000
  C   C1493     1.0  0.61494  0.30101  0.06528  1.0000
  C   C1494     1.0  0.62147  0.28174  0.07313  1.0000
  C   C1495     1.0  0.62256  0.27650  0.09301  1.0000
  C   C1496     1.0  0.61674  0.29045  0.10520  1.0000
  C   C1497     1.0  0.60968  0.30962  0.09742  1.0000
  C   C1498     1.0  0.60901  0.31495  0.07745  1.0000
  H   H1787     1.0  0.62600  0.27088  0.06374  1.0000
  H   H1788     1.0  0.62778  0.26165  0.09894  1.0000
  H   H1789     1.0  0.60506  0.32049  0.10675  1.0000
  H   H1790     1.0  0.60393  0.32984  0.07151  1.0000
  H   H1791     1.0  0.63821  0.39776  0.99679  1.0000
  C   C1499     1.0  0.64351  0.40604  0.00572  1.0000
  H   H1792     1.0  0.55855  0.27250  0.02484  1.0000
  C   C1500     1.0  0.82765  0.43411  0.28409  1.0000
  C   C1501     1.0  0.62823  0.35729  0.14854  1.0000
  C   C1502     1.0  0.79748  0.45176  0.31116  1.0000
  C   C1503     1.0  0.85039  0.29166  0.16061  1.0000
  C   C1504     1.0  0.85816  0.30878  0.15433  1.0000
  C   C1505     1.0  0.86063  0.31977  0.16764  1.0000
  C   C1506     1.0  0.85535  0.31404  0.18764  1.0000
  C   C1507     1.0  0.84721  0.29699  0.19423  1.0000
  C   C1508     1.0  0.84468  0.28581  0.18070  1.0000
  H   H1793     1.0  0.86249  0.31358  0.13894  1.0000
  H   H1794     1.0  0.86688  0.33286  0.16232  1.0000
  H   H1795     1.0  0.84316  0.29236  0.20962  1.0000
  H   H1796     1.0  0.83860  0.27263  0.18576  1.0000
  C   C1509     1.0  0.70934  0.28025  0.20376  1.0000
  C   C1510     1.0  0.70795  0.27257  0.18760  1.0000
  C   C1511     1.0  0.69311  0.26199  0.18860  1.0000
  C   C1512     1.0  0.68002  0.25864  0.20581  1.0000
  C   C1513     1.0  0.68190  0.26564  0.22224  1.0000
  C   C1514     1.0  0.69647  0.27664  0.22113  1.0000
  H   H1797     1.0  0.71788  0.27536  0.17413  1.0000
  Fe  Fe205     1.0  0.65881  0.24305  0.17628  1.0000
  H   H1798     1.0  0.67177  0.26310  0.23562  1.0000
  H   H1799     1.0  0.69771  0.28243  0.23365  1.0000
  C   C1515     1.0  0.78246  0.35222  0.26639  1.0000
  C   C1516     1.0  0.76232  0.35302  0.27101  1.0000
  C   C1517     1.0  0.75082  0.35901  0.25635  1.0000
  C   C1518     1.0  0.75942  0.36495  0.23721  1.0000
  C   C1519     1.0  0.77950  0.36449  0.23264  1.0000
  C   C1520     1.0  0.79103  0.35785  0.24717  1.0000
  H   H1800     1.0  0.75561  0.34913  0.28594  1.0000
  H   H1801     1.0  0.73525  0.35951  0.25994  1.0000
  H   H1802     1.0  0.78619  0.36902  0.21783  1.0000
  H   H1803     1.0  0.80654  0.35720  0.24346  1.0000
  C   C1521     1.0  0.63226  0.43667  0.07531  1.0000
  C   C1522     1.0  0.64068  0.41968  0.06750  1.0000
  C   C1523     1.0  0.62974  0.41010  0.05901  1.0000
  C   C1524     1.0  0.61024  0.41767  0.05773  1.0000
  C   C1525     1.0  0.60176  0.43454  0.06574  1.0000
  C   C1526     1.0  0.61261  0.44391  0.07456  1.0000
  H   H1804     1.0  0.65585  0.41393  0.06795  1.0000
  H   H1805     1.0  0.63645  0.39689  0.05350  1.0000
  H   H1806     1.0  0.58667  0.44049  0.06503  1.0000
  H   H1807     1.0  0.60589  0.45697  0.08041  1.0000
  C   C1527     1.0  0.63882  0.43699  0.18221  1.0000
  C   C1528     1.0  0.64177  0.42794  0.20103  1.0000
  C   C1529     1.0  0.64917  0.40802  0.20484  1.0000
  C   C1530     1.0  0.65309  0.39693  0.18993  1.0000
  C   C1531     1.0  0.65003  0.40597  0.17115  1.0000
  C   C1532     1.0  0.64322  0.42598  0.16722  1.0000
  H   H1808     1.0  0.63820  0.43633  0.21273  1.0000
  H   H1809     1.0  0.65110  0.40110  0.21943  1.0000
  H   H1810     1.0  0.65279  0.39744  0.15961  1.0000
  H   H1811     1.0  0.64080  0.43275  0.15272  1.0000
  H   H1812     1.0  0.67125  0.31004  0.17178  1.0000
  N   N101      1.0  0.69915  0.46570  0.16621  1.0000
  Fe  Fe206     1.0  0.63258  0.47680  0.14658  1.0000
  C   C1533     1.0  0.88311  0.38402  0.29076  1.0000
  C   C1534     1.0  0.89810  0.39248  0.29425  1.0000
  H   H1813     1.0  0.90624  0.41126  0.31067  1.0000
  H   H1814     1.0  0.75100  0.24547  0.10642  1.0000
  C   C1535     1.0  0.70207  0.44895  0.18196  1.0000
  H   H1815     1.0  0.91241  0.38990  0.28564  1.0000
  N   N102      1.0  0.89217  0.25966  0.22943  1.0000
  C   C1536     1.0  0.72826  0.24022  0.13078  1.0000
  H   H1816     1.0  0.61837  0.32754  0.20901  1.0000
  H   H1817     1.0  0.84455  0.29993  0.31251  1.0000
  C   C1537     1.0  0.63672  0.34675  0.16434  1.0000
  C   C1538     1.0  0.68549  0.25742  0.30247  1.0000
  Fe  Fe207     1.0  0.83972  0.24990  0.14203  1.0000
  H   H1818     1.0  0.63474  0.40390  0.02049  1.0000
  H   H1819     1.0  0.66867  0.46650  0.16663  1.0000
  H   H1820     1.0  0.71089  0.40351  0.22231  1.0000
  H   H1821     1.0  0.69188  0.43807  0.02495  1.0000
  S   S420      1.0  0.59978  0.38941  0.99671  1.0000
  H   H1822     1.0  0.70907  0.23482  0.15774  1.0000
  H   H1823     1.0  0.53155  0.28919  0.01599  1.0000
  H   H1824     1.0  0.50453  0.31002  0.00259  1.0000
  Fe  Fe208     1.0  0.64079  0.47215  0.10408  1.0000
  C   C1539     1.0  0.63972  0.29628  0.19459  1.0000
  H   H1825     1.0  0.87821  0.28842  0.21827  1.0000
  S   S421      1.0  0.66003  0.46757  0.12683  1.0000
  H   H1826     1.0  0.68617  0.29327  0.26287  1.0000
  H   H1827     1.0  0.68783  0.25766  0.27176  1.0000
  H   H1828     1.0  0.79216  0.45677  0.29702  1.0000
  C   C1540     1.0  0.62327  0.31882  0.16215  1.0000
  C   C1541     1.0  0.89295  0.24783  0.24903  1.0000
  C   C1542     1.0  0.61717  0.34873  0.13964  1.0000
  C   C1543     1.0  0.68636  0.26633  0.28297  1.0000
  N   N103      1.0  0.64172  0.42684  0.99723  1.0000
  N   N104      1.0  0.78318  0.29758  0.15478  1.0000
  C   C1544     1.0  0.79381  0.28091  0.16658  1.0000
  C   C1545     1.0  0.76361  0.29304  0.15514  1.0000
  C   C1546     1.0  0.79332  0.29938  0.13433  1.0000
  C   C1547     1.0  0.78276  0.31552  0.16247  1.0000
  C   C1548     1.0  0.76522  0.32710  0.16993  1.0000
  C   C1549     1.0  0.80039  0.32185  0.16272  1.0000
  C   C1550     1.0  0.76554  0.34403  0.17693  1.0000
  C   C1551     1.0  0.80054  0.33862  0.17001  1.0000
  C   C1552     1.0  0.78312  0.34974  0.17704  1.0000
  H   H1829     1.0  0.80931  0.28208  0.16553  1.0000
  H   H1830     1.0  0.78711  0.27969  0.18216  1.0000
  H   H1831     1.0  0.79369  0.26698  0.16186  1.0000
  H   H1832     1.0  0.75476  0.30483  0.14636  1.0000
  H   H1833     1.0  0.75560  0.29043  0.17024  1.0000
  H   H1834     1.0  0.76448  0.27949  0.14921  1.0000
  H   H1835     1.0  0.79264  0.28683  0.12753  1.0000
  H   H1836     1.0  0.78677  0.31274  0.12535  1.0000
  H   H1837     1.0  0.80905  0.29992  0.13304  1.0000
  H   H1838     1.0  0.75107  0.32336  0.17067  1.0000
  H   H1839     1.0  0.81426  0.31383  0.15723  1.0000
  H   H1840     1.0  0.75207  0.35274  0.18256  1.0000
  H   H1841     1.0  0.81426  0.34301  0.17018  1.0000
  H   H1842     1.0  0.78317  0.36275  0.18275  1.0000
  H   H1843     1.0  0.57052  0.27055  0.04480  1.0000
  H   H1844     1.0  0.63550  0.47041  0.04067  1.0000
  C   C1553     1.0  0.68543  0.28648  0.27787  1.0000
  Fe  Fe209     1.0  0.63893  0.25785  0.14083  1.0000
  Fe  Fe210     1.0  0.68130  0.23897  0.13589  1.0000
  C   C1554     1.0  0.66459  0.45566  0.03356  1.0000
  H   H1845     1.0  0.83863  0.41516  0.26276  1.0000
  H   H1846     1.0  0.70170  0.47096  0.13493  1.0000
  C   C1555     1.0  0.84211  0.42506  0.27084  1.0000
  H   H1847     1.0  0.91676  0.27187  0.23213  1.0000
  H   H1848     1.0  0.60596  0.32294  0.13962  1.0000
  C   C1556     1.0  0.61468  0.32957  0.14647  1.0000
  N   N105      1.0  0.78157  0.29868  0.23410  1.0000
  C   C1557     1.0  0.76785  0.29792  0.25277  1.0000
  C   C1558     1.0  0.79934  0.30475  0.23728  1.0000
  C   C1559     1.0  0.77290  0.31392  0.21945  1.0000
  C   C1560     1.0  0.78524  0.27979  0.22723  1.0000
  C   C1561     1.0  0.80419  0.26898  0.22305  1.0000
  C   C1562     1.0  0.76959  0.27201  0.22379  1.0000
  C   C1563     1.0  0.67672  0.44193  0.02331  1.0000
  C   C1564     1.0  0.76180  0.23997  0.13369  1.0000
  H   H1849     1.0  0.82987  0.48213  0.30609  1.0000
  H   H1850     1.0  0.77381  0.28659  0.26420  1.0000
  H   H1851     1.0  0.76477  0.31206  0.25814  1.0000
  C   C1565     1.0  0.73338  0.29360  0.30438  1.0000
  H   H1852     1.0  0.80663  0.29404  0.24829  1.0000
  H   H1853     1.0  0.79591  0.31881  0.24282  1.0000
  H   H1854     1.0  0.80985  0.30707  0.22353  1.0000
  H   H1855     1.0  0.75883  0.31124  0.21689  1.0000
  H   H1856     1.0  0.76997  0.32849  0.22387  1.0000
  H   H1857     1.0  0.78285  0.31481  0.20528  1.0000
  H   H1858     1.0  0.81701  0.27372  0.22510  1.0000
  H   H1859     1.0  0.75478  0.27947  0.22640  1.0000
  H   H1860     1.0  0.72115  0.29944  0.29681  1.0000
  H   H1861     1.0  0.65350  0.33260  0.98356  1.0000
  S   S422      1.0  0.66072  0.24662  0.20647  1.0000
  N   N106      1.0  0.55953  0.30004  0.03276  1.0000
  C   C1566     1.0  0.57641  0.30238  0.01711  1.0000
  C   C1567     1.0  0.56323  0.30613  0.05035  1.0000
  C   C1568     1.0  0.55807  0.27910  0.03787  1.0000
  C   C1569     1.0  0.54199  0.31205  0.02577  1.0000
  C   C1570     1.0  0.53817  0.33240  0.02541  1.0000
  C   C1571     1.0  0.52930  0.30427  0.01737  1.0000
  C   C1572     1.0  0.77269  0.25471  0.21638  1.0000
  C   C1573     1.0  0.72081  0.43768  0.18273  1.0000
  H   H1862     1.0  0.64037  0.31904  0.21922  1.0000
  S   S423      1.0  0.63098  0.23852  0.16923  1.0000
  H   H1863     1.0  0.59002  0.29330  0.02134  1.0000
  H   H1864     1.0  0.57418  0.29828  0.00351  1.0000
  H   H1865     1.0  0.56835  0.32032  0.04710  1.0000
  H   H1866     1.0  0.57511  0.29598  0.05694  1.0000
  H   H1867     1.0  0.54998  0.30702  0.06166  1.0000
  S   S424      1.0  0.81566  0.24807  0.12652  1.0000
  C   C1574     1.0  0.91172  0.26492  0.22173  1.0000
  H   H1868     1.0  0.61046  0.35697  0.12748  1.0000
  H   H1869     1.0  0.86302  0.27453  0.23680  1.0000
  N   N107      1.0  0.68082  0.29158  0.08032  1.0000
  C   C1575     1.0  0.66440  0.30412  0.09055  1.0000
  C   C1576     1.0  0.67588  0.27190  0.08299  1.0000
  C   C1577     1.0  0.69785  0.28995  0.09005  1.0000
  C   C1578     1.0  0.68422  0.29960  0.05930  1.0000
  C   C1579     1.0  0.70246  0.30431  0.04916  1.0000
  C   C1580     1.0  0.66902  0.30271  0.04821  1.0000
  C   C1581     1.0  0.70504  0.31186  0.02927  1.0000
  C   C1582     1.0  0.67172  0.31033  0.02840  1.0000
  C   C1583     1.0  0.68970  0.31491  0.01893  1.0000
  H   H1870     1.0  0.65064  0.30512  0.08510  1.0000
  H   H1871     1.0  0.66132  0.29847  0.10642  1.0000
  H   H1872     1.0  0.66740  0.31915  0.08872  1.0000
  H   H1873     1.0  0.66250  0.27191  0.07722  1.0000
  H   H1874     1.0  0.67334  0.26535  0.09863  1.0000
  H   H1875     1.0  0.68785  0.26198  0.07553  1.0000
  H   H1876     1.0  0.71044  0.27963  0.08405  1.0000
  H   H1877     1.0  0.70231  0.30428  0.08883  1.0000
  H   H1878     1.0  0.69460  0.28414  0.10588  1.0000
  H   H1879     1.0  0.71497  0.30226  0.05622  1.0000
  H   H1880     1.0  0.65486  0.29922  0.05475  1.0000
  H   H1881     1.0  0.71904  0.31535  0.02175  1.0000
  H   H1882     1.0  0.65975  0.31264  0.02038  1.0000
  H   H1883     1.0  0.69175  0.32075  0.00351  1.0000
  H   H1884     1.0  0.54449  0.27676  0.04824  1.0000
  C   C1584     1.0  0.63443  0.32663  0.20587  1.0000
  C   C1585     1.0  0.68316  0.29794  0.29222  1.0000
  H   H1885     1.0  0.72367  0.23732  0.21330  1.0000
  C   C1586     1.0  0.88646  0.24960  0.21562  1.0000
  H   H1886     1.0  0.82170  0.24362  0.21252  1.0000
  C   C1587     1.0  0.86595  0.44041  0.27905  1.0000
  H   H1887     1.0  0.81326  0.43079  0.28542  1.0000
  C   C1588     1.0  0.63444  0.32722  0.17175  1.0000
  H   H1888     1.0  0.62087  0.30398  0.16640  1.0000
  H   H1889     1.0  0.54781  0.33974  0.03016  1.0000
  H   H1890     1.0  0.57896  0.31767  0.01355  1.0000
  H   H1891     1.0  0.66819  0.33111  0.18314  1.0000
  H   H1892     1.0  0.75355  0.29472  0.25151  1.0000
  N   N108      1.0  0.64305  0.31668  0.18897  1.0000
  C   C1589     1.0  0.86120  0.42817  0.26835  1.0000
  H   H1893     1.0  0.52012  0.35963  0.01711  1.0000
  C   C1590     1.0  0.74873  0.30378  0.30159  1.0000
  C   C1591     1.0  0.68990  0.42687  0.21094  1.0000
  H   H1894     1.0  0.63745  0.34168  0.20345  1.0000
  H   H1895     1.0  0.61129  0.43150  0.00989  1.0000
  C   C1592     1.0  0.66436  0.31639  0.18508  1.0000
  H   H1896     1.0  0.73322  0.44113  0.17203  1.0000
  C   C1593     1.0  0.70440  0.45889  0.14716  1.0000
  H   H1897     1.0  0.71999  0.45248  0.14401  1.0000
  H   H1898     1.0  0.87243  0.24085  0.31329  1.0000
  H   H1899     1.0  0.73826  0.41299  0.19746  1.0000
  C   C1594     1.0  0.70845  0.41614  0.21123  1.0000
  H   H1900     1.0  0.62183  0.45481  0.02052  1.0000
  C   C1595     1.0  0.87807  0.27766  0.23190  1.0000
  H   H1901     1.0  0.61849  0.44983  0.98959  1.0000
  H   H1902     1.0  0.62398  0.29532  0.19840  1.0000
  C   C1596     1.0  0.80712  0.25157  0.21580  1.0000
  H   H1903     1.0  0.76053  0.24945  0.21327  1.0000
  H   H1904     1.0  0.85296  0.38130  0.29932  1.0000
  H   H1905     1.0  0.64623  0.28884  0.20765  1.0000
  H   H1906     1.0  0.64645  0.28765  0.18282  1.0000
  C   C1597     1.0  0.68199  0.28907  0.31177  1.0000
  H   H1907     1.0  0.64496  0.35414  0.17085  1.0000
  C   C1598     1.0  0.64499  0.46031  0.03197  1.0000
  C   C1599     1.0  0.88101  0.24936  0.18260  1.0000
  H   H1908     1.0  0.79752  0.25734  0.31169  1.0000
  H   H1909     1.0  0.89771  0.25565  0.25890  1.0000
  Fe  Fe211     1.0  0.62614  0.36655  0.99298  1.0000
  C   C1600     1.0  0.83205  0.44661  0.29535  1.0000
  H   H1910     1.0  0.88887  0.27332  0.19105  1.0000
  C   C1601     1.0  0.51004  0.33592  0.00994  1.0000
  C   C1602     1.0  0.63732  0.45113  0.02029  1.0000
  C   C1603     1.0  0.72388  0.42154  0.19718  1.0000
  H   H1911     1.0  0.87246  0.42058  0.25855  1.0000
  C   C1604     1.0  0.68664  0.44305  0.19657  1.0000
  C   C1605     1.0  0.88579  0.25875  0.19609  1.0000
  H   H1912     1.0  0.67184  0.45051  0.19714  1.0000
  H   H1913     1.0  0.67917  0.42191  0.00414  1.0000
  C   C1606     1.0  0.89467  0.40453  0.30853  1.0000
  H   H1914     1.0  0.85623  0.45825  0.30085  1.0000
  S   S425      1.0  0.71028  0.24165  0.11658  1.0000
  H   H1915     1.0  0.74826  0.31754  0.29188  1.0000
  H   H1916     1.0  0.65874  0.39915  0.00684  1.0000
  C   C1607     1.0  0.66927  0.43279  0.01142  1.0000
  H   H1917     1.0  0.67790  0.42246  0.22180  1.0000
  C   C1608     1.0  0.81620  0.47740  0.30504  1.0000
  H   H1918     1.0  0.67019  0.46224  0.04334  1.0000
  C   C1609     1.0  0.75701  0.23591  0.15398  1.0000
  H   H1919     1.0  0.91199  0.27552  0.20799  1.0000
  C   C1610     1.0  0.72363  0.23641  0.15097  1.0000
  H   H1920     1.0  0.88095  0.44229  0.27754  1.0000
  H   H1921     1.0  0.87839  0.24447  0.25639  1.0000
  C   C1611     1.0  0.71168  0.47992  0.16654  1.0000
  H   H1922     1.0  0.72739  0.47389  0.16373  1.0000
  H   H1923     1.0  0.49830  0.34512  0.00325  1.0000
  H   H1924     1.0  0.92265  0.25189  0.21881  1.0000
  H   H1925     1.0  0.67388  0.48196  0.18154  1.0000
  H   H1926     1.0  0.77605  0.30497  0.30870  1.0000
  C   C1612     1.0  0.76444  0.29651  0.31148  1.0000
  H   H1927     1.0  0.70904  0.23688  0.24785  1.0000
  H   H1928     1.0  0.80385  0.28057  0.31155  1.0000
  H   H1929     1.0  0.81319  0.48285  0.28998  1.0000
  H   H1930     1.0  0.88212  0.33748  0.31503  1.0000
  H   H1931     1.0  0.79703  0.43599  0.31573  1.0000
  Fe  Fe212     1.0  0.88675  0.43889  0.35300  1.0000
  S   S426      1.0  0.87560  0.43084  0.38486  1.0000
  Fe  Fe213     1.0  0.91166  0.46686  0.36195  1.0000
  S   S427      1.0  0.90251  0.45928  0.39413  1.0000
  C   C1613     1.0  0.98209  0.35083  0.47369  1.0000
  Fe  Fe214     1.0  0.90636  0.42851  0.38893  1.0000
  S   S428      1.0  0.92117  0.40091  0.40567  1.0000
  H   H1932     1.0  0.90303  0.39523  0.49027  1.0000
  C   C1614     1.0  0.83080  0.35262  0.57265  1.0000
  S   S429      1.0  0.91801  0.43560  0.35690  1.0000
  C   C1615     1.0  0.76496  0.27889  0.32491  1.0000
  H   H1933     1.0  0.96880  0.38137  0.45195  1.0000
  C   C1616     1.0  0.88290  0.30911  0.62569  1.0000
  H   H1934     1.0  0.85918  0.24801  0.39585  1.0000
  C   C1617     1.0  0.91394  0.38658  0.35705  1.0000
  N   N109      1.0  0.96230  0.35308  0.48543  1.0000
  C   C1618     1.0  0.78419  0.28655  0.34610  1.0000
  Fe  Fe215     1.0  0.88134  0.30443  0.53995  1.0000
  S   S430      1.0  0.90447  0.28043  0.53043  1.0000
  S   S431      1.0  0.86742  0.30060  0.57154  1.0000
  Fe  Fe216     1.0  0.89003  0.33138  0.50109  1.0000
  S   S432      1.0  0.91418  0.30937  0.48905  1.0000
  S   S433      1.0  0.87874  0.36160  0.48675  1.0000
  Fe  Fe217     1.0  0.89357  0.28785  0.50162  1.0000
  S   S434      1.0  0.87951  0.26854  0.48798  1.0000
  Fe  Fe218     1.0  0.92264  0.30416  0.51918  1.0000
  S   S435      1.0  0.95264  0.30239  0.52727  1.0000
  S   S436      1.0  0.86906  0.31054  0.51239  1.0000
  S   S437      1.0  0.89979  0.32763  0.52984  1.0000
  H   H1935     1.0  0.96318  0.32222  0.48855  1.0000
  S   S438      1.0  0.87026  0.42489  0.33631  1.0000
  H   H1936     1.0  0.86479  0.36937  0.36194  1.0000
  H   H1937     1.0  0.91664  0.33662  0.31619  1.0000
  C   C1619     1.0  0.86702  0.24633  0.46689  1.0000
  H   H1938     1.0  0.84982  0.34179  0.59469  1.0000
  H   H1939     1.0  0.79200  0.24886  0.35777  1.0000
  C   C1620     1.0  0.74907  0.26879  0.32738  1.0000
  Fe  Fe219     1.0  0.77118  0.27892  0.63060  1.0000
  S   S439      1.0  0.77855  0.29522  0.60033  1.0000
  C   C1621     1.0  0.93039  0.37575  0.48894  1.0000
  H   H1940     1.0  0.97035  0.36556  0.50731  1.0000
  H   H1941     1.0  0.82494  0.25041  0.52796  1.0000
  H   H1942     1.0  0.89533  0.24376  0.38548  1.0000
  H   H1943     1.0  0.87553  0.36374  0.54914  1.0000
  C   C1622     1.0  0.84295  0.29774  0.57881  1.0000
  C   C1623     1.0  0.82981  0.30287  0.56571  1.0000
  C   C1624     1.0  0.81008  0.30163  0.57235  1.0000
  C   C1625     1.0  0.80351  0.29502  0.59201  1.0000
  C   C1626     1.0  0.81679  0.28922  0.60495  1.0000
  C   C1627     1.0  0.83644  0.29075  0.59838  1.0000
  H   H1944     1.0  0.83468  0.30809  0.55057  1.0000
  H   H1945     1.0  0.79981  0.30608  0.56232  1.0000
  H   H1946     1.0  0.81181  0.28409  0.62012  1.0000
  H   H1947     1.0  0.84656  0.28668  0.60856  1.0000
  C   C1628     1.0  0.88329  0.25240  0.47085  1.0000
  H   H1948     1.0  0.72159  0.26823  0.31938  1.0000
  C   C1629     1.0  0.84027  0.24289  0.52550  1.0000
  C   C1630     1.0  0.87625  0.31856  0.42033  1.0000
  C   C1631     1.0  0.96657  0.33287  0.57354  1.0000
  C   C1632     1.0  0.94853  0.33815  0.56704  1.0000
  C   C1633     1.0  0.94382  0.32848  0.55355  1.0000
  C   C1634     1.0  0.95728  0.31363  0.54589  1.0000
  C   C1635     1.0  0.97536  0.30834  0.55235  1.0000
  H   H1949     1.0  0.77046  0.29132  0.35577  1.0000
  H   H1950     1.0  0.93811  0.34989  0.57246  1.0000
  H   H1951     1.0  0.92993  0.33290  0.54876  1.0000
  H   H1952     1.0  0.84752  0.25004  0.51131  1.0000
  H   H1953     1.0  0.91440  0.24991  0.46408  1.0000
  C   C1636     1.0  0.90554  0.34329  0.32678  1.0000
  H   H1954     1.0  0.78276  0.34696  0.58241  1.0000
  C   C1637     1.0  0.84016  0.26156  0.34855  1.0000
  N   N110      1.0  0.92887  0.31929  0.63947  1.0000
  H   H1955     1.0  0.92432  0.34980  0.62807  1.0000
  H   H1956     1.0  0.83418  0.26032  0.57531  1.0000
  H   H1957     1.0  0.87408  0.26260  0.36468  1.0000
  H   H1958     1.0  0.95032  0.33660  0.46981  1.0000
  C   C1638     1.0  0.93018  0.33960  0.64033  1.0000
  H   H1959     1.0  0.88268  0.26970  0.42886  1.0000
  C   C1639     1.0  0.83216  0.24561  0.57605  1.0000
  C   C1640     1.0  0.89516  0.25654  0.39236  1.0000
  H   H1960     1.0  0.92491  0.36634  0.50187  1.0000
  H   H1961     1.0  0.68243  0.26212  0.33198  1.0000
  H   H1962     1.0  0.85655  0.35356  0.33824  1.0000
  C   C1641     1.0  0.88999  0.37154  0.46346  1.0000
  C   C1642     1.0  0.88146  0.38961  0.45432  1.0000
  C   C1643     1.0  0.89065  0.39855  0.43637  1.0000
  C   C1644     1.0  0.90858  0.38956  0.42754  1.0000
  C   C1645     1.0  0.91696  0.37132  0.43649  1.0000
  C   C1646     1.0  0.90766  0.36228  0.45434  1.0000
  H   H1963     1.0  0.86781  0.39687  0.46128  1.0000
  H   H1964     1.0  0.88408  0.41261  0.42962  1.0000
  H   H1965     1.0  0.93087  0.36434  0.42977  1.0000
  H   H1966     1.0  0.91440  0.34844  0.46129  1.0000
  C   C1647     1.0  0.81134  0.35377  0.56995  1.0000
  H   H1967     1.0  0.87576  0.33054  0.42782  1.0000
  H   H1968     1.0  0.98598  0.29694  0.54654  1.0000
  H   H1969     1.0  0.86052  0.26990  0.52658  1.0000
  H   H1970     1.0  0.88545  0.28333  0.36208  1.0000
  S   S440      1.0  0.88162  0.47079  0.35459  1.0000
  H   H1971     1.0  0.80682  0.35989  0.55610  1.0000
  C   C1648     1.0  0.96456  0.35263  0.50583  1.0000
  H   H1972     1.0  0.79557  0.28097  0.35546  1.0000
  H   H1973     1.0  0.98169  0.34951  0.45845  1.0000
  H   H1974     1.0  0.85936  0.28475  0.36975  1.0000
  S   S441      1.0  0.97150  0.34619  0.59029  1.0000
  H   H1975     1.0  0.90525  0.39779  0.34753  1.0000
  H   H1976     1.0  0.97459  0.33945  0.51125  1.0000
  C   C1649     1.0  0.82119  0.33694  0.60628  1.0000
  S   S442      1.0  0.98822  0.32262  0.63945  1.0000
  C   C1650     1.0  0.90224  0.31123  0.62456  1.0000
  H   H1977     1.0  0.85266  0.25161  0.47414  1.0000
  C   C1651     1.0  0.97991  0.31771  0.56627  1.0000
  H   H1978     1.0  0.94607  0.40949  0.44097  1.0000
  H   H1979     1.0  0.83635  0.38940  0.56218  1.0000
  H   H1980     1.0  0.82510  0.38392  0.54390  1.0000
  C   C1652     1.0  0.85249  0.24715  0.33918  1.0000
  C   C1653     1.0  0.88580  0.38109  0.38067  1.0000
  C   C1654     1.0  0.91771  0.39230  0.48244  1.0000
  H   H1981     1.0  0.79154  0.33213  0.61444  1.0000
  C   C1655     1.0  0.79950  0.26727  0.32111  1.0000
  H   H1982     1.0  0.83791  0.27347  0.54250  1.0000
  S   S443      1.0  0.98783  0.36936  0.62643  1.0000
  H   H1983     1.0  0.86467  0.36591  0.57371  1.0000
  C   C1656     1.0  0.83535  0.34390  0.59134  1.0000
  N   N111      1.0  0.78166  0.27161  0.33537  1.0000
  H   H1984     1.0  0.77852  0.24136  0.34281  1.0000
  H   H1985     1.0  0.82579  0.43325  0.33289  1.0000
  C   C1657     1.0  0.86265  0.25199  0.32037  1.0000
  H   H1986     1.0  0.90680  0.34509  0.38826  1.0000
  H   H1987     1.0  0.85832  0.35507  0.52737  1.0000
  H   H1988     1.0  0.87043  0.31032  0.37685  1.0000
  H   H1989     1.0  0.88219  0.29681  0.44503  1.0000
  N   N112      1.0  0.90242  0.37147  0.36781  1.0000
  H   H1990     1.0  0.87103  0.34243  0.56597  1.0000
  S   S444      1.0  0.82780  0.25600  0.37218  1.0000
  C   C1658     1.0  0.89648  0.36177  0.35387  1.0000
  C   C1659     1.0  0.83090  0.48340  0.36872  1.0000
  C   C1660     1.0  0.87670  0.36187  0.35285  1.0000
  C   C1661     1.0  0.91459  0.35715  0.38044  1.0000
  H   H1991     1.0  0.87855  0.30416  0.61393  1.0000
  H   H1992     1.0  0.98949  0.36322  0.47360  1.0000
  H   H1993     1.0  0.68022  0.29788  0.32295  1.0000
  H   H1994     1.0  0.86051  0.26560  0.55207  1.0000
  H   H1995     1.0  0.89774  0.25038  0.40739  1.0000
  C   C1662     1.0  0.95485  0.38384  0.46111  1.0000
  H   H1996     1.0  0.83365  0.35161  0.53408  1.0000
  H   H1997     1.0  0.84976  0.38747  0.53814  1.0000
  C   C1663     1.0  0.82296  0.44935  0.32945  1.0000
  Fe  Fe220     1.0  0.87287  0.46219  0.38652  1.0000
  C   C1664     1.0  0.79737  0.34661  0.58495  1.0000
  C   C1665     1.0  0.94943  0.37107  0.47856  1.0000
  C   C1666     1.0  0.92346  0.40450  0.46531  1.0000
  C   C1667     1.0  0.87379  0.27566  0.37119  1.0000
  H   H1998     1.0  0.90779  0.26361  0.38474  1.0000
  C   C1668     1.0  0.87989  0.29960  0.43000  1.0000
  H   H1999     1.0  0.92733  0.38067  0.34769  1.0000
  H   H2000     1.0  0.87671  0.37061  0.38977  1.0000
  C   C1669     1.0  0.87698  0.28707  0.40108  1.0000
  H   H2001     1.0  0.91205  0.30777  0.61159  1.0000
  H   H2002     1.0  0.91875  0.39404  0.36715  1.0000
  H   H2003     1.0  0.85221  0.33407  0.54424  1.0000
  H   H2004     1.0  0.82502  0.32988  0.62026  1.0000
  H   H2005     1.0  0.95067  0.35213  0.51612  1.0000
  H   H2006     1.0  0.76622  0.25607  0.36097  1.0000
  H   H2007     1.0  0.81208  0.26006  0.32843  1.0000
  H   H2008     1.0  0.84674  0.40270  0.32423  1.0000
  H   H2009     1.0  0.81153  0.45472  0.34117  1.0000
  H   H2010     1.0  0.83939  0.46926  0.36736  1.0000
  C   C1670     1.0  0.80228  0.33825  0.60307  1.0000
  H   H2011     1.0  0.81616  0.24578  0.60500  1.0000
  C   C1671     1.0  0.88021  0.28410  0.42058  1.0000
  N   N113      1.0  0.87662  0.27032  0.39183  1.0000
  C   C1672     1.0  0.86043  0.26029  0.40267  1.0000
  C   C1673     1.0  0.88607  0.34369  0.32615  1.0000
  C   C1674     1.0  0.83884  0.38114  0.54992  1.0000
  C   C1675     1.0  0.95349  0.33617  0.48461  1.0000
  C   C1676     1.0  0.83744  0.28065  0.33888  1.0000
  N   N114      1.0  0.84533  0.36021  0.55643  1.0000
  C   C1677     1.0  0.91074  0.35203  0.34051  1.0000
  H   H2012     1.0  0.94550  0.34162  0.63932  1.0000
  H   H2013     1.0  0.84623  0.27022  0.40310  1.0000
  H   H2014     1.0  0.82784  0.29184  0.34600  1.0000
  C   C1678     1.0  0.84740  0.34983  0.53984  1.0000
  H   H2015     1.0  0.83644  0.45438  0.33063  1.0000
  H   H2016     1.0  0.74803  0.25533  0.33734  1.0000
  H   H2017     1.0  0.86975  0.33679  0.39380  1.0000
  H   H2018     1.0  0.86237  0.25406  0.41785  1.0000
  C   C1679     1.0  0.86918  0.31317  0.64189  1.0000
  H   H2019     1.0  0.93807  0.32348  0.60838  1.0000
  H   H2020     1.0  0.78875  0.29961  0.33628  1.0000
  C   C1680     1.0  0.90171  0.24548  0.46119  1.0000
  C   C1681     1.0  0.94216  0.31386  0.62177  1.0000
  H   H2021     1.0  0.87650  0.39273  0.37210  1.0000
  S   S445      1.0  0.84754  0.48143  0.40082  1.0000
  S   S446      1.0  0.78377  0.24740  0.63702  1.0000
  H   H2022     1.0  0.95740  0.31539  0.62182  1.0000
  C   C1682     1.0  0.87333  0.30660  0.39158  1.0000
  H   H2023     1.0  0.93965  0.33555  0.49498  1.0000
  H   H2024     1.0  0.91336  0.41693  0.45992  1.0000
  C   C1683     1.0  0.94195  0.40025  0.45464  1.0000
  C   C1684     1.0  0.86495  0.35799  0.56165  1.0000
  C   C1685     1.0  0.84711  0.28532  0.31991  1.0000
  C   C1686     1.0  0.77943  0.25371  0.34978  1.0000
  H   H2025     1.0  0.89080  0.38821  0.39096  1.0000
  H   H2026     1.0  0.92848  0.35076  0.37211  1.0000
  C   C1687     1.0  0.87295  0.32204  0.40117  1.0000
  H   H2027     1.0  0.92605  0.35152  0.34023  1.0000
  C   C1688     1.0  0.85235  0.26400  0.54080  1.0000
  H   H2028     1.0  0.94254  0.29853  0.62041  1.0000
  H   H2029     1.0  0.91866  0.36394  0.39159  1.0000
  H   H2030     1.0  0.87895  0.23845  0.52452  1.0000
  C   C1689     1.0  0.87609  0.40843  0.31936  1.0000
  N   N115      1.0  0.85036  0.24351  0.54167  1.0000
  S   S447      1.0  0.74044  0.27518  0.64405  1.0000
  C   C1690     1.0  0.87169  0.35279  0.33926  1.0000
  C   C1691     1.0  0.82168  0.23734  0.59339  1.0000
  C   C1692     1.0  0.83947  0.23510  0.56038  1.0000
  C   C1693     1.0  0.90841  0.31751  0.63981  1.0000
  H   H2031     1.0  0.93896  0.47970  0.38814  1.0000
  C   C1694     1.0  0.68331  0.26883  0.31689  1.0000
  C   C1695     1.0  0.73362  0.27609  0.31714  1.0000
  H   H2032     1.0  0.78674  0.45928  0.32208  1.0000
  H   H2033     1.0  0.85428  0.31129  0.64278  1.0000
  C   C1696     1.0  0.86117  0.39979  0.31602  1.0000
  Fe  Fe221     1.0  0.85468  0.27064  0.76735  1.0000
  S   S448      1.0  0.87442  0.28563  0.77795  1.0000
  Fe  Fe222     1.0  0.84773  0.30285  0.73383  1.0000
  S   S449      1.0  0.86625  0.32091  0.74182  1.0000
  S   S450      1.0  0.83570  0.31265  0.70603  1.0000
  Fe  Fe223     1.0  0.88723  0.29329  0.74650  1.0000
  S   S451      1.0  0.91949  0.28841  0.73485  1.0000
  Fe  Fe224     1.0  0.85172  0.31187  0.77252  1.0000
  S   S452      1.0  0.84483  0.33387  0.79267  1.0000
  S   S453      1.0  0.86963  0.27576  0.73651  1.0000
  S   S454      1.0  0.83099  0.29638  0.76399  1.0000
  H   H2034     1.0  0.95724  0.28867  0.71130  1.0000
  Fe  Fe225     1.0  0.74405  0.27795  0.88044  1.0000
  S   S455      1.0  0.75489  0.29202  0.90070  1.0000
  C   C1697     1.0  0.65305  0.42874  0.97724  1.0000
  Fe  Fe226     1.0  0.71587  0.31345  0.86808  1.0000
  S   S456      1.0  0.72403  0.33105  0.88708  1.0000
  S   S457      1.0  0.69127  0.32353  0.85135  1.0000
  Fe  Fe227     1.0  0.75476  0.31741  0.87625  1.0000
  S   S458      1.0  0.77917  0.33490  0.86777  1.0000
  Fe  Fe228     1.0  0.72342  0.30420  0.90957  1.0000
  S   S459      1.0  0.70753  0.30090  0.94052  1.0000
  S   S460      1.0  0.74643  0.30225  0.85528  1.0000
  S   S461      1.0  0.71274  0.28774  0.89126  1.0000
  C   C1698     1.0  0.79047  0.29227  0.73910  1.0000
  H   H2035     1.0  0.66557  0.26777  0.88817  1.0000
  H   H2036     1.0  0.86390  0.32276  0.66954  1.0000
  Fe  Fe229     1.0  0.65928  0.26359  0.79472  1.0000
  S   S462      1.0  0.64568  0.29088  0.77764  1.0000
  S   S463      1.0  0.68778  0.25790  0.80512  1.0000
  H   H2037     1.0  0.61804  0.32323  0.91186  1.0000
  S   S464      1.0  0.61022  0.26718  0.77733  1.0000
  H   H2038     1.0  0.66686  0.28305  0.68802  1.0000
  Fe  Fe230     1.0  0.63940  0.27127  0.75950  1.0000
  S   S465      1.0  0.64541  0.27696  0.72683  1.0000
  Fe  Fe231     1.0  0.61773  0.28475  0.79695  1.0000
  S   S466      1.0  0.59750  0.30972  0.80901  1.0000
  H   H2039     1.0  0.88801  0.28655  0.68537  1.0000
  C   C1699     1.0  0.50628  0.23822  0.86962  1.0000
  Fe  Fe232     1.0  0.49610  0.31940  0.92781  1.0000
  S   S467      1.0  0.50503  0.33463  0.89739  1.0000
  S   S468      1.0  0.51482  0.31522  0.95178  1.0000
  Fe  Fe233     1.0  0.50241  0.30727  0.88766  1.0000
  S   S469      1.0  0.52281  0.28781  0.86805  1.0000
  S   S470      1.0  0.65545  0.24455  0.77493  1.0000
  C   C1700     1.0  0.57702  0.30359  0.82584  1.0000
  C   C1701     1.0  0.57309  0.28467  0.82970  1.0000
  C   C1702     1.0  0.55649  0.28008  0.84282  1.0000
  C   C1703     1.0  0.54381  0.29429  0.85233  1.0000
  C   C1704     1.0  0.54793  0.31315  0.84880  1.0000
  C   C1705     1.0  0.56448  0.31780  0.83550  1.0000
  H   H2040     1.0  0.58272  0.27361  0.82240  1.0000
  H   H2041     1.0  0.55341  0.26546  0.84552  1.0000
  H   H2042     1.0  0.53822  0.32419  0.85607  1.0000
  H   H2043     1.0  0.56749  0.33245  0.83262  1.0000
  C   C1706     1.0  0.67631  0.28359  0.69802  1.0000
  C   C1707     1.0  0.66940  0.28098  0.71805  1.0000
  C   C1708     1.0  0.68165  0.28178  0.73089  1.0000
  C   C1709     1.0  0.70046  0.28591  0.72370  1.0000
  H   H2044     1.0  0.64704  0.42177  0.96753  1.0000
  H   H2045     1.0  0.67656  0.27962  0.74637  1.0000
  H   H2046     1.0  0.70965  0.28705  0.73369  1.0000
  C   C1710     1.0  0.52772  0.33137  0.95836  1.0000
  H   H2047     1.0  0.97205  0.31453  0.68773  1.0000
  C   C1711     1.0  0.59925  0.28457  0.86970  1.0000
  Fe  Fe234     1.0  0.78822  0.25466  0.66479  1.0000
  C   C1712     1.0  0.52104  0.35133  0.95657  1.0000
  C   C1713     1.0  0.77813  0.27862  0.71642  1.0000
  H   H2048     1.0  0.50833  0.35751  0.94989  1.0000
  C   C1714     1.0  0.69066  0.30555  0.83805  1.0000
  C   C1715     1.0  0.67589  0.30778  0.82707  1.0000
  C   C1716     1.0  0.67508  0.29320  0.81679  1.0000
  C   C1717     1.0  0.68913  0.27645  0.81735  1.0000
  C   C1718     1.0  0.70387  0.27418  0.82836  1.0000
  C   C1719     1.0  0.70455  0.28866  0.83881  1.0000
  H   H2049     1.0  0.66505  0.32076  0.82655  1.0000
  H   H2050     1.0  0.66351  0.29494  0.80854  1.0000
  H   H2051     1.0  0.71463  0.26113  0.82906  1.0000
  H   H2052     1.0  0.71579  0.28660  0.84752  1.0000
  C   C1720     1.0  0.69199  0.32130  0.94833  1.0000
  C   C1721     1.0  0.67749  0.31871  0.96465  1.0000
  C   C1722     1.0  0.71376  0.24644  0.94515  1.0000
  C   C1723     1.0  0.66661  0.35345  0.96127  1.0000
  C   C1724     1.0  0.68127  0.35606  0.94511  1.0000
  C   C1725     1.0  0.69387  0.34001  0.93857  1.0000
  Fe  Fe235     1.0  0.74849  0.27964  0.67157  1.0000
  C   C1726     1.0  0.66232  0.24121  0.85458  1.0000
  H   H2053     1.0  0.68289  0.37053  0.93761  1.0000
  H   H2054     1.0  0.70525  0.34214  0.92619  1.0000
  C   C1727     1.0  0.83149  0.29267  0.69762  1.0000
  C   C1728     1.0  0.83238  0.27461  0.70961  1.0000
  C   C1729     1.0  0.82823  0.25875  0.70328  1.0000
  C   C1730     1.0  0.82284  0.26105  0.68503  1.0000
  H   H2055     1.0  0.79436  0.25202  0.83148  1.0000
  C   C1731     1.0  0.69536  0.28715  0.69084  1.0000
  H   H2056     1.0  0.83547  0.27308  0.72408  1.0000
  C   C1732     1.0  0.93611  0.30649  0.65655  1.0000
  H   H2057     1.0  0.59414  0.33919  0.76743  1.0000
  C   C1733     1.0  0.82619  0.33300  0.81326  1.0000
  C   C1734     1.0  0.81327  0.31960  0.81760  1.0000
  C   C1735     1.0  0.79857  0.31991  0.83423  1.0000
  C   C1736     1.0  0.79691  0.33353  0.84655  1.0000
  C   C1737     1.0  0.80995  0.34669  0.84212  1.0000
  C   C1738     1.0  0.82439  0.34648  0.82561  1.0000
  H   H2058     1.0  0.81451  0.30914  0.80813  1.0000
  H   H2059     1.0  0.78860  0.30964  0.83756  1.0000
  H   H2060     1.0  0.80882  0.35721  0.85151  1.0000
  H   H2061     1.0  0.83422  0.35687  0.82242  1.0000
  C   C1739     1.0  0.94605  0.33580  0.69045  1.0000
  C   C1740     1.0  0.92652  0.33931  0.69921  1.0000
  C   C1741     1.0  0.91802  0.32460  0.71220  1.0000
  C   C1742     1.0  0.92913  0.30641  0.71689  1.0000
  C   C1743     1.0  0.94855  0.30272  0.70775  1.0000
  C   C1744     1.0  0.95696  0.31734  0.69441  1.0000
  H   H2062     1.0  0.91804  0.35358  0.69622  1.0000
  H   H2063     1.0  0.90307  0.32757  0.71903  1.0000
  C   C1745     1.0  0.54421  0.32366  0.96730  1.0000
  H   H2064     1.0  0.61979  0.24470  0.89722  1.0000
  H   H2065     1.0  0.67106  0.24142  0.71390  1.0000
  H   H2066     1.0  0.76469  0.23539  0.78091  1.0000
  S   S471      1.0  0.84876  0.24143  0.78331  1.0000
  S   S472      1.0  0.63213  0.25920  0.81582  1.0000
  H   H2067     1.0  0.67395  0.31680  0.89413  1.0000
  H   H2068     1.0  0.78732  0.26434  0.72005  1.0000
  H   H2069     1.0  0.90833  0.24981  0.73891  1.0000
  H   H2070     1.0  0.78354  0.25341  0.75320  1.0000
  C   C1746     1.0  0.61729  0.36349  0.94138  1.0000
  C   C1747     1.0  0.76886  0.25999  0.75833  1.0000
  S   S473      1.0  0.75939  0.24833  0.68118  1.0000
  H   H2071     1.0  0.67678  0.35063  0.88345  1.0000
  H   H2072     1.0  0.65306  0.44423  0.97069  1.0000
  H   H2073     1.0  0.54946  0.30825  0.96887  1.0000
  C   C1748     1.0  0.73920  0.25723  0.78138  1.0000
  C   C1749     1.0  0.63378  0.27811  0.85788  1.0000
  H   H2074     1.0  0.52453  0.37853  0.96334  1.0000
  H   H2075     1.0  0.71949  0.24596  0.90259  1.0000
  H   H2076     1.0  0.58901  0.35731  0.95534  1.0000
  N   N116      1.0  0.65573  0.24931  0.87288  1.0000
  H   H2077     1.0  0.83211  0.23961  0.84552  1.0000
  N   N117      1.0  0.77260  0.28957  0.73291  1.0000
  H   H2078     1.0  0.79908  0.30161  0.72759  1.0000
  C   C1750     1.0  0.76239  0.30912  0.72564  1.0000
  H   H2079     1.0  0.92815  0.31079  0.67054  1.0000
  C   C1751     1.0  0.63348  0.35914  0.92726  1.0000
  H   H2080     1.0  0.76502  0.27587  0.71174  1.0000
  C   C1752     1.0  0.82235  0.27902  0.67282  1.0000
  C   C1753     1.0  0.60157  0.35372  0.94448  1.0000
  C   C1754     1.0  0.61552  0.28942  0.85659  1.0000
  H   H2081     1.0  0.74914  0.30824  0.72003  1.0000
  H   H2082     1.0  0.80037  0.27839  0.74243  1.0000
  H   H2083     1.0  0.89750  0.32683  0.66800  1.0000
  H   H2084     1.0  0.91003  0.26787  0.70698  1.0000
  H   H2085     1.0  0.79561  0.24184  0.85644  1.0000
  H   H2086     1.0  0.93699  0.24827  0.71417  1.0000
  C   C1755     1.0  0.88957  0.27090  0.68812  1.0000
  H   H2087     1.0  0.77169  0.31688  0.71328  1.0000
  C   C1756     1.0  0.61008  0.33892  0.76277  1.0000
  H   H2088     1.0  0.61706  0.32721  0.77321  1.0000
  H   H2089     1.0  0.61320  0.35301  0.76472  1.0000
  H   H2090     1.0  0.64572  0.33868  0.76307  1.0000
  H   H2091     1.0  0.82566  0.30889  0.66993  1.0000
  H   H2092     1.0  0.61892  0.30446  0.74992  1.0000
  H   H2093     1.0  0.59507  0.31679  0.74659  1.0000
  H   H2094     1.0  0.75827  0.31838  0.73718  1.0000
  C   C1757     1.0  0.87466  0.31960  0.65694  1.0000
  H   H2095     1.0  0.61379  0.31373  0.72605  1.0000
  H   H2096     1.0  0.91257  0.34933  0.79207  1.0000
  H   H2097     1.0  0.88654  0.35371  0.79374  1.0000
  N   N118      1.0  0.61669  0.33534  0.74244  1.0000
  C   C1758     1.0  0.61083  0.31688  0.74114  1.0000
  H   H2098     1.0  0.59024  0.35309  0.73463  1.0000
  C   C1759     1.0  0.76079  0.27862  0.74933  1.0000
  C   C1760     1.0  0.66141  0.32067  0.90561  1.0000
  C   C1761     1.0  0.60625  0.35131  0.72970  1.0000
  H   H2099     1.0  0.61095  0.36532  0.72957  1.0000
  H   H2100     1.0  0.88625  0.32466  0.78160  1.0000
  H   H2101     1.0  0.90198  0.31896  0.75985  1.0000
  C   C1762     1.0  0.63795  0.33426  0.73600  1.0000
  C   C1763     1.0  0.90048  0.35590  0.78381  1.0000
  C   C1764     1.0  0.65071  0.33642  0.74822  1.0000
  H   H2102     1.0  0.90043  0.37178  0.78037  1.0000
  H   H2103     1.0  0.60885  0.34875  0.71442  1.0000
  H   H2104     1.0  0.63785  0.32874  0.70690  1.0000
  C   C1765     1.0  0.90064  0.32642  0.77249  1.0000
  H   H2105     1.0  0.93521  0.31954  0.75472  1.0000
  C   C1766     1.0  0.64648  0.33102  0.71688  1.0000
  H   H2106     1.0  0.68023  0.33656  0.75127  1.0000
  C   C1767     1.0  0.67070  0.33528  0.74160  1.0000
  H   H2107     1.0  0.87200  0.35322  0.76392  1.0000
  C   C1768     1.0  0.66644  0.33015  0.71035  1.0000
  N   N119      1.0  0.90257  0.34716  0.76612  1.0000
  H   H2108     1.0  0.91170  0.31856  0.78157  1.0000
  Fe  Fe236     1.0  0.62716  0.24210  0.79466  1.0000
  C   C1769     1.0  0.67853  0.33221  0.72270  1.0000
  H   H2109     1.0  0.67270  0.32727  0.69582  1.0000
  C   C1770     1.0  0.88625  0.35664  0.75558  1.0000
  C   C1771     1.0  0.60210  0.33924  0.93377  1.0000
  C   C1772     1.0  0.63632  0.26147  0.87239  1.0000
  H   H2110     1.0  0.69408  0.33096  0.71768  1.0000
  H   H2111     1.0  0.88829  0.35189  0.74123  1.0000
  H   H2112     1.0  0.88463  0.37268  0.75293  1.0000
  C   C1773     1.0  0.93641  0.33452  0.74903  1.0000
  H   H2113     1.0  0.81859  0.28072  0.65852  1.0000
  C   C1774     1.0  0.61941  0.25704  0.88571  1.0000
  C   C1775     1.0  0.66492  0.35403  0.89573  1.0000
  H   H2114     1.0  0.68914  0.25017  0.68185  1.0000
  C   C1776     1.0  0.95605  0.35658  0.72744  1.0000
  C   C1777     1.0  0.92130  0.35010  0.75345  1.0000
  H   H2115     1.0  0.95167  0.30699  0.65645  1.0000
  N   N120      1.0  0.65074  0.34039  0.89996  1.0000
  C   C1778     1.0  0.70733  0.28867  0.70368  1.0000
  H   H2116     1.0  0.65535  0.34001  0.86903  1.0000
  C   C1779     1.0  0.92473  0.36908  0.74481  1.0000
  C   C1780     1.0  0.95350  0.33784  0.73623  1.0000
  H   H2117     1.0  0.96453  0.32571  0.73251  1.0000
  H   H2118     1.0  0.91406  0.38165  0.74771  1.0000
  H   H2119     1.0  0.61389  0.30180  0.84507  1.0000
  C   C1781     1.0  0.82656  0.29487  0.67916  1.0000
  H   H2120     1.0  0.65780  0.36925  0.89166  1.0000
  Fe  Fe237     1.0  0.98404  0.34829  0.65421  1.0000
  H   H2121     1.0  0.73376  0.29983  0.75095  1.0000
  S   S474      1.0  0.49493  0.29153  0.91797  1.0000
  C   C1782     1.0  0.94178  0.37219  0.73185  1.0000
  H   H2122     1.0  0.64583  0.28227  0.84708  1.0000
  C   C1783     1.0  0.63425  0.34485  0.91562  1.0000
  C   C1784     1.0  0.90373  0.23956  0.70538  1.0000
  H   H2123     1.0  0.94382  0.38674  0.72487  1.0000
  C   C1785     1.0  0.64337  0.34120  0.88163  1.0000
  H   H2124     1.0  0.96896  0.35897  0.71688  1.0000
  H   H2125     1.0  0.65204  0.30941  0.90811  1.0000
  C   C1786     1.0  0.73075  0.27534  0.77274  1.0000
  H   H2126     1.0  0.49241  0.26901  0.88894  1.0000
  S   S475      1.0  0.65075  0.37374  0.96892  1.0000
  C   C1787     1.0  0.55365  0.33563  0.97464  1.0000
  H   H2127     1.0  0.70055  0.28945  0.67534  1.0000
  H   H2128     1.0  0.63538  0.32917  0.88223  1.0000
  C   C1788     1.0  0.75820  0.24953  0.77416  1.0000
  C   C1789     1.0  0.66472  0.33473  0.97104  1.0000
  C   C1790     1.0  0.79562  0.23818  0.84193  1.0000
  C   C1791     1.0  0.66999  0.26119  0.87471  1.0000
  C   C1792     1.0  0.74128  0.28595  0.75693  1.0000
  C   C1793     1.0  0.61825  0.33470  0.91966  1.0000
  S   S476      1.0  0.81472  0.24207  0.67849  1.0000
  H   H2129     1.0  0.51669  0.24869  0.86652  1.0000
  S   S477      1.0  0.75545  0.24760  0.87530  1.0000
  H   H2130     1.0  0.71589  0.28118  0.77838  1.0000
  H   H2131     1.0  0.67193  0.24300  0.67033  1.0000
  C   C1794     1.0  0.89395  0.32183  0.65594  1.0000
  S   S478      1.0  0.95655  0.35506  0.67553  1.0000
  H   H2132     1.0  0.66731  0.31958  0.91926  1.0000
  H   H2133     1.0  0.58985  0.33159  0.93641  1.0000
  H   H2134     1.0  0.78657  0.28664  0.70354  1.0000
  H   H2135     1.0  0.63355  0.35514  0.87806  1.0000
  H   H2136     1.0  0.68478  0.25245  0.87507  1.0000
  H   H2137     1.0  0.82833  0.24495  0.71286  1.0000
  H   H2138     1.0  0.61697  0.37447  0.95007  1.0000
  S   S479      1.0  0.73023  0.29561  0.69497  1.0000
  H   H2139     1.0  0.84828  0.24502  0.74241  1.0000
  H   H2140     1.0  0.64519  0.36716  0.92586  1.0000
  H   H2141     1.0  0.67233  0.35311  0.90831  1.0000
  C   C1795     1.0  0.60120  0.26849  0.88427  1.0000
  H   H2142     1.0  0.86816  0.27029  0.67085  1.0000
  H   H2143     1.0  0.70468  0.25986  0.94845  1.0000
  H   H2144     1.0  0.73093  0.24918  0.79370  1.0000
  C   C1796     1.0  0.53024  0.36323  0.96428  1.0000
  H   H2145     1.0  0.58504  0.29319  0.86841  1.0000
  C   C1797     1.0  0.87831  0.26178  0.68003  1.0000
  H   H2146     1.0  0.93477  0.29117  0.65684  1.0000
  H   H2147     1.0  0.78689  0.29927  0.75232  1.0000
  H   H2148     1.0  0.58840  0.26477  0.89436  1.0000
  H   H2149     1.0  0.56615  0.32948  0.98158  1.0000
  H   H2150     1.0  0.82783  0.24840  0.82121  1.0000
  H   H2151     1.0  0.66838  0.42141  0.97682  1.0000
  C   C1798     1.0  0.90217  0.26001  0.70052  1.0000
  C   C1799     1.0  0.54642  0.35544  0.97363  1.0000
  H   H2152     1.0  0.92226  0.34432  0.65416  1.0000
  Fe  Fe238     1.0  0.75372  0.24425  0.65257  1.0000
  H   H2153     1.0  0.66370  0.25272  0.84167  1.0000
  H   H2154     1.0  0.73960  0.25924  0.93607  1.0000
  C   C1800     1.0  0.87968  0.24172  0.68421  1.0000
  C   C1801     1.0  0.72111  0.23535  0.89324  1.0000
  C   C1802     1.0  0.83003  0.23498  0.83214  1.0000
  S   S480      1.0  0.77794  0.28658  0.65737  1.0000
  H   H2155     1.0  0.67603  0.30426  0.97230  1.0000
  C   C1803     1.0  0.68525  0.23774  0.67705  1.0000
  H   H2156     1.0  0.67179  0.27315  0.86225  1.0000
  H   H2157     1.0  0.65182  0.23769  0.90353  1.0000
  C   C1804     1.0  0.73350  0.24604  0.93819  1.0000
  H   H2158     1.0  0.49226  0.27477  0.85560  1.0000
  H   H2159     1.0  0.87054  0.23473  0.67820  1.0000
  H   H2160     1.0  0.65304  0.23524  0.70318  1.0000
  H   H2161     1.0  0.65268  0.62595  0.26062  1.0000
  H   H2162     1.0  0.67829  0.65633  0.21972  1.0000
  H   H2163     1.0  0.53824  0.55059  0.06583  1.0000
  H   H2164     1.0  0.81447  0.71224  0.17912  1.0000
  Fe  Fe239     1.0  0.88011  0.68963  0.20255  1.0000
  S   S481      1.0  0.89283  0.68967  0.17104  1.0000
  S   S482      1.0  0.89567  0.67387  0.22711  1.0000
  H   H2165     1.0  0.86666  0.63323  0.31302  1.0000
  Fe  Fe240     1.0  0.86209  0.68866  0.16773  1.0000
  S   S483      1.0  0.85563  0.67010  0.14793  1.0000
  S   S484      1.0  0.85019  0.68635  0.19948  1.0000
  S   S485      1.0  0.85462  0.72111  0.16154  1.0000
  H   H2166     1.0  0.83350  0.65916  0.26490  1.0000
  C   C1805     1.0  0.80873  0.70219  0.17241  1.0000
  S   S486      1.0  0.51243  0.62084  0.09436  1.0000
  S   S487      1.0  0.51633  0.57852  0.13885  1.0000
  Fe  Fe241     1.0  0.50446  0.64828  0.10735  1.0000
  S   S488      1.0  0.53061  0.66399  0.10194  1.0000
  C   C1806     1.0  0.62354  0.66087  0.19979  1.0000
  H   H2167     1.0  0.50673  0.55231  0.06117  1.0000
  C   C1807     1.0  0.84532  0.62659  0.21393  1.0000
  Fe  Fe242     1.0  0.65819  0.70378  0.28725  1.0000
  S   S489      1.0  0.65886  0.68497  0.26534  1.0000
  C   C1808     1.0  0.61102  0.71509  0.23052  1.0000
  S   S490      1.0  0.59464  0.70460  0.17124  1.0000
  Fe  Fe243     1.0  0.62320  0.70822  0.15228  1.0000
  S   S491      1.0  0.64166  0.68055  0.14437  1.0000
  Fe  Fe244     1.0  0.76930  0.60807  0.15938  1.0000
  S   S492      1.0  0.76167  0.61840  0.18789  1.0000
  S   S493      1.0  0.79728  0.61548  0.14043  1.0000
  Fe  Fe245     1.0  0.73306  0.58771  0.16625  1.0000
  S   S494      1.0  0.72377  0.59677  0.19580  1.0000
  S   S495      1.0  0.70858  0.57291  0.16191  1.0000
  Fe  Fe246     1.0  0.73148  0.62549  0.18118  1.0000
  S   S496      1.0  0.71310  0.65303  0.18892  1.0000
  Fe  Fe247     1.0  0.75490  0.58864  0.19953  1.0000
  S   S497      1.0  0.76409  0.57054  0.22686  1.0000
  S   S498      1.0  0.73928  0.61751  0.15140  1.0000
  S   S499      1.0  0.76413  0.57734  0.17127  1.0000
  H   H2168     1.0  0.84493  0.59609  0.30030  1.0000
  S   S500      1.0  0.80195  0.60599  0.28209  1.0000
  C   C1809     1.0  0.67515  0.64528  0.23282  1.0000
  S   S501      1.0  0.64584  0.50309  0.09460  1.0000
  S   S502      1.0  0.60129  0.53934  0.10443  1.0000
  Fe  Fe248     1.0  0.66212  0.49929  0.11953  1.0000
  S   S503      1.0  0.69037  0.51129  0.11641  1.0000
  H   H2169     1.0  0.74611  0.67125  0.16310  1.0000
  C   C1810     1.0  0.70478  0.55461  0.14991  1.0000
  C   C1811     1.0  0.71788  0.54824  0.13412  1.0000
  C   C1812     1.0  0.71335  0.53480  0.12423  1.0000
  C   C1813     1.0  0.69577  0.52745  0.13003  1.0000
  C   C1814     1.0  0.68295  0.53336  0.14619  1.0000
  C   C1815     1.0  0.68735  0.54699  0.15589  1.0000
  H   H2170     1.0  0.73131  0.55399  0.12927  1.0000
  H   H2171     1.0  0.72348  0.53027  0.11184  1.0000
  H   H2172     1.0  0.66950  0.52767  0.15109  1.0000
  H   H2173     1.0  0.67711  0.55175  0.16811  1.0000
  C   C1816     1.0  0.77497  0.58076  0.24164  1.0000
  C   C1817     1.0  0.77784  0.60008  0.23709  1.0000
  C   C1818     1.0  0.78640  0.60779  0.24939  1.0000
  C   C1819     1.0  0.79211  0.59617  0.26624  1.0000
  C   C1820     1.0  0.78942  0.57683  0.27067  1.0000
  C   C1821     1.0  0.78087  0.56916  0.25841  1.0000
  H   H2174     1.0  0.77334  0.60919  0.22427  1.0000
  H   H2175     1.0  0.78840  0.62279  0.24594  1.0000
  H   H2176     1.0  0.79409  0.56768  0.28349  1.0000
  H   H2177     1.0  0.77877  0.55419  0.26197  1.0000
  C   C1822     1.0  0.66151  0.67292  0.15678  1.0000
  C   C1823     1.0  0.67476  0.65630  0.15291  1.0000
  C   C1824     1.0  0.69071  0.65011  0.16270  1.0000
  C   C1825     1.0  0.69357  0.66071  0.17617  1.0000
  C   C1826     1.0  0.68017  0.67711  0.18026  1.0000
  C   C1827     1.0  0.66408  0.68307  0.17072  1.0000
  H   H2178     1.0  0.67273  0.64825  0.14232  1.0000
  H   H2179     1.0  0.70069  0.63713  0.15984  1.0000
  H   H2180     1.0  0.68213  0.68518  0.19090  1.0000
  H   H2181     1.0  0.65365  0.69541  0.17433  1.0000
  C   C1828     1.0  0.64042  0.69617  0.25192  1.0000
  C   C1829     1.0  0.62902  0.70693  0.22099  1.0000
  C   C1830     1.0  0.64370  0.69736  0.23171  1.0000
  H   H2182     1.0  0.63158  0.70764  0.20545  1.0000
  H   H2183     1.0  0.65759  0.69109  0.22429  1.0000
  C   C1831     1.0  0.54028  0.56813  0.12951  1.0000
  C   C1832     1.0  0.54952  0.55131  0.14014  1.0000
  C   C1833     1.0  0.56835  0.54238  0.13287  1.0000
  C   C1834     1.0  0.57803  0.55025  0.11484  1.0000
  C   C1835     1.0  0.56896  0.56731  0.10445  1.0000
  C   C1836     1.0  0.55021  0.57622  0.11173  1.0000
  H   H2184     1.0  0.54199  0.54497  0.15396  1.0000
  H   H2185     1.0  0.57520  0.52926  0.14103  1.0000
  H   H2186     1.0  0.57636  0.57349  0.09050  1.0000
  H   H2187     1.0  0.54343  0.58919  0.10340  1.0000
  C   C1837     1.0  0.53639  0.68060  0.11472  1.0000
  C   C1838     1.0  0.55597  0.68256  0.11304  1.0000
  C   C1839     1.0  0.56126  0.69614  0.12217  1.0000
  C   C1840     1.0  0.54693  0.70843  0.13252  1.0000
  C   C1841     1.0  0.52737  0.70636  0.13433  1.0000
  C   C1842     1.0  0.52213  0.69231  0.12576  1.0000
  H   H2188     1.0  0.56714  0.67364  0.10449  1.0000
  H   H2189     1.0  0.57634  0.69764  0.12053  1.0000
  H   H2190     1.0  0.50701  0.69107  0.12710  1.0000
  C   C1843     1.0  0.82922  0.59914  0.21644  1.0000
  C   C1844     1.0  0.83839  0.65529  0.14750  1.0000
  C   C1845     1.0  0.84081  0.64668  0.13097  1.0000
  C   C1846     1.0  0.82800  0.63477  0.12926  1.0000
  C   C1847     1.0  0.81228  0.63127  0.14398  1.0000
  C   C1848     1.0  0.80968  0.63979  0.16076  1.0000
  C   C1849     1.0  0.82277  0.65175  0.16255  1.0000
  H   H2191     1.0  0.85278  0.64921  0.11928  1.0000
  H   H2192     1.0  0.83029  0.62827  0.11631  1.0000
  H   H2193     1.0  0.79763  0.63727  0.17229  1.0000
  H   H2194     1.0  0.82090  0.65798  0.17557  1.0000
  C   C1850     1.0  0.85261  0.66358  0.28302  1.0000
  C   C1851     1.0  0.87119  0.66684  0.28365  1.0000
  C   C1852     1.0  0.88472  0.66915  0.26649  1.0000
  C   C1853     1.0  0.87953  0.66861  0.24867  1.0000
  C   C1854     1.0  0.86117  0.66470  0.24818  1.0000
  C   C1855     1.0  0.84777  0.66200  0.26537  1.0000
  H   H2195     1.0  0.87517  0.66761  0.29733  1.0000
  H   H2196     1.0  0.89900  0.67197  0.26693  1.0000
  H   H2197     1.0  0.85734  0.66362  0.23460  1.0000
  H   H2198     1.0  0.57232  0.71595  0.08007  1.0000
  H   H2199     1.0  0.86023  0.63677  0.18550  1.0000
  H   H2200     1.0  0.75601  0.69513  0.17729  1.0000
  N   N121      1.0  0.56016  0.61958  0.14390  1.0000
  C   C1856     1.0  0.55878  0.59960  0.15451  1.0000
  C   C1857     1.0  0.54278  0.63259  0.15217  1.0000
  C   C1858     1.0  0.55930  0.62006  0.12320  1.0000
  C   C1859     1.0  0.57863  0.62556  0.14513  1.0000
  C   C1860     1.0  0.57969  0.64494  0.14651  1.0000
  C   C1861     1.0  0.59645  0.61239  0.14354  1.0000
  C   C1862     1.0  0.59734  0.65045  0.14711  1.0000
  C   C1863     1.0  0.61398  0.61801  0.14440  1.0000
  C   C1864     1.0  0.61441  0.63700  0.14621  1.0000
  H   H2201     1.0  0.56166  0.59792  0.16962  1.0000
  H   H2202     1.0  0.54412  0.59581  0.15545  1.0000
  H   H2203     1.0  0.56885  0.58826  0.14712  1.0000
  H   H2204     1.0  0.54374  0.63450  0.16708  1.0000
  H   H2205     1.0  0.52913  0.62685  0.15313  1.0000
  H   H2206     1.0  0.54060  0.64707  0.14290  1.0000
  H   H2207     1.0  0.57106  0.60941  0.11656  1.0000
  H   H2208     1.0  0.54517  0.61679  0.12137  1.0000
  H   H2209     1.0  0.56088  0.63463  0.11454  1.0000
  H   H2210     1.0  0.56709  0.65619  0.14701  1.0000
  H   H2211     1.0  0.59707  0.59769  0.14149  1.0000
  H   H2212     1.0  0.59783  0.66533  0.14816  1.0000
  H   H2213     1.0  0.62735  0.60763  0.14353  1.0000
  H   H2214     1.0  0.62801  0.64144  0.14672  1.0000
  N   N122      1.0  0.65184  0.56740  0.09619  1.0000
  C   C1865     1.0  0.64434  0.55402  0.11349  1.0000
  C   C1866     1.0  0.63753  0.57150  0.08267  1.0000
  C   C1867     1.0  0.67031  0.55732  0.08626  1.0000
  C   C1868     1.0  0.65531  0.58490  0.10236  1.0000
  C   C1869     1.0  0.66914  0.58329  0.11473  1.0000
  C   C1870     1.0  0.64513  0.60379  0.09663  1.0000
  C   C1871     1.0  0.67274  0.59951  0.12081  1.0000
  C   C1872     1.0  0.64892  0.61996  0.10272  1.0000
  C   C1873     1.0  0.66273  0.61783  0.11472  1.0000
  H   H2215     1.0  0.65485  0.54891  0.12374  1.0000
  H   H2216     1.0  0.63053  0.56097  0.12157  1.0000
  H   H2217     1.0  0.64132  0.54083  0.10934  1.0000
  H   H2218     1.0  0.62286  0.57790  0.08964  1.0000
  H   H2219     1.0  0.63545  0.55797  0.07829  1.0000
  H   H2220     1.0  0.64233  0.58129  0.06908  1.0000
  H   H2221     1.0  0.68134  0.55193  0.09598  1.0000
  H   H2222     1.0  0.66816  0.54423  0.08113  1.0000
  H   H2223     1.0  0.67687  0.56708  0.07351  1.0000
  H   H2224     1.0  0.67737  0.56944  0.11978  1.0000
  H   H2225     1.0  0.63423  0.60649  0.08739  1.0000
  H   H2226     1.0  0.68348  0.59780  0.13024  1.0000
  H   H2227     1.0  0.64111  0.63429  0.09814  1.0000
  H   H2228     1.0  0.66567  0.63042  0.11933  1.0000
  C   C1874     1.0  0.49646  0.55053  0.07511  1.0000
  H   H2229     1.0  0.63277  0.65271  0.25275  1.0000
  H   H2230     1.0  0.85188  0.56092  0.19934  1.0000
  N   N123      1.0  0.79045  0.71154  0.16515  1.0000
  C   C1875     1.0  0.54162  0.51766  0.11558  1.0000
  C   C1876     1.0  0.76553  0.69042  0.16469  1.0000
  C   C1877     1.0  0.52412  0.52994  0.11283  1.0000
  H   H2231     1.0  0.76650  0.65859  0.13448  1.0000
  H   H2232     1.0  0.82021  0.58925  0.22561  1.0000
  C   C1878     1.0  0.64056  0.64889  0.20460  1.0000
  C   C1879     1.0  0.79020  0.73381  0.29698  1.0000
  H   H2233     1.0  0.70939  0.49293  0.15515  1.0000
  H   H2234     1.0  0.83465  0.72198  0.24775  1.0000
  C   C1880     1.0  0.83406  0.61317  0.22502  1.0000
  N   N124      1.0  0.72786  0.62182  0.28808  1.0000
  C   C1881     1.0  0.74303  0.62760  0.29625  1.0000
  C   C1882     1.0  0.70971  0.62236  0.30263  1.0000
  C   C1883     1.0  0.73435  0.60137  0.28501  1.0000
  C   C1884     1.0  0.72461  0.63543  0.26998  1.0000
  C   C1885     1.0  0.73185  0.63036  0.25124  1.0000
  C   C1886     1.0  0.71470  0.65469  0.27069  1.0000
  C   C1887     1.0  0.72891  0.64361  0.23439  1.0000
  C   C1888     1.0  0.71144  0.66768  0.25374  1.0000
  C   C1889     1.0  0.71854  0.66215  0.23562  1.0000
  H   H2235     1.0  0.59362  0.71928  0.25817  1.0000
  H   H2236     1.0  0.75705  0.62706  0.28592  1.0000
  C   C1890     1.0  0.95165  0.71840  0.14405  1.0000
  H   H2237     1.0  0.88749  0.61867  0.30177  1.0000
  H   H2238     1.0  0.97665  0.63001  0.29205  1.0000
  H   H2239     1.0  0.73506  0.59122  0.29899  1.0000
  H   H2240     1.0  0.72429  0.59663  0.27746  1.0000
  H   H2241     1.0  0.74927  0.59910  0.27649  1.0000
  H   H2242     1.0  0.73987  0.61623  0.24917  1.0000
  H   H2243     1.0  0.70937  0.65997  0.28431  1.0000
  H   H2244     1.0  0.73460  0.63942  0.22026  1.0000
  H   H2245     1.0  0.70328  0.68211  0.25468  1.0000
  H   H2246     1.0  0.71595  0.67221  0.22247  1.0000
  H   H2247     1.0  0.67126  0.60824  0.25114  1.0000
  C   C1891     1.0  0.84874  0.71573  0.25271  1.0000
  S   S504      1.0  0.49315  0.63357  0.13724  1.0000
  C   C1892     1.0  0.83609  0.56356  0.19859  1.0000
  C   C1893     1.0  0.83563  0.59806  0.19641  1.0000
  C   C1894     1.0  0.78328  0.69748  0.15666  1.0000
  H   H2248     1.0  0.49248  0.55931  0.12098  1.0000
  Fe  Fe249     1.0  0.58207  0.72847  0.14956  1.0000
  C   C1895     1.0  0.85176  0.62605  0.19421  1.0000
  H   H2249     1.0  0.51379  0.57970  0.09740  1.0000
  C   C1896     1.0  0.79717  0.72449  0.28093  1.0000
  H   H2250     1.0  0.68628  0.61108  0.21936  1.0000
  H   H2251     1.0  0.82043  0.69737  0.16065  1.0000
  S   S505      1.0  0.87365  0.72194  0.19975  1.0000
  H   H2252     1.0  0.82801  0.56146  0.21371  1.0000
  H   H2253     1.0  0.88360  0.72977  0.27033  1.0000
  C   C1897     1.0  0.84703  0.61205  0.18549  1.0000
  H   H2254     1.0  0.95843  0.61523  0.29368  1.0000
  H   H2255     1.0  0.84896  0.63752  0.22057  1.0000
  C   C1898     1.0  0.55611  0.52940  0.08289  1.0000
  H   H2256     1.0  0.82889  0.61372  0.24036  1.0000
  H   H2257     1.0  0.60589  0.72306  0.07156  1.0000
  Fe  Fe250     1.0  0.50032  0.60646  0.12381  1.0000
  S   S506      1.0  0.63576  0.50829  0.14066  1.0000
  C   C1899     1.0  0.83910  0.58308  0.16697  1.0000
  C   C1900     1.0  0.65808  0.61868  0.24769  1.0000
  Fe  Fe251     1.0  0.60029  0.72791  0.18529  1.0000
  C   C1901     1.0  0.80877  0.58658  0.18870  1.0000
  H   H2258     1.0  0.62122  0.66422  0.18479  1.0000
  H   H2259     1.0  0.83313  0.55197  0.19169  1.0000
  H   H2260     1.0  0.84570  0.70424  0.26543  1.0000
  H   H2261     1.0  0.80399  0.57611  0.18167  1.0000
  C   C1902     1.0  0.79446  0.68996  0.14012  1.0000
  H   H2262     1.0  0.80647  0.68923  0.18364  1.0000
  C   C1903     1.0  0.75957  0.67665  0.15664  1.0000
  H   H2263     1.0  0.87277  0.70848  0.27786  1.0000
  H   H2264     1.0  0.51616  0.71584  0.14224  1.0000
  H   H2265     1.0  0.57131  0.50836  0.10313  1.0000
  H   H2266     1.0  0.68933  0.63694  0.23624  1.0000
  C   C1904     1.0  0.96406  0.71793  0.15705  1.0000
  H   H2267     1.0  0.69737  0.62017  0.29632  1.0000
  H   H2268     1.0  0.51260  0.52975  0.12522  1.0000
  H   H2269     1.0  0.66421  0.61205  0.21038  1.0000
  H   H2270     1.0  0.88646  0.71232  0.25405  1.0000
  H   H2271     1.0  0.79578  0.72476  0.25096  1.0000
  H   H2272     1.0  0.61976  0.70310  0.27709  1.0000
  C   C1905     1.0  0.55759  0.51745  0.10070  1.0000
  H   H2273     1.0  0.65075  0.64347  0.19274  1.0000
  C   C1906     1.0  0.64432  0.64477  0.22402  1.0000
  H   H2274     1.0  0.59686  0.67870  0.21024  1.0000
  C   C1907     1.0  0.78824  0.67637  0.13208  1.0000
  C   C1908     1.0  0.52207  0.54228  0.09478  1.0000
  H   H2275     1.0  0.70549  0.63621  0.30844  1.0000
  H   H2276     1.0  0.93922  0.71094  0.14858  1.0000
  Fe  Fe252     1.0  0.88419  0.72211  0.16800  1.0000
  C   C1909     1.0  0.53861  0.54155  0.07987  1.0000
  H   H2277     1.0  0.85218  0.61282  0.17007  1.0000
  C   C1910     1.0  0.96306  0.62555  0.30101  1.0000
  H   H2278     1.0  0.83483  0.57162  0.16087  1.0000
  S   S507      1.0  0.83515  0.66193  0.30406  1.0000
  H   H2279     1.0  0.60289  0.67262  0.24400  1.0000
  H   H2280     1.0  0.56874  0.52944  0.07153  1.0000
  C   C1911     1.0  0.50760  0.57575  0.08585  1.0000
  H   H2281     1.0  0.80087  0.58518  0.20388  1.0000
  H   H2282     1.0  0.67709  0.48865  0.15570  1.0000
  H   H2283     1.0  0.80365  0.60135  0.18119  1.0000
  C   C1912     1.0  0.61319  0.66551  0.23314  1.0000
  H   H2284     1.0  0.95180  0.63880  0.30065  1.0000
  H   H2285     1.0  0.85813  0.70842  0.24089  1.0000
  C   C1913     1.0  0.85556  0.60594  0.29914  1.0000
  H   H2286     1.0  0.84725  0.62090  0.29612  1.0000
  H   H2287     1.0  0.66835  0.65334  0.24498  1.0000
  C   C1914     1.0  0.62242  0.70428  0.26143  1.0000
  H   H2288     1.0  0.80798  0.71144  0.28204  1.0000
  C   C1915     1.0  0.63031  0.65386  0.23804  1.0000
  H   H2289     1.0  0.80842  0.69409  0.13358  1.0000
  C   C1916     1.0  0.60769  0.71353  0.25075  1.0000
  H   H2290     1.0  0.64697  0.61019  0.24642  1.0000
  H   H2291     1.0  0.96122  0.70998  0.17167  1.0000
  N   N125      1.0  0.50382  0.55555  0.09127  1.0000
  H   H2292     1.0  0.80653  0.72479  0.13831  1.0000
  N   N126      1.0  0.83012  0.58314  0.18768  1.0000
  N   N127      1.0  0.66243  0.63258  0.22952  1.0000
  C   C1917     1.0  0.60983  0.66905  0.21405  1.0000
  H   H2293     1.0  0.86683  0.60368  0.28616  1.0000
  C   C1918     1.0  0.77093  0.66960  0.14041  1.0000
  S   S508      1.0  0.68619  0.71244  0.28901  1.0000
  H   H2294     1.0  0.54303  0.50864  0.12957  1.0000
  C   C1919     1.0  0.87613  0.71991  0.26521  1.0000
  H   H2295     1.0  0.84227  0.72900  0.28687  1.0000
  C   C1920     1.0  0.67343  0.62103  0.21442  1.0000
  H   H2296     1.0  0.79726  0.67049  0.11973  1.0000
  Fe  Fe253     1.0  0.61904  0.51077  0.11634  1.0000
  H   H2297     1.0  0.67948  0.63035  0.20108  1.0000
  C   C1921     1.0  0.97952  0.72835  0.15163  1.0000
  H   H2298     1.0  0.85524  0.58053  0.16511  1.0000
  Fe  Fe254     1.0  0.84487  0.71881  0.19381  1.0000
  H   H2299     1.0  0.51788  0.57818  0.07202  1.0000
  H   H2300     1.0  0.83421  0.59694  0.15765  1.0000
  H   H2301     1.0  0.73877  0.64259  0.29960  1.0000
  H   H2302     1.0  0.74591  0.61785  0.31001  1.0000
  H   H2303     1.0  0.98016  0.58941  0.31198  1.0000
  H   H2304     1.0  0.94451  0.73006  0.11575  1.0000
  H   H2305     1.0  0.77382  0.70695  0.19404  1.0000
  C   C1922     1.0  0.95466  0.72925  0.12553  1.0000
  H   H2306     1.0  0.98808  0.72787  0.16270  1.0000
  Fe  Fe255     1.0  0.79303  0.59151  0.31266  1.0000
  C   C1923     1.0  0.79441  0.72858  0.15014  1.0000
  C   C1924     1.0  0.59435  0.73338  0.07802  1.0000
  H   H2307     1.0  0.49395  0.53523  0.07837  1.0000
  C   C1925     1.0  0.57547  0.72936  0.08275  1.0000
  C   C1926     1.0  0.77657  0.71885  0.18166  1.0000
  S   S509      1.0  0.55262  0.72764  0.14184  1.0000
  S   S510      1.0  0.64168  0.73406  0.28401  1.0000
  H   H2308     1.0  0.80450  0.48514  0.31505  1.0000
  C   C1927     1.0  0.79020  0.73194  0.26352  1.0000
  N   N128      1.0  0.85830  0.73043  0.25758  1.0000
  S   S511      1.0  0.59251  0.72751  0.21757  1.0000
  H   H2309     1.0  0.71128  0.61098  0.31567  1.0000
  H   H2310     1.0  0.79586  0.72817  0.31045  1.0000
  S   S512      1.0  0.61048  0.73087  0.12942  1.0000
  S   S513      1.0  0.63014  0.72972  0.16822  1.0000
  C   C1928     1.0  0.87591  0.61873  0.31482  1.0000
  H   H2311     1.0  0.49407  0.58627  0.08378  1.0000
  H   H2312     1.0  0.78238  0.72946  0.18755  1.0000
  H   H2313     1.0  0.76253  0.72637  0.17712  1.0000
  H   H2314     1.0  0.70852  0.48497  0.18085  1.0000
  C   C1929     1.0  0.69945  0.63803  0.34889  1.0000
  S   S514      1.0  0.81732  0.69378  0.34373  1.0000
  Fe  Fe256     1.0  0.87248  0.68461  0.34675  1.0000
  S   S515      1.0  0.85545  0.66039  0.35197  1.0000
  S   S516      1.0  0.90488  0.67739  0.34655  1.0000
  Fe  Fe257     1.0  0.83268  0.68003  0.36883  1.0000
  S   S517      1.0  0.81752  0.66572  0.39689  1.0000
  C   C1930     1.0  0.97146  0.63123  0.33037  1.0000
  S   S518      1.0  0.85063  0.70337  0.36558  1.0000
  H   H2315     1.0  0.96112  0.54283  0.36099  1.0000
  H   H2316     1.0  0.87824  0.50606  0.38178  1.0000
  Fe  Fe258     1.0  0.96596  0.59774  0.40512  1.0000
  S   S519      1.0  0.93598  0.61399  0.41428  1.0000
  S   S520      1.0  0.97622  0.56997  0.42392  1.0000
  C   C1931     1.0  0.91657  0.55638  0.39925  1.0000
  H   H2317     1.0  0.98538  0.59912  0.44562  1.0000
  C   C1932     1.0  0.97338  0.61146  0.44794  1.0000
  C   C1933     1.0  0.75876  0.61415  0.38690  1.0000
  H   H2318     1.0  0.93210  0.55261  0.39943  1.0000
  S   S521      1.0  0.69848  0.69598  0.34007  1.0000
  H   H2319     1.0  0.74815  0.63787  0.34042  1.0000
  S   S522      1.0  0.77336  0.56854  0.36493  1.0000
  S   S523      1.0  0.81695  0.58380  0.37728  1.0000
  H   H2320     1.0  0.95972  0.63140  0.49455  1.0000
  C   C1934     1.0  0.88609  0.54740  0.39534  1.0000
  C   C1935     1.0  0.80861  0.51987  0.37220  1.0000
  S   S524      1.0  0.92724  0.49298  0.34992  1.0000
  Fe  Fe259     1.0  0.79875  0.58421  0.35478  1.0000
  C   C1936     1.0  0.84858  0.60530  0.33377  1.0000
  C   C1937     1.0  0.97037  0.61835  0.49521  1.0000
  C   C1938     1.0  0.80742  0.51067  0.35693  1.0000
  S   S525      1.0  0.72674  0.60529  0.35193  1.0000
  C   C1939     1.0  0.86722  0.56669  0.32212  1.0000
  C   C1940     1.0  0.83188  0.49248  0.38413  1.0000
  H   H2321     1.0  0.88239  0.61785  0.32799  1.0000
  H   H2322     1.0  0.98011  0.62453  0.44680  1.0000
  Fe  Fe260     1.0  0.78553  0.55390  0.33902  1.0000
  C   C1941     1.0  0.72631  0.66345  0.33919  1.0000
  S   S526      1.0  0.79209  0.52167  0.33982  1.0000
  H   H2323     1.0  0.82123  0.51774  0.39787  1.0000
  C   C1942     1.0  0.82060  0.51067  0.38594  1.0000
  C   C1943     1.0  0.81860  0.49245  0.35526  1.0000
  S   S527      1.0  0.78272  0.60927  0.33657  1.0000
  H   H2324     1.0  0.98596  0.63503  0.32340  1.0000
  H   H2325     1.0  0.72093  0.62386  0.38710  1.0000
  N   N129      1.0  0.96598  0.61665  0.32110  1.0000
  C   C1944     1.0  0.96046  0.51937  0.38512  1.0000
  C   C1945     1.0  0.95612  0.52922  0.36702  1.0000
  C   C1946     1.0  0.94587  0.52103  0.35645  1.0000
  C   C1947     1.0  0.93964  0.50307  0.36392  1.0000
  H   H2326     1.0  0.93430  0.62261  0.48194  1.0000
  C   C1948     1.0  0.95397  0.50159  0.39264  1.0000
  H   H2327     1.0  0.94968  0.63835  0.46546  1.0000
  H   H2328     1.0  0.95828  0.57919  0.33865  1.0000
  C   C1949     1.0  0.81623  0.64303  0.39201  1.0000
  C   C1950     1.0  0.81919  0.62645  0.40597  1.0000
  C   C1951     1.0  0.81948  0.60818  0.40134  1.0000
  C   C1952     1.0  0.81614  0.60663  0.38303  1.0000
  C   C1953     1.0  0.81246  0.62326  0.36936  1.0000
  C   C1954     1.0  0.81288  0.64142  0.37372  1.0000
  H   H2329     1.0  0.82190  0.62770  0.42007  1.0000
  H   H2330     1.0  0.82227  0.59530  0.41195  1.0000
  H   H2331     1.0  0.80973  0.62218  0.35527  1.0000
  H   H2332     1.0  0.81043  0.65421  0.36294  1.0000
  C   C1955     1.0  0.91309  0.66041  0.36606  1.0000
  C   C1956     1.0  0.93312  0.65474  0.36588  1.0000
  C   C1957     1.0  0.94021  0.64022  0.38039  1.0000
  C   C1958     1.0  0.92727  0.63175  0.39560  1.0000
  C   C1959     1.0  0.90720  0.63775  0.39610  1.0000
  C   C1960     1.0  0.90011  0.65191  0.38126  1.0000
  H   H2333     1.0  0.94317  0.66166  0.35448  1.0000
  H   H2334     1.0  0.95570  0.63590  0.38005  1.0000
  H   H2335     1.0  0.89711  0.63136  0.40791  1.0000
  H   H2336     1.0  0.88462  0.65631  0.38164  1.0000
  H   H2337     1.0  0.80007  0.53392  0.37367  1.0000
  H   H2338     1.0  0.93071  0.63971  0.33007  1.0000
  C   C1961     1.0  0.94432  0.62431  0.46781  1.0000
  H   H2339     1.0  0.93548  0.62566  0.45612  1.0000
  C   C1962     1.0  0.86118  0.54227  0.37859  1.0000
  H   H2340     1.0  0.89945  0.59606  0.36401  1.0000
  H   H2341     1.0  0.72093  0.68949  0.37232  1.0000
  C   C1963     1.0  0.76548  0.67328  0.38504  1.0000
  H   H2342     1.0  0.85439  0.51549  0.40996  1.0000
  H   H2343     1.0  0.87927  0.59336  0.40634  1.0000
  H   H2344     1.0  0.89626  0.50702  0.39527  1.0000
  H   H2345     1.0  0.79736  0.73057  0.35667  1.0000
  H   H2346     1.0  0.85421  0.53137  0.37438  1.0000
  C   C1964     1.0  0.73085  0.66026  0.38553  1.0000
  C   C1965     1.0  0.95199  0.59018  0.46757  1.0000
  C   C1966     1.0  0.69298  0.65812  0.34574  1.0000
  H   H2347     1.0  0.89674  0.52046  0.37086  1.0000
  H   H2348     1.0  0.77614  0.64457  0.39745  1.0000
  C   C1967     1.0  0.73278  0.67960  0.37824  1.0000
  H   H2349     1.0  0.71724  0.65618  0.38475  1.0000
  H   H2350     1.0  0.75833  0.59841  0.39177  1.0000
  H   H2351     1.0  0.71437  0.63000  0.41131  1.0000
  H   H2352     1.0  0.75163  0.70098  0.37198  1.0000
  C   C1968     1.0  0.89743  0.54514  0.32645  1.0000
  H   H2353     1.0  0.77902  0.67826  0.38468  1.0000
  H   H2354     1.0  0.97223  0.62565  0.34602  1.0000
  H   H2355     1.0  0.86102  0.57020  0.40026  1.0000
  N   N130      1.0  0.74512  0.62609  0.40021  1.0000
  H   H2356     1.0  0.77406  0.61611  0.38576  1.0000
  C   C1969     1.0  0.71935  0.63058  0.34704  1.0000
  H   H2357     1.0  0.76623  0.62065  0.41967  1.0000
  C   C1970     1.0  0.75007  0.68608  0.37793  1.0000
  H   H2358     1.0  0.68895  0.62825  0.35291  1.0000
  H   H2359     1.0  0.90109  0.63038  0.34992  1.0000
  C   C1971     1.0  0.74632  0.64681  0.39289  1.0000
  H   H2360     1.0  0.86882  0.55013  0.36512  1.0000
  C   C1972     1.0  0.88712  0.51605  0.38474  1.0000
  H   H2361     1.0  0.74184  0.63014  0.42992  1.0000
  H   H2362     1.0  0.74848  0.60524  0.42634  1.0000
  H   H2363     1.0  0.85310  0.53812  0.41766  1.0000
  C   C1973     1.0  0.94353  0.49354  0.38222  1.0000
  H   H2364     1.0  0.94263  0.59237  0.45620  1.0000
  H   H2365     1.0  0.73677  0.67326  0.33577  1.0000
  Fe  Fe261     1.0  0.83714  0.71566  0.33869  1.0000
  H   H2366     1.0  0.75507  0.61801  0.37200  1.0000
  H   H2367     1.0  0.90559  0.53055  0.32893  1.0000
  C   C1974     1.0  0.72543  0.62134  0.40162  1.0000
  H   H2368     1.0  0.67758  0.66374  0.34751  1.0000
  C   C1975     1.0  0.75063  0.62035  0.41987  1.0000
  Fe  Fe262     1.0  0.98386  0.55751  0.39617  1.0000
  C   C1976     1.0  0.97232  0.60468  0.48257  1.0000
  C   C1977     1.0  0.90646  0.54297  0.39544  1.0000
  C   C1978     1.0  0.76367  0.65396  0.39239  1.0000
  S   S528      1.0  0.76768  0.57572  0.31950  1.0000
  H   H2369     1.0  0.91474  0.58484  0.40599  1.0000
  C   C1979     1.0  0.90681  0.57451  0.40305  1.0000
  Fe  Fe263     1.0  0.67567  0.70830  0.32108  1.0000
  N   N131      1.0  0.87478  0.53316  0.39245  1.0000
  S   S529      1.0  0.97198  0.58494  0.37789  1.0000
  C   C1980     1.0  0.88684  0.57928  0.40319  1.0000
  C   C1981     1.0  0.94619  0.59087  0.34036  1.0000
  H   H2370     1.0  0.85204  0.56812  0.32133  1.0000
  N   N132      1.0  0.96058  0.60770  0.46689  1.0000
  C   C1982     1.0  0.87657  0.56596  0.39949  1.0000
  H   H2371     1.0  0.72491  0.60575  0.40744  1.0000
  C   C1983     1.0  0.86332  0.52613  0.41138  1.0000
  H   H2372     1.0  0.84885  0.55264  0.38481  1.0000
  H   H2373     1.0  0.94306  0.52846  0.34227  1.0000
  H   H2374     1.0  0.87295  0.51884  0.42216  1.0000
  Fe  Fe264     1.0  0.84189  0.67646  0.32648  1.0000
  S   S530      1.0  0.97417  0.52825  0.39883  1.0000
  H   H2375     1.0  0.91495  0.52913  0.39288  1.0000
  C   C1984     1.0  0.73279  0.64335  0.34190  1.0000
  C   C1985     1.0  0.91359  0.61925  0.34700  1.0000
  C   C1986     1.0  0.70640  0.67088  0.34124  1.0000
  H   H2376     1.0  0.94297  0.58632  0.48197  1.0000
  H   H2377     1.0  0.85437  0.60274  0.34765  1.0000
  Fe  Fe265     1.0  0.75830  0.59215  0.34450  1.0000
  C   C1987     1.0  0.92892  0.58580  0.35163  1.0000
  C   C1988     1.0  0.87607  0.58330  0.31996  1.0000
  H   H2378     1.0  0.92825  0.57080  0.35807  1.0000
  S   S531      1.0  0.81173  0.56835  0.32994  1.0000
  C   C1989     1.0  0.91271  0.59997  0.35504  1.0000
  H   H2379     1.0  0.96520  0.61403  0.43564  1.0000
  C   C1990     1.0  0.87776  0.54794  0.32526  1.0000
  C   C1991     1.0  0.94772  0.61052  0.33232  1.0000
  H   H2380     1.0  0.96316  0.57735  0.46477  1.0000
  H   H2381     1.0  0.95727  0.49382  0.40658  1.0000
  S   S532      1.0  0.64879  0.69706  0.31949  1.0000
  C   C1992     1.0  0.93074  0.62447  0.33568  1.0000
  H   H2382     1.0  0.90441  0.59159  0.31913  1.0000
  C   C1993     1.0  0.98268  0.60049  0.31979  1.0000
  H   H2383     1.0  0.98587  0.59336  0.33447  1.0000
  Fe  Fe266     1.0  0.63437  0.72844  0.31655  1.0000
  S   S533      1.0  0.86082  0.69924  0.31943  1.0000
  C   C1994     1.0  0.90666  0.56110  0.32426  1.0000
  H   H2384     1.0  0.83989  0.62019  0.33214  1.0000
  C   C1995     1.0  0.89626  0.57994  0.32096  1.0000
  H   H2385     1.0  0.83811  0.59520  0.33549  1.0000
  H   H2386     1.0  0.96108  0.64505  0.32949  1.0000
  H   H2387     1.0  0.87061  0.53549  0.32684  1.0000
  H   H2388     1.0  0.98147  0.62659  0.51800  1.0000
  H   H2389     1.0  0.92204  0.55881  0.32495  1.0000
  C   C1996     1.0  0.98275  0.61575  0.50887  1.0000
  C   C1997     1.0  0.98723  0.58831  0.48465  1.0000
  N   N133      1.0  0.86441  0.60298  0.31695  1.0000
  H   H2390     1.0  0.68827  0.73343  0.37339  1.0000
  H   H2391     1.0  0.81792  0.48547  0.34341  1.0000
  H   H2392     1.0  0.99034  0.57777  0.47494  1.0000
  Fe  Fe267     1.0  0.71403  0.83395  0.15381  1.0000
  S   S534      1.0  0.72916  0.80879  0.17242  1.0000
  S   S535      1.0  0.68658  0.83253  0.14230  1.0000
  Fe  Fe268     1.0  0.74173  0.86166  0.15836  1.0000
  S   S536      1.0  0.75792  0.83824  0.17789  1.0000
  S   S537      1.0  0.74990  0.89210  0.15015  1.0000
  Fe  Fe269     1.0  0.75660  0.81940  0.15661  1.0000
  S   S538      1.0  0.78454  0.80152  0.14541  1.0000
  Fe  Fe270     1.0  0.72877  0.83037  0.19154  1.0000
  S   S539      1.0  0.71642  0.82367  0.22302  1.0000
  S   S540      1.0  0.74180  0.84309  0.13610  1.0000
  S   S541      1.0  0.71224  0.85528  0.17393  1.0000
  S   S542      1.0  0.75211  0.85141  0.28455  1.0000
  Fe  Fe271     1.0  0.84073  0.94836  0.15415  1.0000
  S   S543      1.0  0.87011  0.94716  0.13484  1.0000
  S   S544      1.0  0.82670  0.92081  0.16012  1.0000
  S   S545      1.0  0.98941  0.82458  0.17857  1.0000
  H   H2393     1.0  0.78349  0.84173  0.13148  1.0000
  S   S546      1.0  0.98791  0.81699  0.13414  1.0000
  Fe  Fe272     1.0  0.88134  0.95128  0.16075  1.0000
  S   S547      1.0  0.90639  0.93116  0.17390  1.0000
  S   S548      1.0  0.85233  0.95155  0.18036  1.0000
  H   H2394     1.0  0.54608  0.73889  0.09562  1.0000
  H   H2395     1.0  0.75594  0.82825  0.22334  1.0000
  H   H2396     1.0  0.62351  0.81472  0.28021  1.0000
  S   S549      1.0  0.58536  0.75186  0.16532  1.0000
  H   H2397     1.0  0.88468  0.87706  0.20736  1.0000
  S   S550      1.0  0.96763  0.77692  0.17839  1.0000
  N   N134      1.0  0.75265  0.77538  0.27787  1.0000
  S   S551      1.0  0.97438  0.87016  0.13565  1.0000
  C   C1998     1.0  0.65817  0.78696  0.29826  1.0000
  H   H2398     1.0  0.74896  0.80542  0.28097  1.0000
  S   S552      1.0  0.68164  0.76748  0.27069  1.0000
  S   S553      1.0  0.62448  0.78158  0.13441  1.0000
  H   H2399     1.0  0.61400  0.78510  0.07491  1.0000
  C   C1999     1.0  0.77592  0.74851  0.26220  1.0000
  H   H2400     1.0  0.79836  0.90223  0.22572  1.0000
  H   H2401     1.0  0.74601  0.92991  0.18670  1.0000
  C   C2000     1.0  0.86907  0.77239  0.20558  1.0000
  H   H2402     1.0  0.58474  0.79578  0.12073  1.0000
  H   H2403     1.0  0.87267  0.89447  0.14936  1.0000
  C   C2001     1.0  0.87778  0.89837  0.16162  1.0000
  C   C2002     1.0  0.88480  0.88845  0.19422  1.0000
  H   H2404     1.0  0.77057  0.88551  0.23068  1.0000
  N   N135      1.0  0.58754  0.78212  0.09549  1.0000
  H   H2405     1.0  0.77392  0.94580  0.18270  1.0000
  C   C2003     1.0  0.56065  0.74237  0.09138  1.0000
  C   C2004     1.0  0.74564  0.78134  0.25890  1.0000
  C   C2005     1.0  0.93943  0.75433  0.18270  1.0000
  C   C2006     1.0  0.94843  0.76931  0.17067  1.0000
  C   C2007     1.0  0.94219  0.77739  0.15292  1.0000
  C   C2008     1.0  0.92764  0.77008  0.14704  1.0000
  H   H2406     1.0  0.93729  0.84798  0.15479  1.0000
  H   H2407     1.0  0.57687  0.77695  0.24194  1.0000
  H   H2408     1.0  0.94864  0.78916  0.14363  1.0000
  H   H2409     1.0  0.91608  0.87737  0.16297  1.0000
  C   C2009     1.0  0.92571  0.91484  0.16284  1.0000
  C   C2010     1.0  0.92900  0.91437  0.14289  1.0000
  C   C2011     1.0  0.94400  0.90065  0.13489  1.0000
  C   C2012     1.0  0.95568  0.88700  0.14671  1.0000
  C   C2013     1.0  0.95231  0.88738  0.16669  1.0000
  C   C2014     1.0  0.93755  0.90136  0.17464  1.0000
  H   H2410     1.0  0.92011  0.92468  0.13360  1.0000
  H   H2411     1.0  0.94658  0.90058  0.11940  1.0000
  H   H2412     1.0  0.96126  0.87711  0.17595  1.0000
  H   H2413     1.0  0.93521  0.90164  0.19008  1.0000
  H   H2414     1.0  0.86779  0.84538  0.18130  1.0000
  C   C2015     1.0  0.67052  0.81668  0.14083  1.0000
  C   C2016     1.0  0.65397  0.82517  0.13251  1.0000
  C   C2017     1.0  0.64036  0.81407  0.13086  1.0000
  C   C2018     1.0  0.64270  0.79412  0.13769  1.0000
  C   C2019     1.0  0.65927  0.78530  0.14612  1.0000
  C   C2020     1.0  0.67323  0.79654  0.14757  1.0000
  H   H2415     1.0  0.65165  0.84058  0.12717  1.0000
  H   H2416     1.0  0.62780  0.82113  0.12425  1.0000
  H   H2417     1.0  0.66144  0.76985  0.15127  1.0000
  H   H2418     1.0  0.68606  0.78962  0.15376  1.0000
  C   C2021     1.0  0.79378  0.78448  0.16400  1.0000
  C   C2022     1.0  0.81331  0.77594  0.16102  1.0000
  C   C2023     1.0  0.82073  0.76153  0.17530  1.0000
  C   C2024     1.0  0.80852  0.75516  0.19229  1.0000
  C   C2025     1.0  0.78915  0.76429  0.19571  1.0000
  C   C2026     1.0  0.78178  0.77904  0.18157  1.0000
  H   H2419     1.0  0.82272  0.78036  0.14760  1.0000
  C   C2027     1.0  0.88974  0.86457  0.17305  1.0000
  H   H2420     1.0  0.77970  0.75953  0.20894  1.0000
  H   H2421     1.0  0.76671  0.78576  0.18400  1.0000
  C   C2028     1.0  0.77127  0.89992  0.15321  1.0000
  C   C2029     1.0  0.77405  0.91913  0.14570  1.0000
  C   C2030     1.0  0.79077  0.92591  0.14776  1.0000
  C   C2031     1.0  0.80495  0.91352  0.15744  1.0000
  C   C2032     1.0  0.80213  0.89432  0.16499  1.0000
  C   C2033     1.0  0.78545  0.88756  0.16292  1.0000
  H   H2422     1.0  0.76321  0.92886  0.13816  1.0000
  H   H2423     1.0  0.79271  0.94069  0.14181  1.0000
  H   H2424     1.0  0.81295  0.88459  0.17249  1.0000
  H   H2425     1.0  0.78358  0.87279  0.16888  1.0000
  C   C2034     1.0  0.72660  0.83307  0.23875  1.0000
  C   C2035     1.0  0.71457  0.83931  0.25511  1.0000
  C   C2036     1.0  0.72243  0.84548  0.26886  1.0000
  C   C2037     1.0  0.74237  0.84549  0.26626  1.0000
  C   C2038     1.0  0.75446  0.83972  0.24962  1.0000
  C   C2039     1.0  0.74657  0.83335  0.23587  1.0000
  H   H2426     1.0  0.69911  0.83923  0.25721  1.0000
  H   H2427     1.0  0.71303  0.85018  0.28157  1.0000
  H   H2428     1.0  0.76994  0.83958  0.24770  1.0000
  H   H2429     1.0  0.56053  0.79934  0.08838  1.0000
  N   N136      1.0  0.80980  0.85163  0.11593  1.0000
  C   C2040     1.0  0.79291  0.85228  0.13187  1.0000
  C   C2041     1.0  0.80254  0.85698  0.09709  1.0000
  C   C2042     1.0  0.81999  0.83124  0.11721  1.0000
  C   C2043     1.0  0.82219  0.86549  0.11743  1.0000
  C   C2044     1.0  0.81483  0.88564  0.11532  1.0000
  C   C2045     1.0  0.84156  0.85959  0.12126  1.0000
  C   C2046     1.0  0.82629  0.89906  0.11640  1.0000
  C   C2047     1.0  0.85282  0.87317  0.12254  1.0000
  C   C2048     1.0  0.84520  0.89286  0.12007  1.0000
  H   H2430     1.0  0.78349  0.86673  0.13104  1.0000
  H   H2431     1.0  0.79766  0.84868  0.14633  1.0000
  H   H2432     1.0  0.79273  0.87120  0.09585  1.0000
  H   H2433     1.0  0.79386  0.84629  0.09519  1.0000
  H   H2434     1.0  0.81479  0.85773  0.08468  1.0000
  H   H2435     1.0  0.83297  0.82966  0.10566  1.0000
  H   H2436     1.0  0.82438  0.82557  0.13171  1.0000
  H   H2437     1.0  0.81043  0.82132  0.11539  1.0000
  H   H2438     1.0  0.80002  0.89121  0.11314  1.0000
  H   H2439     1.0  0.84836  0.84459  0.12335  1.0000
  H   H2440     1.0  0.82031  0.91438  0.11490  1.0000
  H   H2441     1.0  0.86756  0.86841  0.12542  1.0000
  H   H2442     1.0  0.85380  0.90341  0.12121  1.0000
  H   H2443     1.0  0.58039  0.79865  0.06843  1.0000
  H   H2444     1.0  0.94408  0.74799  0.19648  1.0000
  H   H2445     1.0  0.89386  0.74238  0.23850  1.0000
  C   C2049     1.0  0.57649  0.79898  0.08432  1.0000
  S   S554      1.0  0.90162  0.74524  0.15027  1.0000
  H   H2446     1.0  0.92445  0.81723  0.15997  1.0000
  C   C2050     1.0  0.88444  0.76288  0.21511  1.0000
  C   C2051     1.0  0.91478  0.83033  0.16339  1.0000
  C   C2052     1.0  0.84680  0.75591  0.23056  1.0000
  H   H2447     1.0  0.63726  0.78511  0.26576  1.0000
  C   C2053     1.0  0.58170  0.79746  0.28246  1.0000
  C   C2054     1.0  0.64166  0.75719  0.22314  1.0000
  H   H2448     1.0  0.57001  0.75340  0.25020  1.0000
  H   H2449     1.0  0.77118  0.75341  0.24830  1.0000
  H   H2450     1.0  0.75742  0.78553  0.24687  1.0000
  H   H2451     1.0  0.73009  0.75848  0.29101  1.0000
  N   N137      1.0  0.87734  0.88255  0.17860  1.0000
  C   C2055     1.0  0.55566  0.77328  0.27844  1.0000
  H   H2452     1.0  0.61093  0.79762  0.09502  1.0000
  H   H2453     1.0  0.80034  0.93225  0.20165  1.0000
  C   C2056     1.0  0.63408  0.77796  0.19361  1.0000
  C   C2057     1.0  0.68221  0.81458  0.29346  1.0000
  H   H2454     1.0  0.54673  0.76281  0.27658  1.0000
  N   N138      1.0  0.67226  0.79742  0.21205  1.0000
  C   C2058     1.0  0.69135  0.78476  0.21341  1.0000
  C   C2059     1.0  0.67531  0.81318  0.19523  1.0000
  C   C2060     1.0  0.66582  0.80654  0.22974  1.0000
  C   C2061     1.0  0.65781  0.78565  0.21054  1.0000
  C   C2062     1.0  0.64693  0.78993  0.19504  1.0000
  C   C2063     1.0  0.65446  0.76912  0.22478  1.0000
  H   H2455     1.0  0.88802  0.97794  0.06275  1.0000
  H   H2456     1.0  0.85175  0.75102  0.27734  1.0000
  H   H2457     1.0  0.70294  0.79323  0.21315  1.0000
  H   H2458     1.0  0.69118  0.77420  0.22716  1.0000
  H   H2459     1.0  0.69596  0.77653  0.20105  1.0000
  H   H2460     1.0  0.68068  0.80734  0.18142  1.0000
  H   H2461     1.0  0.68637  0.82160  0.19680  1.0000
  H   H2462     1.0  0.66181  0.82385  0.19362  1.0000
  H   H2463     1.0  0.67637  0.81551  0.23138  1.0000
  H   H2464     1.0  0.65143  0.81600  0.22937  1.0000
  H   H2465     1.0  0.66454  0.79564  0.24314  1.0000
  H   H2466     1.0  0.66198  0.76510  0.23715  1.0000
  C   C2064     1.0  0.59400  0.80983  0.28423  1.0000
  C   C2065     1.0  0.68627  0.80090  0.28094  1.0000
  H   H2467     1.0  0.73394  0.79425  0.25902  1.0000
  C   C2066     1.0  0.85665  0.88061  0.18583  1.0000
  H   H2468     1.0  0.86835  0.91199  0.16534  1.0000
  H   H2469     1.0  0.85497  0.86964  0.19924  1.0000
  H   H2470     1.0  0.84991  0.87686  0.17451  1.0000
  H   H2471     1.0  0.84783  0.89451  0.18964  1.0000
  H   H2472     1.0  0.87615  0.90222  0.19850  1.0000
  N   N139      1.0  0.73844  0.89567  0.21252  1.0000
  C   C2067     1.0  0.74541  0.87656  0.20626  1.0000
  C   C2068     1.0  0.72960  0.89263  0.23339  1.0000
  C   C2069     1.0  0.72281  0.90595  0.20132  1.0000
  C   C2070     1.0  0.75507  0.90615  0.20959  1.0000
  C   C2071     1.0  0.77061  0.89876  0.22024  1.0000
  C   C2072     1.0  0.75671  0.92345  0.19593  1.0000
  C   C2073     1.0  0.78664  0.90817  0.21749  1.0000
  C   C2074     1.0  0.77276  0.93279  0.19341  1.0000
  C   C2075     1.0  0.78773  0.92514  0.20407  1.0000
  H   H2473     1.0  0.75687  0.86768  0.21427  1.0000
  H   H2474     1.0  0.73342  0.86800  0.20847  1.0000
  H   H2475     1.0  0.75174  0.87828  0.19058  1.0000
  H   H2476     1.0  0.71664  0.88532  0.23597  1.0000
  H   H2477     1.0  0.72500  0.90665  0.23893  1.0000
  H   H2478     1.0  0.73969  0.88321  0.24273  1.0000
  H   H2479     1.0  0.72809  0.90752  0.18534  1.0000
  H   H2480     1.0  0.71043  0.89783  0.20409  1.0000
  H   H2481     1.0  0.71689  0.92056  0.20524  1.0000
  C   C2076     1.0  0.61397  0.80545  0.27817  1.0000
  H   H2482     1.0  0.59469  0.75591  0.24707  1.0000
  H   H2483     1.0  0.89997  0.89125  0.18961  1.0000
  H   H2484     1.0  0.77090  0.75692  0.30876  1.0000
  Fe  Fe273     1.0  0.98673  0.79992  0.16419  1.0000
  H   H2485     1.0  0.83592  0.75536  0.17308  1.0000
  H   H2486     1.0  0.89247  0.90219  0.15624  1.0000
  C   C2077     1.0  0.86221  0.74532  0.24023  1.0000
  S   S555      1.0  0.83278  0.98092  0.14560  1.0000
  C   C2078     1.0  0.77589  0.75033  0.29584  1.0000
  C   C2079     1.0  0.76812  0.75810  0.27849  1.0000
  C   C2080     1.0  0.88118  0.74954  0.23220  1.0000
  H   H2487     1.0  0.69145  0.82530  0.29163  1.0000
  C   C2081     1.0  0.88274  0.84675  0.17554  1.0000
  Fe  Fe274     1.0  0.86312  0.97988  0.12842  1.0000
  H   H2488     1.0  0.87182  0.78211  0.19195  1.0000
  H   H2489     1.0  0.61750  0.77202  0.09886  1.0000
  C   C2082     1.0  0.90971  0.86444  0.16527  1.0000
  Fe  Fe275     1.0  0.66891  0.74214  0.28870  1.0000
  H   H2490     1.0  0.55265  0.76879  0.10251  1.0000
  H   H2491     1.0  0.58862  0.76997  0.12533  1.0000
  H   H2492     1.0  0.88972  0.81638  0.17292  1.0000
  C   C2083     1.0  0.89519  0.82992  0.17076  1.0000
  C   C2084     1.0  0.92200  0.84760  0.16054  1.0000
  C   C2085     1.0  0.58118  0.78282  0.11653  1.0000
  H   H2493     1.0  0.62188  0.75219  0.20608  1.0000
  H   H2494     1.0  0.55211  0.77480  0.29410  1.0000
  C   C2086     1.0  0.97019  0.73955  0.11986  1.0000
  H   H2495     1.0  0.61351  0.75246  0.07814  1.0000
  H   H2496     1.0  0.69873  0.80100  0.26945  1.0000
  C   C2087     1.0  0.91895  0.75481  0.15890  1.0000
  H   H2497     1.0  0.64828  0.80225  0.18360  1.0000
  H   H2498     1.0  0.92323  0.77614  0.13311  1.0000
  Fe  Fe276     1.0  0.84684  0.98382  0.17062  1.0000
  S   S556      1.0  0.87673  0.98392  0.15313  1.0000
  H   H2499     1.0  0.83089  0.74665  0.26933  1.0000
  H   H2500     1.0  0.78133  0.73537  0.14339  1.0000
  H   H2501     1.0  0.62628  0.78121  0.18138  1.0000
  C   C2088     1.0  0.59852  0.75043  0.08195  1.0000
  C   C2089     1.0  0.65386  0.80091  0.31049  1.0000
  C   C2090     1.0  0.62170  0.78882  0.27000  1.0000
  C   C2091     1.0  0.63157  0.76158  0.20753  1.0000
  H   H2502     1.0  0.58803  0.82253  0.29107  1.0000
  C   C2092     1.0  0.76004  0.79202  0.28177  1.0000
  H   H2503     1.0  0.56650  0.80144  0.28813  1.0000
  C   C2093     1.0  0.60951  0.77655  0.26785  1.0000
  H   H2504     1.0  0.83198  0.75362  0.23582  1.0000
  H   H2505     1.0  0.72340  0.78381  0.29239  1.0000
  C   C2094     1.0  0.57973  0.76312  0.25212  1.0000
  C   C2095     1.0  0.67468  0.78661  0.28388  1.0000
  C   C2096     1.0  0.60838  0.78424  0.09074  1.0000
  C   C2097     1.0  0.92474  0.74716  0.17692  1.0000
  H   H2506     1.0  0.61622  0.76371  0.26167  1.0000
  H   H2507     1.0  0.63980  0.74427  0.23382  1.0000
  H   H2508     1.0  0.83831  0.77622  0.20581  1.0000
  C   C2098     1.0  0.58372  0.76397  0.09094  1.0000
  C   C2099     1.0  0.58914  0.78038  0.27411  1.0000
  C   C2100     1.0  0.56463  0.75943  0.09542  1.0000
  C   C2101     1.0  0.73563  0.77140  0.29298  1.0000
  N   N140      1.0  0.57675  0.76654  0.27252  1.0000
  H   H2509     1.0  0.56531  0.78312  0.12126  1.0000
  C   C2102     1.0  0.58213  0.74791  0.28524  1.0000
  H   H2510     1.0  0.58019  0.74994  0.30067  1.0000
  H   H2511     1.0  0.76406  0.78946  0.29648  1.0000
  H   H2512     1.0  0.64885  0.77631  0.30007  1.0000
  H   H2513     1.0  0.77313  0.79524  0.27103  1.0000
  C   C2103     1.0  0.85025  0.76905  0.21338  1.0000
  H   H2514     1.0  0.57946  0.81292  0.08694  1.0000
  H   H2515     1.0  0.55065  0.78739  0.26953  1.0000
  H   H2516     1.0  0.89910  0.76545  0.20891  1.0000
  H   H2517     1.0  0.73929  0.76970  0.25528  1.0000
  H   H2518     1.0  0.98190  0.77490  0.11065  1.0000
  Fe  Fe277     1.0  0.61514  0.75219  0.14716  1.0000
  C   C2104     1.0  0.66629  0.81431  0.30848  1.0000
  H   H2519     1.0  0.79879  0.73992  0.15635  1.0000
  H   H2520     1.0  0.97170  0.74799  0.10544  1.0000
  H   H2521     1.0  0.59755  0.74129  0.28120  1.0000
  C   C2105     1.0  0.84524  0.73968  0.27338  1.0000
  Fe  Fe278     1.0  0.73200  0.84413  0.31252  1.0000
  H   H2522     1.0  0.91825  0.73537  0.18617  1.0000
  H   H2523     1.0  0.73904  0.76881  0.30795  1.0000
  C   C2106     1.0  0.98315  0.73942  0.13273  1.0000
  H   H2524     1.0  0.57310  0.73702  0.28469  1.0000
  H   H2525     1.0  0.98206  0.77673  0.13537  1.0000
  S   S557      1.0  0.81700  0.73482  0.20845  1.0000
  H   H2526     1.0  0.69078  0.93290  0.33733  1.0000
  S   S558      1.0  0.74249  0.83732  0.34122  1.0000
  H   H2527     1.0  0.68311  0.78611  0.37536  1.0000
  S   S559      1.0  0.69955  0.82547  0.35952  1.0000
  H   H2528     1.0  0.77885  0.83851  0.36636  1.0000
  Fe  Fe279     1.0  0.71270  0.85255  0.35238  1.0000
  S   S560      1.0  0.70603  0.86918  0.37732  1.0000
  Fe  Fe280     1.0  0.72841  0.81098  0.34597  1.0000
  S   S561      1.0  0.73979  0.78091  0.35996  1.0000
  H   H2529     1.0  0.64145  0.80072  0.32203  1.0000
  C   C2107     1.0  0.64955  0.78437  0.36212  1.0000
  H   H2530     1.0  0.67996  0.89306  0.40266  1.0000
  Fe  Fe281     1.0  0.63806  0.96645  0.38217  1.0000
  S   S562      1.0  0.62443  0.95209  0.41137  1.0000
  S   S563      1.0  0.66664  0.95742  0.36327  1.0000
  Fe  Fe282     1.0  0.59740  0.95761  0.39751  1.0000
  S   S564      1.0  0.58026  0.93250  0.40264  1.0000
  H   H2531     1.0  0.50843  0.91796  0.43476  1.0000
  C   C2108     1.0  0.68994  0.77491  0.34083  1.0000
  S   S565      1.0  0.61166  0.97063  0.36804  1.0000
  S   S566      1.0  0.50843  0.82676  0.36106  1.0000
  H   H2532     1.0  0.66417  0.92748  0.39739  1.0000
  Fe  Fe283     1.0  0.51960  0.87921  0.35304  1.0000
  S   S567      1.0  0.53283  0.85500  0.37385  1.0000
  S   S568      1.0  0.52873  0.90879  0.34971  1.0000
  Fe  Fe284     1.0  0.53698  0.83747  0.34987  1.0000
  S   S569      1.0  0.56835  0.82443  0.33973  1.0000
  S   S570      1.0  0.52444  0.86212  0.32847  1.0000
  H   H2533     1.0  0.70594  0.89824  0.34242  1.0000
  C   C2109     1.0  0.69241  0.74297  0.35940  1.0000
  H   H2534     1.0  0.53012  0.88198  0.41687  1.0000
  C   C2110     1.0  0.57735  0.80003  0.33704  1.0000
  C   C2111     1.0  0.56563  0.78564  0.34257  1.0000
  C   C2112     1.0  0.57371  0.76631  0.34060  1.0000
  C   C2113     1.0  0.59345  0.76129  0.33292  1.0000
  H   H2535     1.0  0.51164  0.89590  0.39063  1.0000
  C   C2114     1.0  0.59703  0.79498  0.32932  1.0000
  H   H2536     1.0  0.55046  0.78935  0.34861  1.0000
  C   C2115     1.0  0.79391  0.77483  0.32800  1.0000
  H   H2537     1.0  0.59542  0.88545  0.31928  1.0000
  H   H2538     1.0  0.58104  0.87025  0.37186  1.0000
  N   N141      1.0  0.50051  0.89708  0.42094  1.0000
  H   H2539     1.0  0.62291  0.84051  0.34611  1.0000
  C   C2116     1.0  0.61393  0.88011  0.34954  1.0000
  C   C2117     1.0  0.56675  0.92609  0.38705  1.0000
  C   C2118     1.0  0.56152  0.90753  0.39129  1.0000
  C   C2119     1.0  0.55042  0.90187  0.37968  1.0000
  C   C2120     1.0  0.54391  0.91488  0.36394  1.0000
  C   C2121     1.0  0.54929  0.93338  0.35959  1.0000
  C   C2122     1.0  0.56078  0.93892  0.37096  1.0000
  H   H2540     1.0  0.56624  0.89743  0.40359  1.0000
  H   H2541     1.0  0.54678  0.88749  0.38303  1.0000
  H   H2542     1.0  0.54444  0.94357  0.34741  1.0000
  H   H2543     1.0  0.56468  0.95325  0.36750  1.0000
  H   H2544     1.0  0.62018  0.77201  0.32125  1.0000
  H   H2545     1.0  0.60079  0.85062  0.37465  1.0000
  H   H2546     1.0  0.52212  0.91590  0.41098  1.0000
  N   N142      1.0  0.75308  0.82177  0.39787  1.0000
  H   H2547     1.0  0.73620  0.84987  0.40204  1.0000
  H   H2548     1.0  0.68907  0.73689  0.34741  1.0000
  H   H2549     1.0  0.65619  0.79720  0.35967  1.0000
  H   H2550     1.0  0.76876  0.82150  0.42083  1.0000
  C   C2123     1.0  0.60500  0.77576  0.32704  1.0000
  C   C2124     1.0  0.76368  0.77148  0.35021  1.0000
  H   H2551     1.0  0.66096  0.88375  0.35168  1.0000
  H   H2552     1.0  0.68486  0.79070  0.34039  1.0000
  C   C2125     1.0  0.79105  0.74496  0.35050  1.0000
  C   C2126     1.0  0.77471  0.78256  0.33528  1.0000
  C   C2127     1.0  0.63057  0.75252  0.36816  1.0000
  H   H2553     1.0  0.76858  0.79720  0.32958  1.0000
  C   C2128     1.0  0.64530  0.88769  0.35275  1.0000
  H   H2554     1.0  0.74278  0.82440  0.42802  1.0000
  H   H2555     1.0  0.51242  0.86662  0.42652  1.0000
  C   C2129     1.0  0.69398  0.89330  0.37288  1.0000
  C   C2130     1.0  0.69672  0.90451  0.35439  1.0000
  C   C2131     1.0  0.68820  0.92416  0.35154  1.0000
  C   C2132     1.0  0.67643  0.93254  0.36702  1.0000
  C   C2133     1.0  0.67315  0.92114  0.38535  1.0000
  C   C2134     1.0  0.68214  0.90165  0.38833  1.0000
  H   H2556     1.0  0.73433  0.81655  0.37998  1.0000
  H   H2557     1.0  0.62282  0.85568  0.32260  1.0000
  H   H2558     1.0  0.80729  0.82190  0.34775  1.0000
  C   C2135     1.0  0.50745  0.91560  0.42000  1.0000
  H   H2559     1.0  0.58158  0.84867  0.36239  1.0000
  S   S571      1.0  0.66314  0.82929  0.32591  1.0000
  C   C2136     1.0  0.62926  0.78697  0.36485  1.0000
  C   C2137     1.0  0.77183  0.75263  0.35769  1.0000
  H   H2560     1.0  0.62081  0.80141  0.36422  1.0000
  N   N143      1.0  0.60189  0.86694  0.34577  1.0000
  C   C2138     1.0  0.73568  0.81450  0.39555  1.0000
  C   C2139     1.0  0.58785  0.87762  0.33286  1.0000
  C   C2140     1.0  0.80404  0.79359  0.36365  1.0000
  S   S572      1.0  0.66055  0.73901  0.32105  1.0000
  C   C2141     1.0  0.74938  0.84324  0.39275  1.0000
  H   H2561     1.0  0.56468  0.75516  0.34523  1.0000
  H   H2562     1.0  0.49789  0.92834  0.41328  1.0000
  H   H2563     1.0  0.75630  0.80124  0.42430  1.0000
  H   H2564     1.0  0.68185  0.76268  0.39001  1.0000
  H   H2565     1.0  0.74653  0.84803  0.37759  1.0000
  H   H2566     1.0  0.76339  0.74402  0.36929  1.0000
  N   N144      1.0  0.68248  0.76333  0.35957  1.0000
  H   H2567     1.0  0.70611  0.77298  0.33807  1.0000
  C   C2142     1.0  0.66101  0.76566  0.36231  1.0000
  Fe  Fe285     1.0  0.69254  0.83351  0.32950  1.0000
  C   C2143     1.0  0.59084  0.85875  0.36448  1.0000
  C   C2144     1.0  0.60504  0.89785  0.35600  1.0000
  C   C2145     1.0  0.63604  0.90500  0.35900  1.0000
  C   C2146     1.0  0.77052  0.81241  0.38585  1.0000
  H   H2568     1.0  0.73622  0.79878  0.40118  1.0000
  H   H2569     1.0  0.64442  0.91445  0.36275  1.0000
  H   H2570     1.0  0.72200  0.82225  0.40314  1.0000
  H   H2571     1.0  0.70851  0.74177  0.35709  1.0000
  H   H2572     1.0  0.76775  0.78287  0.40033  1.0000
  H   H2573     1.0  0.60875  0.92341  0.36585  1.0000
  H   H2574     1.0  0.79678  0.76715  0.38122  1.0000
  Fe  Fe286     1.0  0.50286  0.84727  0.38261  1.0000
  C   C2147     1.0  0.75534  0.81699  0.41864  1.0000
  C   C2148     1.0  0.61595  0.91006  0.36065  1.0000
  C   C2149     1.0  0.79869  0.81362  0.35958  1.0000
  H   H2575     1.0  0.58951  0.90234  0.35784  1.0000
  C   C2150     1.0  0.61348  0.85050  0.33641  1.0000
  Fe  Fe287     1.0  0.49540  0.85256  0.34107  1.0000
  C   C2151     1.0  0.77623  0.79198  0.38934  1.0000
  C   C2152     1.0  0.63450  0.87533  0.34812  1.0000
  H   H2576     1.0  0.64263  0.86209  0.34358  1.0000
  H   H2577     1.0  0.68517  0.77076  0.32844  1.0000
  H   H2578     1.0  0.57649  0.88834  0.33989  1.0000
  C   C2153     1.0  0.80218  0.75606  0.33569  1.0000
  C   C2154     1.0  0.79282  0.78280  0.37848  1.0000
  C   C2155     1.0  0.51606  0.88104  0.42687  1.0000
  S   S573      1.0  0.70337  0.86188  0.32313  1.0000
  H   H2579     1.0  0.51875  0.88136  0.44167  1.0000
  C   C2156     1.0  0.78221  0.82300  0.37046  1.0000
  H   H2580     1.0  0.60618  0.80602  0.32501  1.0000
  H   H2581     1.0  0.70416  0.76785  0.37477  1.0000
  C   C2157     1.0  0.68811  0.77030  0.37562  1.0000
  H   H2582     1.0  0.76172  0.84978  0.39455  1.0000
  S   S574      1.0  0.82644  0.74690  0.32672  1.0000
  H   H2583     1.0  0.81667  0.78632  0.35501  1.0000
  C   C2158     1.0  0.61981  0.77106  0.36792  1.0000
  C   C2159     1.0  0.49793  0.89543  0.40122  1.0000
  H   H2584     1.0  0.60408  0.77314  0.36964  1.0000
  Fe  Fe288     1.0  0.61547  0.98238  0.41886  1.0000
  H   H2585     1.0  0.57964  0.86769  0.32871  1.0000
  H   H2586     1.0  0.60406  0.84140  0.33283  1.0000
  C   C2160     1.0  0.65086  0.74971  0.36565  1.0000
  S   S575      1.0  0.60334  0.73681  0.33130  1.0000
  H   H2587     1.0  0.68151  0.98276  0.56026  1.0000
  H   H2588     1.0  0.49317  0.88149  0.40135  1.0000
  H   H2589     1.0  0.62309  0.74026  0.36989  1.0000
  H   H2590     1.0  0.68904  0.98336  0.33147  1.0000
  S   S576      1.0  0.72028  0.81640  0.31650  1.0000
  H   H2591     1.0  0.80249  0.78352  0.31660  1.0000
  H   H2592     1.0  0.65823  0.73493  0.36591  1.0000
