data_image0
_chemical_formula_structural       C3HNC3H3CH2C2H4SHC2H2CHC2HCH2SCHC2S2HSFeHFeSFeSFeSFe2S2FeS2FeS2FeSFeS3FeS2FeS2FeSFeS3C6H3C7H4C6H5C2HS2C2H2CNHC6HCNC3HSHC2HSC4H2CHCHFeSCH2CH2C2HCSC2H2CHSCH2CH2CH7CHC2SCSCH2NC9H14CNCHFeH2CHCHC6HSC4HCHC2HC2HC2H2NC9H12CH2CHNC3H2FeHSHCFeC2H2CSH2FeCH2CH2CH2C2HC4H3NH3C2H3C4H2CH3C2HCH2SC2H5CH3C2HNC9H14NHCHFeSH3SHCHCNHSH3CH6C2H2C3H3NH3CHCHCHC2SHFeSC2H2CH5NHC2H5C4H8CSH5CHC2FeSCSH2CHSCH3C2HC3SH2CNCH2C2HCH2CH2CSC2H2CFeS2FeS2FeSCSFeS2FeS2FeS2FeSFeS3H3FeSFeS4CHCSCH2FeSCH4C2H2CSH4S2CHC6H4FeSC7H5C6H4C6H4C5H3CS2HC3H4C3H2CH7CHNC3H2CH2CHCH4CH2SH2CHCSH3CH3C2H3CHSHSCH4C2H2SCH4CH2FeHCNC9H14NC7HCH8SCH3SCH4NC9H8CH3CH2C2H6CNC2HFeH3CHC2FeHCH3C2FeC2SCH2SHCH2CNC2HC2HC2H2NSHFeHCHC2HCHCNC3NFeHC2H3C2HCHSH2NH2C5FeC2HNH2C2HCH2CHC3HSHCH4C2H3C2HC2HC2H3C2HCHCH3SC2HC2HC2H6CHC2HSFeCSCFeS2FeSFeHS3FeSCSHFeS2FeSCHSHCFeSCS2CHSH2FeH2CFeSC6H5C3HSH4C6H4C3H5CSC6H5CSH2SCH3CS2FeC2HSH5C2HCHCSH3CHCSHCHC4H3CNC2NC10H11CSNC2H2CH2C2HCHCHFeH3CH4C3HFeC2HCHC2H2C2H2C2HC2HNCH2CSH2C4H2SNHCHC2HCHCH4CFeCHCH2CH2SCHCH3C2H2NC6H13NCSC7H3CH3NH7CHNC9H14NSCNHSH4CHCHCHSH2CFeS2HSH2CHFeCH3C2HCHFeCH2FeC2FeH3CSC5H2SH2SCHC3FeCNCHSFeC2HSHCHCNHCFeHC3FeSHSCSCH2C7HFeCHCHC3H3CHC3HCSH3NCHC2H2FeHC2H3CHCH2C2FeH2FeSH3CHC2HCH2CHFeCH2CHNSFeH2CFeHC3H6C2SHSH2C4HC2FeHFeS2FeS2FeSFeHS2C4HCHSHCHCH2CFeS2FeS2FeSFeS2FeS2FeS2FeSFeS3FeSCFeS2FeSFeS3C6H4C4HC6H5C6HCH2C3H4C3HC2HC2SCH2C6H4CH2CH3C2H2C2H4CHNC7H12NC7HCH4CH4SH3CH4CHCH2C2SCNHCHC2HC5HC3H2CNC9H14CHC3HCH7CHCFeCHCH2FeHNC9H14NC7H11CSCH2CH3CH3C4HCHSC2H3CHCHCH2FeHCFeH3CHSCH2CHCHCHSHC2H2C3NCSCHCNSH3C2HCH5C4H2CH4NCH3CHCH2CSHSCH2SCHC2HCH3FeH2FeS2FeS2HSH4CH2SCH2FeS2FeS2FeSFeS3HC2H3CHC2H3CNH3C4H2C2HSC2H2CH2CHCHCHC6H6C3H2SFeH2SC3H3S2HC2HCHFeNC2H3FeHCSH2CSC2SH2CSC2HC2H3CH4CH2CHSH2CHC2NH4C3HSC4HCH2CHCHC2HCHCHSHC3HC4H2C4HFeHNHC8H4SH9NH2CSHC2HCHCHCHNCSCH2CFeHCH4NH3FeHC2S2FeS2FeS2FeSFeS3H3FeS2FeCSCHFeHS2CFeH5C5SCH2FeH4CH2CH7SHSCH7C2H2FeH2C6H4CH2C3SNH4CH3C6H4C6H4C2SC9HCH2CSHC3HCH5C2H2C2SHSH4NC6HCHCH6CH4CHFeCS2H3SH2FeH2NCFeCNHC2HC2NC3NHCH2C2SHCHCH4C2H2NC4HC2H3SCH2C2HCHCHCHCH2C2H2C2FeCH5C2SH2CH2C2HC2H2CHSHFe2S2Fe2S3FeH2CH2SCH2CH3CSHCHSH4CH2FeH2C4FeSHCHFeCSHCNCSHCH2NHC2HCH4CHCH6CHC3HCFeHCHCH2CH3FeC6HCHC2H2NH2C2NH2C3SCH2CH2CHCHCHSCH2SC2SFeSFeSH6FeS2FeS2FeSFeS3H3SH2SHFeSC2HFeS2FeS2FeSFeCS2FeSCFeS2FeSFeS3CHC2H6C4HC7H4SCH5C6H5CHNH3C2H2C5HCHCHC6H4C3H2CHC2H4C2HC4SH2CHC2SH2CH4C2H2CSHC2HC2H4SHCNC8H10CH4CH4SCHCSHC2H3NCHC8H2C3HCH2CH3CNC9H14NSCHC4HCH4CHNSH3CH2CNHCH2CHCH2CHCH2CH2NH3CH2NHC6SC2H2CH6CH2CHCHCHC2FeC3H3SNH2C3H2C2SH2C3H6C4H3NHC2HSHCFeH2C5HC2H6CHCH9SCSHCH3CHCH2FeH2SCFeS2FeSFeSFeS3CH3SCSH4CH3CH4CHSC2HC2HC2SH3C6H11C6H5C2NHFeCH3C4H2CH2SC5H3NHCHC3HCSH3C2HC2H3CHCHC2H2CHC3HCHC6H3C2H2C2HNHCH2C2NCNSH2CH2C2H2CHCH2FeH2NHFeS2FeS2FeCFeS3FeS2HCHS3FeSHFeS2FeSFeS3HS2C5HC6H4C6H4C6HCH2SC4H3CFeCH3CHCNH2C2HCH2CH2CHCHC2H5CHC2HCNC4FeCHNH2C2H5CHCHC2H4SHC2HCHCSC2H2C3H2CNC6SCH12C2H3CFeHC2HCH2CH2CNH6C2H4CH2SCH2C5H4FeHSHCHCHCSCHCHCNC2HCFeCHCHCHFeSCNC2HC2HSHC2SH2CH2FeSFeCHC2HCFeSHFeS2FeS2FeSFeS4CSH2CFeSH2SC2H2FeSHFeSHFeCSH2SHNC6H4C2HC3H4C6H4C5H2C6H5SH2SHFeH2CNH2CHCS2HCH2FeHC7H5CHC6H3NCHCHSH2C5SCH2CH2C2HC3HCSC2HCFeHFeH2CHCFeSHCH4CHCHCH2S2H3CSHC3HCH3CHC2H2C2HNC9H15SHSCH2CHC4HC2HCNCNH2CSH2CHC2HSH9CH2CHC2H2S2H3SH2SHC2H4CHCHC3H4SC2HC2HFeHCHFeSCHC2FeSHC2HFe2SCNSHFeSFeSCSFeSH2CFeSH2FeCSFeHSHCH2S2FeS2H2FeSHSC3H4CHC3NHC2H2SH3C2HC6H4C6HCH3FeHC4SC6HCH2C6H7CH3FeC3HSC4H6C2S2HCHNCH4C4HFeC3H2NCHC3H2NS2C2H2CH2NC9H21CH3FeHSC2HCHC2S2FeH6C2HSCH2CH5CFeS2FeSFeHFeS6Fe2S2HFeCS2HFeS2FeS2FeSFeS3HCHSH3C4HC7H4SHC4H2CFeH2C2HCH2C6H4C6H4FeNC6HC2H9CHSCH3CH2NC4FeCH5C2H3CSHCH2SHNHCSC2FeH4CSCFeSC3HCHCH3CHC2HC2HCHC2HC2H2SHC4FeC2SH3CHCH3SC3H2C2HNC9H14CSCH2FeCHC3HC2H2CHSC4SFeHNCHNHC2SH2C3HC2H3CHNCH7C3NH2CHCHNC2H2CH3C3H2C2H3SH2CH2FeH3CH4CH2C4H4FeHSH2CH2C2HNSHCHCHFeSFeSFeS2HFeS2FeS2FeSFeS3FeS2H2C2FeS3FeS2FeS2HCHCHC2H2C8H2C6HCHC6H4C6H4C6H4CHCH2CH2CH2SH2C3HCH2C2HCH2CH4CH2CHCHC2SH2CH2SCH4C2HC3FeHCH2CHFeC2HCH4CFeCHC3HSCSH2NC7H11CH2CHCSH2C2HSFeH2NH3CNHCH9SNH3CH2SCHCHCFeH2C2H2SNC4H2CNCHC4SH3CH2NH2FeH2SH2CH2CHSHCHS2HCH3CHCHCHCHSHC3H3C2SHSHCH2FeSHFeS2FeHFeHS2FeS2FeS2FeSFeS5FeSFeS2FeS2FeSFeS3CH5C4FeC2SC2H2C9H4C6H4SC6H4CHCHC2HC2HC6H4C6H4SC2HSH3C2SCHC3HCSHC3H5CH3CH3C2H2CHSCH6CHCNH2CNHCFeH2CHNC9HFeH12NH2C2HC5HCHC2HCH6NC9H11CFeHNC9H14CHCH2SCH2CHC2SH2CHCFeSH2CHCHNSFeHCHC3H3C2NH2CH2C3HSH3C2NC3HCNHCHC3HSCH2SHC3HFeHCH2CHC3HFeC2SC2H3SCH2CHCHCNSHCNC2HCH2CH2C2HSHCHC3H2C2H4S2C2HSHFeCH3FeH2C4SH4S2FeCHFeSCS2HCH3C2H3C2HCHCFeHCHCHC3SCHSHCHCHSCFeH3SH4CHC4H2C3H9CHC2H4C3HCH2CHFeCH2C2H2CH2SHC2HC2H2CHCHNC2SC2HCFeS2FeS2FeSFeS3FeS2FeS2FeSFeS3FeS2FeS2FeSFeS3H3SFeH3CH3C2HSHFeCHCH2FeH2CHC2H2C2H4C4H2C6H2C6H5C6H3C6H4C6H4CHC3HCH3C6H4C6H4NC2H9CHSFeHCFeCHC2FeHCH2C3HC4N2CNHSH3SHCH3CHSNC9H7NH2C3HCNHSC2H2CH5C3NC9H14NC8H12C3H5SHSFeHSCH7CH2CHFeH3NC9H14NHFeC2HCH3C2SCH3FeCH2SCSH2NC2HCNCHSCNCHCH2C2SH5C2HCHC3H6SHC2HCH5CHCHC2S2HSHCSCHCH2SHCH2CSHFeCHC2H3C3HCHSCH2C2HCHFeH3FeCHCH2C2HCHCHNCFeC2H3CHC4HCHSCHCH2C3HFeCH5SH2CFeH7SCHCSHNH4SHFeCSFeS2FeHFeS3CSHSFeS2FeS3CSHSFeSFeS3H2CHFeSCFeSCSH2CSFeHS2HFeHNCH3C2HCH4CHC6H4CFeH4SH2SC2HSCHCHC6H4FeH2C6H3C6H4SHC2H2SH2C3H2C2HNC9H4CH6NCHCNC9H14NC7HCSH3CH3FeHCFeC2H2C4H3S2H2SH2C4NHCFeH2CFeH4CH3C3HSH2C4SHFeHFeCH2CH4CH2FeC2HCHNCH2CHCH2C3HFeCH3CNH3C3HC2HSHFeCHCNHCSC2HCH2CHS2H2CSH3SH3C2HCH2CH4CH3NHCSHC2H3C2HNHSH6CH4FeCSHCHCFeCH3CS2H2CH5CNCH2CFeS2H3FeSFeSCHCHC2NCH3SH2FeS2FeSCFeSFeS3HFeS2H3FeS2C2SFeSHSH4C7H5CH3C5HC2H2C5H3C2HC9H4C3H4C2HC6H5NSH3CH2SCH3CH2CHSCH2CH4NHCH3CHC2HSC2HCH2CH2C3HC2H2CH3CHCHC2H4C2HSCSHC2H2C4FeNHC3NCHNH3CHCHC2HC3HCH7CHC2HSCHCH3CHCHC2HFeCSHFeH5CHCH2C3FeS2CFeSFeSHSHS2HS2FeS2FeSFeS2FeS2FeS2FeSFeHS2HFeS2FeS2FeSFeS3FeS2FeS2FeSFeS3CHCSHC6H4C6H4CHCHC4FeH3C6H4C6H4C6H3C6H5C2HCSC6H5C6H4SHCNS2CHC2FeHCH3CH4C2H2CHCSH5CFeH4C3SH4CH3CHNH2CNC9H14C2HNC7HCH14CS2H3NC9H14NC9H9CHSHSC2FeSHC2HCHC2HC3HC2HC2H3CHC2H3CHSHCFeHCHCH2CH5CH2CFeH3CH6CFeHCH2C3HCHSCHCNH2CH2CHCSH2CH2C2NH2CHCH4C4H2NCFeH2CH5CSC2HSC2HC5HCH2N2CNCHCSCH4C2HCNC3HCHCHCFeCHCH6CH4CHCH4C2HCH2CHCSH2CHCH3FeCHC2H2FeH4C3H2C2HCHNC4SH5CHCH2C2H2FeS3CH2FeSHSHSHCSHFeSFeSHN2SCFeS2FeS2H3FeSC2SH2CSHNCHCFeH4FeH3CH4CFeCH7FeNH4CH6CHC6H4CHCHCHC8H4CH3CSC8H4C6H4CHC2HCHCH2CHSH2C4NCH2CFeHCHNH2CHCSHC2HC2HCH4C2H3CNC6H2SH3C2H4NCH2SNC2H7C2FeCHFeHC2H4SC2HCH2C4H2CH3CHC2SHC2SH2C3HCH3C4HFeC3HSH2CHCH7SHFeSHSHCHC2H3CHCHFe2S3H4FeHCH2SCH2C5NH2C3H3C2HSCFeCHCSH2CH5FeCHCHNHCHSCH2CH2C2H
_chemical_formula_sum              "C2880 H3456 N192 S768 Fe384"
_cell_length_a       75.9912
_cell_length_b       75.8481
_cell_length_c       75.6539
_cell_angle_alpha    74.7142
_cell_angle_beta     74.6386
_cell_angle_gamma    74.6472

_space_group_name_H-M_alt    "P 1"
_space_group_IT_number       1

loop_
  _space_group_symop_operation_xyz
  'x, y, z'

loop_
  _atom_site_type_symbol
  _atom_site_label
  _atom_site_symmetry_multiplicity
  _atom_site_fract_x
  _atom_site_fract_y
  _atom_site_fract_z
  _atom_site_occupancy
  C   C1        1.0  0.00056  0.05779  0.46632  1.0000
  C   C2        1.0  0.02038  0.10986  0.43897  1.0000
  C   C3        1.0  0.01092  0.10780  0.42634  1.0000
  H   H1        1.0  0.99995  0.11933  0.42220  1.0000
  N   N1        1.0  0.00488  0.08920  0.40628  1.0000
  C   C4        1.0  0.01121  0.07093  0.40039  1.0000
  C   C5        1.0  0.02966  0.07654  0.42619  1.0000
  C   C6        1.0  0.03448  0.09542  0.44510  1.0000
  H   H2        1.0  0.04135  0.09682  0.45539  1.0000
  H   H3        1.0  0.02621  0.06857  0.39327  1.0000
  H   H4        1.0  0.01650  0.12251  0.44448  1.0000
  C   C7        1.0  0.01525  0.09105  0.41955  1.0000
  H   H5        1.0  0.03353  0.06303  0.42245  1.0000
  H   H6        1.0  0.02223  0.10339  0.38243  1.0000
  C   C8        1.0  0.01621  0.05020  0.47458  1.0000
  C   C9        1.0  0.03913  0.07884  0.43869  1.0000
  H   H7        1.0  0.00911  0.05910  0.41257  1.0000
  H   H8        1.0  0.04967  0.06741  0.44405  1.0000
  H   H9        1.0  0.02465  0.03665  0.47258  1.0000
  H   H10       1.0  0.00006  0.10268  0.37854  1.0000
  S   S1        1.0  0.99595  0.04535  0.45173  1.0000
  H   H11       1.0  0.00323  0.06999  0.39038  1.0000
  C   C10       1.0  0.00719  0.10404  0.38909  1.0000
  C   C11       1.0  0.98978  0.07531  0.46904  1.0000
  H   H12       1.0  0.00116  0.11829  0.39198  1.0000
  H   H13       1.0  0.98832  0.98299  0.47537  1.0000
  C   C12       1.0  0.26438  0.99507  0.85852  1.0000
  H   H14       1.0  0.28770  0.03830  0.83052  1.0000
  C   C13       1.0  0.31181  0.08156  0.61684  1.0000
  C   C14       1.0  0.28867  0.15030  0.62401  1.0000
  H   H15       1.0  0.05503  0.98980  0.57511  1.0000
  C   C15       1.0  0.24007  0.14046  0.63324  1.0000
  H   H16       1.0  0.18517  0.09208  0.60361  1.0000
  H   H17       1.0  0.14357  0.06929  0.60872  1.0000
  S   S2        1.0  0.03593  0.03580  0.57580  1.0000
  C   C16       1.0  0.28513  0.10598  0.80972  1.0000
  H   H18       1.0  0.13115  0.04720  0.59966  1.0000
  C   C17       1.0  0.29533  0.20163  0.61949  1.0000
  C   C18       1.0  0.29573  0.20493  0.63670  1.0000
  S   S3        1.0  0.05359  0.05136  0.52352  1.0000
  S   S4        1.0  0.27277  0.21563  0.82967  1.0000
  H   H19       1.0  0.19818  0.04484  0.63075  1.0000
  S   S5        1.0  0.24546  0.08896  0.76377  1.0000
  Fe  Fe1       1.0  0.26783  0.08999  0.77727  1.0000
  H   H20       1.0  0.01259  0.04640  0.62576  1.0000
  Fe  Fe2       1.0  0.24017  0.06536  0.78784  1.0000
  S   S6        1.0  0.21095  0.06182  0.80116  1.0000
  Fe  Fe3       1.0  0.25591  0.01983  0.61545  1.0000
  S   S7        1.0  0.23929  0.03363  0.63939  1.0000
  Fe  Fe4       1.0  0.29242  0.02791  0.61846  1.0000
  S   S8        1.0  0.27871  0.04175  0.64265  1.0000
  Fe  Fe5       1.0  0.26306  0.01869  0.65372  1.0000
  Fe  Fe6       1.0  0.25629  0.05567  0.62668  1.0000
  S   S9        1.0  0.24559  0.08655  0.62383  1.0000
  S   S10       1.0  0.27089  0.04352  0.60150  1.0000
  Fe  Fe7       1.0  0.12178  0.18701  0.78529  1.0000
  S   S11       1.0  0.14926  0.16676  0.78740  1.0000
  S   S12       1.0  0.09923  0.19562  0.80969  1.0000
  Fe  Fe8       1.0  0.12886  0.19232  0.74285  1.0000
  S   S13       1.0  0.15683  0.17289  0.74109  1.0000
  S   S14       1.0  0.11884  0.20853  0.71649  1.0000
  Fe  Fe9       1.0  0.14319  0.15439  0.76634  1.0000
  S   S15       1.0  0.14809  0.12379  0.76602  1.0000
  Fe  Fe10      1.0  0.16083  0.18675  0.76201  1.0000
  S   S16       1.0  0.18888  0.19374  0.75660  1.0000
  S   S17       1.0  0.11453  0.17270  0.76637  1.0000
  S   S18       1.0  0.13406  0.20803  0.76163  1.0000
  Fe  Fe11      1.0  0.14800  0.12085  0.64979  1.0000
  S   S19       1.0  0.15759  0.12594  0.61858  1.0000
  S   S20       1.0  0.16318  0.09861  0.66977  1.0000
  Fe  Fe12      1.0  0.11509  0.15315  0.64800  1.0000
  S   S21       1.0  0.12134  0.16055  0.61637  1.0000
  S   S22       1.0  0.09212  0.16866  0.66759  1.0000
  Fe  Fe13      1.0  0.12742  0.12930  0.61790  1.0000
  S   S23       1.0  0.12422  0.10927  0.60147  1.0000
  Fe  Fe14      1.0  0.15086  0.15634  0.61985  1.0000
  S   S24       1.0  0.17040  0.17596  0.60396  1.0000
  S   S25       1.0  0.11836  0.12251  0.64941  1.0000
  S   S26       1.0  0.14414  0.15057  0.65110  1.0000
  C   C19       1.0  0.11230  0.19566  0.70399  1.0000
  C   C20       1.0  0.12330  0.19288  0.68651  1.0000
  C   C21       1.0  0.11713  0.18469  0.67528  1.0000
  C   C22       1.0  0.09994  0.17924  0.68141  1.0000
  C   C23       1.0  0.08882  0.18231  0.69877  1.0000
  C   C24       1.0  0.09507  0.19027  0.71016  1.0000
  H   H21       1.0  0.13628  0.19767  0.68135  1.0000
  H   H22       1.0  0.12524  0.18358  0.66148  1.0000
  H   H23       1.0  0.07528  0.17862  0.70339  1.0000
  C   C25       1.0  0.28630  0.99224  0.55792  1.0000
  C   C26       1.0  0.22336  0.09054  0.63803  1.0000
  C   C27       1.0  0.21093  0.10745  0.63367  1.0000
  C   C28       1.0  0.19266  0.11029  0.64418  1.0000
  C   C29       1.0  0.18667  0.09601  0.65868  1.0000
  C   C30       1.0  0.19921  0.07926  0.66339  1.0000
  C   C31       1.0  0.21765  0.07665  0.65320  1.0000
  H   H24       1.0  0.21528  0.11815  0.62184  1.0000
  H   H25       1.0  0.18316  0.12346  0.64083  1.0000
  H   H26       1.0  0.19458  0.06816  0.67457  1.0000
  H   H27       1.0  0.22738  0.06381  0.65696  1.0000
  C   C32       1.0  0.19361  0.07973  0.79186  1.0000
  C   C33       1.0  0.19522  0.09853  0.78655  1.0000
  C   C34       1.0  0.18093  0.11246  0.77934  1.0000
  C   C35       1.0  0.16537  0.10745  0.77689  1.0000
  C   C36       1.0  0.16405  0.08865  0.78189  1.0000
  C   C37       1.0  0.17791  0.07493  0.78964  1.0000
  H   H28       1.0  0.20731  0.10232  0.78827  1.0000
  H   H29       1.0  0.18214  0.12695  0.77529  1.0000
  H   H30       1.0  0.15214  0.08467  0.77994  1.0000
  H   H31       1.0  0.17658  0.06047  0.79366  1.0000
  H   H32       1.0  0.25098  0.04804  0.67373  1.0000
  C   C38       1.0  0.25044  0.16932  0.62819  1.0000
  C   C39       1.0  0.00724  0.04742  0.55706  1.0000
  H   H33       1.0  0.29733  0.03828  0.68922  1.0000
  S   S27       1.0  0.27568  0.21126  0.60963  1.0000
  S   S28       1.0  0.10765  0.04393  0.50611  1.0000
  C   C40       1.0  0.18867  0.20230  0.60527  1.0000
  C   C41       1.0  0.17524  0.19155  0.61499  1.0000
  H   H34       1.0  0.19638  0.20049  0.59140  1.0000
  H   H35       1.0  0.25227  0.00477  0.86411  1.0000
  C   C42       1.0  0.26402  0.02104  0.71357  1.0000
  N   N2        1.0  0.10887  0.22110  0.62094  1.0000
  H   H36       1.0  0.31658  0.06670  0.81073  1.0000
  C   C43       1.0  0.99520  0.08546  0.47916  1.0000
  C   C44       1.0  0.17396  0.21440  0.78393  1.0000
  C   C45       1.0  0.18900  0.20979  0.76944  1.0000
  C   C46       1.0  0.31413  0.00449  0.55308  1.0000
  C   C47       1.0  0.09715  0.22660  0.65433  1.0000
  C   C48       1.0  0.14776  0.06694  0.52803  1.0000
  H   H37       1.0  0.16183  0.20830  0.78714  1.0000
  C   C49       1.0  0.99641  0.05963  0.60467  1.0000
  N   N3        1.0  0.07973  0.99311  0.55369  1.0000
  C   C50       1.0  0.29712  0.20905  0.82279  1.0000
  C   C51       1.0  0.11066  0.22747  0.63718  1.0000
  C   C52       1.0  0.22376  0.99319  0.58308  1.0000
  H   H38       1.0  0.16479  0.08935  0.59805  1.0000
  S   S29       1.0  0.25871  0.00797  0.68504  1.0000
  H   H39       1.0  0.30749  0.12780  0.76774  1.0000
  C   C53       1.0  0.32028  0.05675  0.69897  1.0000
  C   C54       1.0  0.19762  0.05752  0.61926  1.0000
  H   H40       1.0  0.15041  0.98650  0.52917  1.0000
  S   S30       1.0  0.25990  0.04331  0.77324  1.0000
  C   C55       1.0  0.10756  0.11164  0.58789  1.0000
  C   C56       1.0  0.09709  0.12900  0.58075  1.0000
  C   C57       1.0  0.08511  0.13025  0.56883  1.0000
  C   C58       1.0  0.26330  0.05374  0.71158  1.0000
  H   H41       1.0  0.09849  0.14151  0.58409  1.0000
  H   H42       1.0  0.21481  0.00643  0.57854  1.0000
  C   C59       1.0  0.18199  0.03344  0.60721  1.0000
  H   H43       1.0  0.16032  0.20973  0.65436  1.0000
  C   C60       1.0  0.30934  0.03384  0.67881  1.0000
  H   H44       1.0  0.26900  0.15590  0.75614  1.0000
  Fe  Fe15      1.0  0.04106  0.08179  0.51531  1.0000
  S   S31       1.0  0.06869  0.09050  0.50893  1.0000
  C   C61       1.0  0.25788  0.05829  0.69436  1.0000
  H   H45       1.0  0.12600  0.21961  0.80082  1.0000
  H   H46       1.0  0.29108  0.03430  0.56375  1.0000
  C   C62       1.0  0.27695  0.98556  0.87017  1.0000
  H   H47       1.0  0.21818  0.20713  0.81415  1.0000
  H   H48       1.0  0.07268  0.02277  0.55299  1.0000
  C   C63       1.0  0.23713  0.99249  0.59317  1.0000
  C   C64       1.0  0.10033  0.21398  0.81940  1.0000
  H   H49       1.0  0.24611  0.02774  0.83936  1.0000
  C   C65       1.0  0.28476  0.17307  0.76141  1.0000
  S   S32       1.0  0.01883  0.09236  0.49746  1.0000
  C   C66       1.0  0.01122  0.07811  0.48693  1.0000
  C   C67       1.0  0.31023  0.06531  0.61249  1.0000
  H   H50       1.0  0.17025  0.05044  0.56430  1.0000
  H   H51       1.0  0.24899  0.99016  0.54145  1.0000
  C   C68       1.0  0.14258  0.09072  0.54594  1.0000
  H   H52       1.0  0.22959  0.00168  0.85043  1.0000
  S   S33       1.0  0.26077  0.06815  0.80295  1.0000
  C   C69       1.0  0.25823  0.20326  0.74794  1.0000
  H   H53       1.0  0.16468  0.04029  0.53815  1.0000
  H   H54       1.0  0.20098  0.21520  0.71176  1.0000
  C   C70       1.0  0.13956  0.08554  0.53039  1.0000
  H   H55       1.0  0.13863  0.21331  0.60974  1.0000
  H   H56       1.0  0.29942  0.09221  0.61949  1.0000
  C   C71       1.0  0.30475  0.12148  0.78252  1.0000
  H   H57       1.0  0.27315  0.22090  0.75249  1.0000
  H   H58       1.0  0.17260  0.21341  0.68107  1.0000
  H   H59       1.0  0.05067  0.00606  0.55400  1.0000
  H   H60       1.0  0.29559  0.09758  0.83523  1.0000
  H   H61       1.0  0.09207  0.20685  0.61272  1.0000
  H   H62       1.0  0.26679  0.00657  0.72082  1.0000
  H   H63       1.0  0.30002  0.00889  0.58869  1.0000
  C   C72       1.0  0.26951  0.99815  0.55104  1.0000
  H   H64       1.0  0.22514  0.00485  0.82770  1.0000
  C   C73       1.0  0.08188  0.00978  0.55904  1.0000
  C   C74       1.0  0.29818  0.10418  0.82051  1.0000
  S   S34       1.0  0.06942  0.11673  0.54753  1.0000
  C   C75       1.0  0.25967  0.99871  0.80873  1.0000
  S   S35       1.0  0.23202  0.21996  0.65099  1.0000
  C   C76       1.0  0.30606  0.19086  0.82991  1.0000
  H   H65       1.0  0.13370  0.12409  0.51975  1.0000
  H   H66       1.0  0.10179  0.10107  0.51014  1.0000
  N   N4        1.0  0.20582  0.09285  0.71841  1.0000
  C   C77       1.0  0.22225  0.10083  0.71633  1.0000
  C   C78       1.0  0.20103  0.09721  0.69970  1.0000
  C   C79       1.0  0.18972  0.10238  0.73104  1.0000
  C   C80       1.0  0.21018  0.07256  0.72654  1.0000
  C   C81       1.0  0.21212  0.05864  0.71630  1.0000
  C   C82       1.0  0.21311  0.06618  0.74516  1.0000
  C   C83       1.0  0.21641  0.03961  0.72441  1.0000
  C   C84       1.0  0.21726  0.04714  0.75316  1.0000
  C   C85       1.0  0.21895  0.03387  0.74280  1.0000
  H   H67       1.0  0.22642  0.09860  0.72991  1.0000
  H   H68       1.0  0.23462  0.09410  0.70686  1.0000
  H   H69       1.0  0.21960  0.11614  0.71047  1.0000
  H   H70       1.0  0.19714  0.11254  0.69421  1.0000
  H   H71       1.0  0.18894  0.09123  0.70023  1.0000
  H   H72       1.0  0.21308  0.09182  0.68904  1.0000
  H   H73       1.0  0.19321  0.10242  0.74436  1.0000
  H   H74       1.0  0.18490  0.11735  0.72470  1.0000
  H   H75       1.0  0.17765  0.09542  0.73474  1.0000
  H   H76       1.0  0.21082  0.06201  0.70187  1.0000
  H   H77       1.0  0.21243  0.07586  0.75366  1.0000
  H   H78       1.0  0.21829  0.02922  0.71620  1.0000
  H   H79       1.0  0.21934  0.04271  0.76745  1.0000
  H   H80       1.0  0.22256  0.01910  0.74887  1.0000
  C   C86       1.0  0.00602  0.01989  0.58192  1.0000
  N   N5        1.0  0.29451  0.00512  0.56347  1.0000
  C   C87       1.0  0.30224  0.18486  0.78643  1.0000
  H   H81       1.0  0.12851  0.19518  0.62657  1.0000
  Fe  Fe16      1.0  0.06260  0.09280  0.53926  1.0000
  H   H82       1.0  0.19628  0.02864  0.60895  1.0000
  H   H83       1.0  0.29016  0.22117  0.77359  1.0000
  C   C88       1.0  0.08595  0.21943  0.83420  1.0000
  H   H84       1.0  0.27327  0.00268  0.80119  1.0000
  C   C89       1.0  0.15631  0.02595  0.59926  1.0000
  H   H85       1.0  0.25137  0.19579  0.81628  1.0000
  C   C90       1.0  0.26208  0.98551  0.54615  1.0000
  C   C91       1.0  0.30284  0.21414  0.76467  1.0000
  C   C92       1.0  0.27001  0.17004  0.75560  1.0000
  C   C93       1.0  0.23559  0.99763  0.83662  1.0000
  C   C94       1.0  0.13896  0.09973  0.49769  1.0000
  C   C95       1.0  0.31791  0.11939  0.79321  1.0000
  H   H86       1.0  0.09628  0.01222  0.55368  1.0000
  S   S36       1.0  0.23902  0.01373  0.59763  1.0000
  C   C96       1.0  0.99903  0.04924  0.62226  1.0000
  C   C97       1.0  0.30374  0.02048  0.85073  1.0000
  C   C98       1.0  0.28674  0.19138  0.76058  1.0000
  C   C99       1.0  0.27293  0.20646  0.75369  1.0000
  H   H87       1.0  0.29716  0.23078  0.57229  1.0000
  C   C100      1.0  0.30767  0.22154  0.81034  1.0000
  H   H88       1.0  0.28359  0.21288  0.64444  1.0000
  C   C101      1.0  0.30970  0.01808  0.67236  1.0000
  C   C102      1.0  0.14224  0.99997  0.53176  1.0000
  H   H89       1.0  0.24532  0.18284  0.74428  1.0000
  C   C103      1.0  0.09272  0.21205  0.62495  1.0000
  C   C104      1.0  0.16175  0.06015  0.55497  1.0000
  H   H90       1.0  0.30364  0.22202  0.74989  1.0000
  C   C105      1.0  0.26754  0.99235  0.83997  1.0000
  C   C106      1.0  0.16391  0.22053  0.69259  1.0000
  H   H91       1.0  0.29305  0.07081  0.67975  1.0000
  H   H92       1.0  0.18965  0.15919  0.81711  1.0000
  N   N6        1.0  0.21596  0.15195  0.79821  1.0000
  C   C107      1.0  0.22243  0.15200  0.77794  1.0000
  C   C108      1.0  0.22052  0.13244  0.80895  1.0000
  C   C109      1.0  0.19528  0.15801  0.80221  1.0000
  C   C110      1.0  0.22545  0.16422  0.80309  1.0000
  C   C111      1.0  0.24473  0.15862  0.80352  1.0000
  C   C112      1.0  0.21620  0.18224  0.80673  1.0000
  C   C113      1.0  0.25389  0.16983  0.80837  1.0000
  C   C114      1.0  0.22555  0.19344  0.81137  1.0000
  C   C115      1.0  0.24428  0.18716  0.81240  1.0000
  H   H93       1.0  0.23770  0.14637  0.77421  1.0000
  H   H94       1.0  0.21533  0.14336  0.77342  1.0000
  H   H95       1.0  0.21957  0.16646  0.76943  1.0000
  H   H96       1.0  0.21778  0.13207  0.82423  1.0000
  H   H97       1.0  0.23532  0.12546  0.80449  1.0000
  H   H98       1.0  0.21215  0.12337  0.80692  1.0000
  H   H99       1.0  0.18840  0.14806  0.79939  1.0000
  H   H100      1.0  0.11240  0.11805  0.53483  1.0000
  H   H101      1.0  0.19053  0.17167  0.79309  1.0000
  H   H102      1.0  0.25296  0.14555  0.80005  1.0000
  H   H103      1.0  0.20176  0.18811  0.80603  1.0000
  H   H104      1.0  0.26850  0.16499  0.80904  1.0000
  C   C116      1.0  0.28831  0.11492  0.79082  1.0000
  H   H105      1.0  0.31210  0.20000  0.65753  1.0000
  H   H106      1.0  0.13031  0.02671  0.56451  1.0000
  C   C117      1.0  0.16844  0.20758  0.64073  1.0000
  H   H107      1.0  0.27034  0.03150  0.73465  1.0000
  N   N7        1.0  0.30272  0.19415  0.76649  1.0000
  C   C118      1.0  0.19003  0.21121  0.70732  1.0000
  C   C119      1.0  0.14534  0.04334  0.60185  1.0000
  C   C120      1.0  0.23183  0.17898  0.63104  1.0000
  H   H108      1.0  0.28630  0.15655  0.63643  1.0000
  H   H109      1.0  0.11332  0.04829  0.54097  1.0000
  Fe  Fe17      1.0  0.04776  0.05706  0.55228  1.0000
  H   H110      1.0  0.18375  0.20105  0.71925  1.0000
  S   S37       1.0  0.29014  0.07042  0.76162  1.0000
  H   H111      1.0  0.07736  0.14380  0.56309  1.0000
  C   C121      1.0  0.11131  0.09122  0.51900  1.0000
  Fe  Fe18      1.0  0.28128  0.04809  0.78623  1.0000
  C   C122      1.0  0.15353  0.07815  0.55797  1.0000
  C   C123      1.0  0.12102  0.03476  0.53844  1.0000
  H   H112      1.0  0.24802  0.21496  0.74252  1.0000
  H   H113      1.0  0.28850  0.16173  0.61128  1.0000
  C   C124      1.0  0.10562  0.09556  0.58323  1.0000
  S   S38       1.0  0.26826  0.07144  0.71933  1.0000
  H   H114      1.0  0.17171  0.08002  0.63779  1.0000
  H   H115      1.0  0.09366  0.19966  0.63675  1.0000
  Fe  Fe19      1.0  0.26700  0.06735  0.75016  1.0000
  C   C125      1.0  0.12590  0.20731  0.61487  1.0000
  H   H116      1.0  0.09219  0.08425  0.56817  1.0000
  H   H117      1.0  0.20306  0.17695  0.63768  1.0000
  C   C126      1.0  0.26601  0.03514  0.72141  1.0000
  H   H118      1.0  0.31404  0.18679  0.79132  1.0000
  H   H119      1.0  0.15526  0.18574  0.64072  1.0000
  C   C127      1.0  0.22152  0.15025  0.63637  1.0000
  H   H120      1.0  0.21018  0.14305  0.63932  1.0000
  H   H121      1.0  0.00802  0.06471  0.59455  1.0000
  C   C128      1.0  0.21743  0.16943  0.63536  1.0000
  C   C129      1.0  0.25513  0.14965  0.62937  1.0000
  H   H122      1.0  0.01417  0.05848  0.54861  1.0000
  C   C130      1.0  0.05958  0.99252  0.55955  1.0000
  C   C131      1.0  0.25917  0.02559  0.69602  1.0000
  C   C132      1.0  0.25551  0.04431  0.68681  1.0000
  C   C133      1.0  0.15260  0.05588  0.60710  1.0000
  H   H123      1.0  0.27244  0.10081  0.81612  1.0000
  H   H124      1.0  0.26977  0.02669  0.56821  1.0000
  H   H125      1.0  0.15539  0.08241  0.56984  1.0000
  N   N8        1.0  0.17545  0.22749  0.70125  1.0000
  H   H126      1.0  0.26545  0.02727  0.81974  1.0000
  H   H127      1.0  0.19768  0.20372  0.69580  1.0000
  H   H128      1.0  0.29471  0.16092  0.76646  1.0000
  C   C134      1.0  0.19204  0.21558  0.61328  1.0000
  C   C135      1.0  0.30854  0.01665  0.81877  1.0000
  H   H129      1.0  0.13289  0.00813  0.50562  1.0000
  H   H130      1.0  0.29613  0.02790  0.86179  1.0000
  H   H131      1.0  0.24933  0.00683  0.79996  1.0000
  C   C136      1.0  0.08531  0.99586  0.53300  1.0000
  C   C137      1.0  0.02145  0.06022  0.48493  1.0000
  C   C138      1.0  0.29885  0.02630  0.83306  1.0000
  C   C139      1.0  0.31183  0.19756  0.64415  1.0000
  H   H132      1.0  0.13103  0.11012  0.48760  1.0000
  H   H133      1.0  0.11327  0.12717  0.51065  1.0000
  C   C140      1.0  0.01506  0.03423  0.57123  1.0000
  H   H134      1.0  0.07471  0.21192  0.83986  1.0000
  H   H135      1.0  0.14229  0.08627  0.49302  1.0000
  H   H136      1.0  0.11366  0.08206  0.58863  1.0000
  C   C141      1.0  0.25673  0.18513  0.74890  1.0000
  C   C142      1.0  0.25179  0.02309  0.82584  1.0000
  H   H137      1.0  0.08508  0.22062  0.65682  1.0000
  C   C143      1.0  0.30644  0.07537  0.67292  1.0000
  H   H138      1.0  0.30345  0.16952  0.78897  1.0000
  H   H139      1.0  0.13640  0.10430  0.54935  1.0000
  S   S39       1.0  0.27885  0.00292  0.63081  1.0000
  C   C144      1.0  0.14133  0.00511  0.54848  1.0000
  C   C145      1.0  0.12137  0.02946  0.52198  1.0000
  H   H140      1.0  0.22853  0.19401  0.62971  1.0000
  H   H141      1.0  0.07755  0.00940  0.52596  1.0000
  H   H142      1.0  0.10321  0.08925  0.53370  1.0000
  H   H143      1.0  0.20217  0.22401  0.60551  1.0000
  H   H144      1.0  0.29683  0.06406  0.61119  1.0000
  C   C146      1.0  0.13086  0.02258  0.55170  1.0000
  H   H145      1.0  0.26084  0.17765  0.62495  1.0000
  H   H146      1.0  0.07815  0.00852  0.57452  1.0000
  H   H147      1.0  0.25575  0.07261  0.68665  1.0000
  C   C147      1.0  0.09344  0.09678  0.57157  1.0000
  C   C148      1.0  0.16545  0.19399  0.63295  1.0000
  H   H148      1.0  0.05351  0.15353  0.75892  1.0000
  N   N9        1.0  0.12182  0.12891  0.71860  1.0000
  C   C149      1.0  0.13025  0.11018  0.72851  1.0000
  C   C150      1.0  0.12196  0.12737  0.69939  1.0000
  C   C151      1.0  0.13379  0.14217  0.71676  1.0000
  C   C152      1.0  0.10291  0.13540  0.72946  1.0000
  C   C153      1.0  0.08647  0.13929  0.72226  1.0000
  C   C154      1.0  0.10055  0.13805  0.74791  1.0000
  C   C155      1.0  0.06889  0.14567  0.73288  1.0000
  C   C156      1.0  0.08293  0.14452  0.75835  1.0000
  C   C157      1.0  0.06713  0.14836  0.75084  1.0000
  H   H149      1.0  0.13229  0.11046  0.74245  1.0000
  H   H150      1.0  0.12121  0.10003  0.73086  1.0000
  H   H151      1.0  0.14421  0.10451  0.72038  1.0000
  H   H152      1.0  0.11391  0.11699  0.69959  1.0000
  H   H153      1.0  0.13636  0.12274  0.69151  1.0000
  H   H154      1.0  0.11617  0.14108  0.69098  1.0000
  H   H155      1.0  0.13610  0.14274  0.73049  1.0000
  H   H156      1.0  0.14784  0.13834  0.70783  1.0000
  H   H157      1.0  0.12730  0.15658  0.71033  1.0000
  H   H158      1.0  0.08679  0.13799  0.70829  1.0000
  H   H159      1.0  0.11236  0.13527  0.75439  1.0000
  H   H160      1.0  0.05658  0.14886  0.72698  1.0000
  H   H161      1.0  0.08159  0.14669  0.77231  1.0000
  H   H162      1.0  0.30690  0.05235  0.70628  1.0000
  N   N10       1.0  0.12811  0.09845  0.51728  1.0000
  H   H163      1.0  0.08628  0.19282  0.72343  1.0000
  C   C158      1.0  0.20459  0.21776  0.76533  1.0000
  H   H164      1.0  0.27461  0.98828  0.88408  1.0000
  Fe  Fe20      1.0  0.25389  0.22987  0.62679  1.0000
  S   S40       1.0  0.15268  0.99002  0.56589  1.0000
  H   H165      1.0  0.14547  0.06173  0.51701  1.0000
  H   H166      1.0  0.29794  0.18115  0.83954  1.0000
  H   H167      1.0  0.28906  0.19072  0.79562  1.0000
  S   S41       1.0  0.27180  0.11801  0.77746  1.0000
  H   H168      1.0  0.29202  0.11562  0.64138  1.0000
  C   C159      1.0  0.28435  0.02493  0.55979  1.0000
  H   H169      1.0  0.24255  0.12564  0.63365  1.0000
  C   C160      1.0  0.13236  0.01222  0.51845  1.0000
  N   N11       1.0  0.27465  0.13894  0.62633  1.0000
  H   H170      1.0  0.30318  0.14173  0.62229  1.0000
  S   S42       1.0  0.07570  0.06299  0.54965  1.0000
  H   H171      1.0  0.15191  0.07826  0.63076  1.0000
  H   H172      1.0  0.20261  0.06794  0.62368  1.0000
  H   H173      1.0  0.15236  0.10393  0.49610  1.0000
  C   C161      1.0  0.16609  0.07048  0.63284  1.0000
  H   H174      1.0  0.27585  0.14271  0.59688  1.0000
  H   H175      1.0  0.29375  0.12425  0.60562  1.0000
  H   H176      1.0  0.26922  0.11237  0.64369  1.0000
  H   H177      1.0  0.27276  0.12816  0.65593  1.0000
  H   H178      1.0  0.01203  0.00964  0.59285  1.0000
  H   H179      1.0  0.30748  0.07842  0.65749  1.0000
  C   C162      1.0  0.18163  0.21852  0.63091  1.0000
  C   C163      1.0  0.17899  0.08182  0.60033  1.0000
  H   H180      1.0  0.16447  0.05808  0.64445  1.0000
  H   H181      1.0  0.27033  0.12089  0.61062  1.0000
  C   C164      1.0  0.27719  0.12314  0.64255  1.0000
  C   C165      1.0  0.27880  0.13136  0.60915  1.0000
  C   C166      1.0  0.15875  0.05451  0.54012  1.0000
  H   H182      1.0  0.30534  0.08871  0.67707  1.0000
  H   H183      1.0  0.18749  0.07819  0.58685  1.0000
  H   H184      1.0  0.15635  0.21029  0.70311  1.0000
  N   N12       1.0  0.17846  0.06489  0.61554  1.0000
  H   H185      1.0  0.11477  0.07754  0.51471  1.0000
  H   H186      1.0  0.28394  0.03024  0.54469  1.0000
  H   H187      1.0  0.31503  0.21572  0.76924  1.0000
  C   C167      1.0  0.11485  0.22369  0.81220  1.0000
  H   H188      1.0  0.15072  0.01628  0.59502  1.0000
  C   C168      1.0  0.31096  0.19095  0.60975  1.0000
  H   H189      1.0  0.20802  0.05401  0.60655  1.0000
  C   C169      1.0  0.17112  0.05129  0.61007  1.0000
  H   H190      1.0  0.31073  0.18852  0.59635  1.0000
  C   C170      1.0  0.12173  0.11776  0.52079  1.0000
  C   C171      1.0  0.31839  0.00508  0.85420  1.0000
  S   S43       1.0  0.30327  0.02333  0.79622  1.0000
  H   H191      1.0  0.18303  0.00744  0.59993  1.0000
  Fe  Fe21      1.0  0.08044  0.06026  0.51991  1.0000
  S   S44       1.0  0.03374  0.08714  0.54466  1.0000
  C   C172      1.0  0.08323  0.11418  0.56412  1.0000
  C   C173      1.0  0.17456  0.02102  0.60194  1.0000
  H   H192      1.0  0.21603  0.21442  0.75392  1.0000
  H   H193      1.0  0.24199  0.03131  0.81649  1.0000
  C   C174      1.0  0.99014  0.04657  0.55395  1.0000
  H   H194      1.0  0.10867  0.98743  0.57294  1.0000
  H   H195      1.0  0.26150  0.01231  0.54982  1.0000
  H   H196      1.0  0.12481  0.20173  0.60307  1.0000
  H   H197      1.0  0.08274  0.98457  0.52777  1.0000
  H   H198      1.0  0.31499  0.00793  0.53766  1.0000
  N   N13       1.0  0.25400  0.00267  0.82790  1.0000
  H   H199      1.0  0.29824  0.01080  0.67787  1.0000
  C   C175      1.0  0.17477  0.22672  0.79455  1.0000
  C   C176      1.0  0.32049  0.18577  0.75491  1.0000
  H   H200      1.0  0.31998  0.06919  0.70432  1.0000
  H   H201      1.0  0.03383  0.05439  0.49074  1.0000
  H   H202      1.0  0.10045  0.99602  0.52811  1.0000
  H   H203      1.0  0.27978  0.99924  0.59204  1.0000
  H   H204      1.0  0.07919  0.22190  0.62848  1.0000
  C   C177      1.0  0.31449  0.11105  0.81227  1.0000
  C   C178      1.0  0.98913  0.01881  0.57851  1.0000
  C   C179      1.0  0.29429  0.99931  0.58382  1.0000
  C   C180      1.0  0.20535  0.23012  0.77584  1.0000
  H   H205      1.0  0.16326  0.23004  0.80596  1.0000
  H   H206      1.0  0.26087  0.98369  0.80905  1.0000
  H   H207      1.0  0.32100  0.19173  0.73971  1.0000
  H   H208      1.0  0.30276  0.98506  0.58768  1.0000
  H   H209      1.0  0.32041  0.01461  0.55646  1.0000
  H   H210      1.0  0.08907  0.23161  0.68244  1.0000
  H   H211      1.0  0.15367  0.23204  0.68595  1.0000
  H   H212      1.0  0.12399  0.46671  0.10088  1.0000
  C   C181      1.0  0.31313  0.43603  0.47014  1.0000
  S   S45       1.0  0.00102  0.46260  0.16549  1.0000
  H   H213      1.0  0.05303  0.41364  0.11431  1.0000
  H   H214      1.0  0.24747  0.47167  0.02791  1.0000
  H   H215      1.0  0.09692  0.42015  0.11994  1.0000
  H   H216      1.0  0.30345  0.44784  0.46401  1.0000
  H   H217      1.0  0.03543  0.44160  0.10456  1.0000
  C   C182      1.0  0.00101  0.45439  0.13188  1.0000
  H   H218      1.0  0.07470  0.40299  0.12111  1.0000
  C   C183      1.0  0.04465  0.44948  0.09391  1.0000
  C   C184      1.0  0.27505  0.47778  0.05375  1.0000
  Fe  Fe22      1.0  0.17209  0.45806  0.00710  1.0000
  S   S46       1.0  0.19480  0.47462  0.99642  1.0000
  C   C185      1.0  0.06698  0.47082  0.06566  1.0000
  S   S47       1.0  0.16490  0.46471  0.03589  1.0000
  H   H219      1.0  0.13433  0.47597  0.06638  1.0000
  H   H220      1.0  0.17023  0.39736  0.99047  1.0000
  C   C186      1.0  0.04829  0.47296  0.06530  1.0000
  H   H221      1.0  0.08915  0.45727  0.07960  1.0000
  S   S48       1.0  0.17299  0.42917  0.00283  1.0000
  C   C187      1.0  0.07463  0.45801  0.08015  1.0000
  H   H222      1.0  0.06668  0.42775  0.14029  1.0000
  H   H223      1.0  0.07565  0.47917  0.05468  1.0000
  H   H224      1.0  0.09977  0.42663  0.09494  1.0000
  C   C188      1.0  0.06810  0.41414  0.11053  1.0000
  C   C189      1.0  0.11445  0.47645  0.09266  1.0000
  H   H225      1.0  0.26013  0.45631  0.05634  1.0000
  C   C190      1.0  0.03716  0.46231  0.07939  1.0000
  C   C191      1.0  0.99632  0.44453  0.12105  1.0000
  C   C192      1.0  0.06364  0.44682  0.09472  1.0000
  S   S49       1.0  0.08864  0.47652  0.12574  1.0000
  H   H226      1.0  0.02265  0.46399  0.07900  1.0000
  H   H227      1.0  0.27999  0.47068  0.06645  1.0000
  C   C193      1.0  0.99451  0.45113  0.15131  1.0000
  N   N14       1.0  0.07123  0.43278  0.11011  1.0000
  C   C194      1.0  0.17636  0.42488  0.98008  1.0000
  H   H228      1.0  0.00976  0.46440  0.12518  1.0000
  H   H229      1.0  0.30866  0.47780  0.06105  1.0000
  C   C195      1.0  0.25671  0.47793  0.03196  1.0000
  C   C196      1.0  0.26377  0.46936  0.04806  1.0000
  H   H230      1.0  0.09485  0.44414  0.10884  1.0000
  C   C197      1.0  0.06157  0.43812  0.12831  1.0000
  H   H231      1.0  0.04620  0.43934  0.13117  1.0000
  H   H232      1.0  0.07397  0.41023  0.09661  1.0000
  C   C198      1.0  0.09158  0.43086  0.10828  1.0000
  H   H233      1.0  0.00153  0.44706  0.10605  1.0000
  H   H234      1.0  0.06400  0.45183  0.12870  1.0000
  C   C199      1.0  0.12032  0.48168  0.07313  1.0000
  S   S50       1.0  0.14965  0.48140  0.99712  1.0000
  C   C200      1.0  0.29155  0.24586  0.56718  1.0000
  C   C201      1.0  0.10572  0.42537  0.96121  1.0000
  H   H235      1.0  0.27382  0.31265  0.83174  1.0000
  H   H236      1.0  0.98869  0.36094  0.79012  1.0000
  C   C202      1.0  0.23263  0.24993  0.72443  1.0000
  Fe  Fe23      1.0  0.04162  0.30650  0.86571  1.0000
  S   S51       1.0  0.04336  0.31435  0.89150  1.0000
  S   S52       1.0  0.02046  0.32358  0.84911  1.0000
  Fe  Fe24      1.0  0.07379  0.31257  0.87872  1.0000
  S   S53       1.0  0.08974  0.33566  0.87084  1.0000
  S   S54       1.0  0.07110  0.30737  0.85196  1.0000
  Fe  Fe25      1.0  0.05642  0.40411  0.80130  1.0000
  S   S55       1.0  0.07404  0.39256  0.82310  1.0000
  C   C203      1.0  0.13232  0.46044  0.74597  1.0000
  S   S56       1.0  0.09437  0.42872  0.80485  1.0000
  Fe  Fe26      1.0  0.09777  0.40004  0.79998  1.0000
  S   S57       1.0  0.12638  0.38181  0.79810  1.0000
  S   S58       1.0  0.08097  0.40902  0.77748  1.0000
  Fe  Fe27      1.0  0.17846  0.39096  0.91091  1.0000
  S   S59       1.0  0.15197  0.40034  0.90005  1.0000
  S   S60       1.0  0.18577  0.41327  0.92111  1.0000
  Fe  Fe28      1.0  0.18930  0.35485  0.89569  1.0000
  S   S61       1.0  0.16376  0.36190  0.88373  1.0000
  S   S62       1.0  0.20782  0.32656  0.89287  1.0000
  Fe  Fe29      1.0  0.16934  0.39072  0.87423  1.0000
  S   S63       1.0  0.16708  0.40846  0.84583  1.0000
  Fe  Fe30      1.0  0.14884  0.37060  0.91078  1.0000
  S   S64       1.0  0.12214  0.36127  0.92646  1.0000
  S   S65       1.0  0.19627  0.38323  0.88389  1.0000
  S   S66       1.0  0.17401  0.36169  0.92380  1.0000
  H   H237      1.0  0.04076  0.23860  0.79056  1.0000
  H   H238      1.0  0.11895  0.24397  0.60033  1.0000
  H   H239      1.0  0.02967  0.34233  0.93692  1.0000
  Fe  Fe31      1.0  0.24127  0.28183  0.80408  1.0000
  S   S67       1.0  0.23882  0.30955  0.81134  1.0000
  Fe  Fe32      1.0  0.25630  0.26144  0.77168  1.0000
  S   S68       1.0  0.27294  0.26190  0.74215  1.0000
  S   S69       1.0  0.22904  0.28066  0.78049  1.0000
  S   S70       1.0  0.26944  0.26491  0.79347  1.0000
  S   S71       1.0  0.06374  0.42700  0.85576  1.0000
  C   C204      1.0  0.00367  0.29435  0.93105  1.0000
  H   H240      1.0  0.12630  0.24606  0.81421  1.0000
  C   C205      1.0  0.00214  0.36477  0.78556  1.0000
  S   S72       1.0  0.21460  0.26456  0.65088  1.0000
  C   C206      1.0  0.27130  0.30615  0.84645  1.0000
  H   H241      1.0  0.08066  0.25010  0.80120  1.0000
  H   H242      1.0  0.30892  0.28662  0.61506  1.0000
  Fe  Fe33      1.0  0.23861  0.27045  0.62709  1.0000
  S   S73       1.0  0.24239  0.29997  0.61343  1.0000
  C   C207      1.0  0.03826  0.41373  0.72405  1.0000
  H   H243      1.0  0.12351  0.45234  0.94215  1.0000
  H   H244      1.0  0.03599  0.32116  0.76765  1.0000
  H   H245      1.0  0.27133  0.27720  0.57621  1.0000
  H   H246      1.0  0.21557  0.30744  0.67564  1.0000
  C   C208      1.0  0.30209  0.26094  0.84644  1.0000
  C   C209      1.0  0.09854  0.46995  0.75398  1.0000
  H   H247      1.0  0.18203  0.31410  0.86068  1.0000
  H   H248      1.0  0.31378  0.43628  0.52100  1.0000
  C   C210      1.0  0.26077  0.25647  0.72825  1.0000
  S   S74       1.0  0.03819  0.27017  0.93099  1.0000
  H   H249      1.0  0.18075  0.44079  0.84818  1.0000
  H   H250      1.0  0.06548  0.42353  0.73672  1.0000
  H   H251      1.0  0.28918  0.28708  0.57793  1.0000
  H   H252      1.0  0.13850  0.43603  0.95625  1.0000
  S   S75       1.0  0.31123  0.39682  0.51845  1.0000
  S   S76       1.0  0.19193  0.24899  0.80462  1.0000
  C   C211      1.0  0.00163  0.28182  0.84111  1.0000
  H   H253      1.0  0.21822  0.24873  0.72997  1.0000
  C   C212      1.0  0.26506  0.30469  0.60691  1.0000
  C   C213      1.0  0.27964  0.29254  0.61481  1.0000
  C   C214      1.0  0.29774  0.29611  0.60887  1.0000
  C   C215      1.0  0.30144  0.31188  0.59505  1.0000
  C   C216      1.0  0.28682  0.32432  0.58742  1.0000
  C   C217      1.0  0.26865  0.32074  0.59340  1.0000
  H   H254      1.0  0.27707  0.28041  0.62550  1.0000
  H   H255      1.0  0.31170  0.26939  0.84725  1.0000
  H   H256      1.0  0.28953  0.33656  0.57679  1.0000
  H   H257      1.0  0.25742  0.33030  0.58730  1.0000
  Fe  Fe34      1.0  0.25782  0.24030  0.81141  1.0000
  S   S77       1.0  0.10122  0.26331  0.84331  1.0000
  C   C218      1.0  0.11496  0.23870  0.81978  1.0000
  C   C219      1.0  0.21485  0.32197  0.87009  1.0000
  C   C220      1.0  0.22000  0.30340  0.86773  1.0000
  C   C221      1.0  0.22625  0.29941  0.84970  1.0000
  C   C222      1.0  0.22827  0.31394  0.83396  1.0000
  C   C223      1.0  0.22279  0.33250  0.83632  1.0000
  C   C224      1.0  0.21577  0.33653  0.85430  1.0000
  H   H258      1.0  0.21923  0.29209  0.87992  1.0000
  H   H259      1.0  0.23002  0.28509  0.84810  1.0000
  H   H260      1.0  0.22421  0.34383  0.82420  1.0000
  H   H261      1.0  0.21174  0.35089  0.85597  1.0000
  H   H262      1.0  0.10589  0.39827  0.93804  1.0000
  C   C225      1.0  0.13775  0.38710  0.81289  1.0000
  C   C226      1.0  0.15722  0.38456  0.80856  1.0000
  C   C227      1.0  0.16629  0.39049  0.81917  1.0000
  C   C228      1.0  0.15596  0.39861  0.83439  1.0000
  C   C229      1.0  0.13656  0.40040  0.83924  1.0000
  C   C230      1.0  0.12746  0.39475  0.82843  1.0000
  H   H263      1.0  0.16522  0.37874  0.79652  1.0000
  H   H264      1.0  0.18129  0.38911  0.81536  1.0000
  H   H265      1.0  0.12850  0.40669  0.85098  1.0000
  H   H266      1.0  0.11243  0.39647  0.83208  1.0000
  C   C231      1.0  0.09691  0.34350  0.88712  1.0000
  C   C232      1.0  0.10675  0.35797  0.88042  1.0000
  C   C233      1.0  0.11434  0.36354  0.89252  1.0000
  C   C234      1.0  0.11176  0.35496  0.91151  1.0000
  C   C235      1.0  0.10125  0.34097  0.91841  1.0000
  C   C236      1.0  0.09398  0.33508  0.90618  1.0000
  H   H267      1.0  0.10890  0.36466  0.86570  1.0000
  H   H268      1.0  0.12210  0.37459  0.88714  1.0000
  H   H269      1.0  0.09919  0.33434  0.93313  1.0000
  H   H270      1.0  0.08636  0.32391  0.91143  1.0000
  C   C237      1.0  0.01344  0.36125  0.76847  1.0000
  C   C238      1.0  0.03081  0.36665  0.76253  1.0000
  C   C239      1.0  0.03665  0.37573  0.77337  1.0000
  C   C240      1.0  0.02515  0.37952  0.79033  1.0000
  C   C241      1.0  0.16399  0.24949  0.74390  1.0000
  H   H271      1.0  0.04347  0.43905  0.76942  1.0000
  H   H272      1.0  0.03965  0.36405  0.74930  1.0000
  H   H273      1.0  0.04994  0.37993  0.76850  1.0000
  C   C242      1.0  0.01479  0.27940  0.94114  1.0000
  S   S78       1.0  0.08237  0.28201  0.89078  1.0000
  S   S79       1.0  0.23059  0.25743  0.82382  1.0000
  H   H274      1.0  0.14733  0.40309  0.93900  1.0000
  C   C243      1.0  0.01356  0.30923  0.83875  1.0000
  C   C244      1.0  0.01122  0.31559  0.82031  1.0000
  C   C245      1.0  0.00444  0.30495  0.81215  1.0000
  H   H275      1.0  0.01480  0.32870  0.81222  1.0000
  H   H276      1.0  0.00359  0.30952  0.79758  1.0000
  H   H277      1.0  0.01001  0.45575  0.74974  1.0000
  H   H278      1.0  0.17144  0.25210  0.75306  1.0000
  C   C246      1.0  0.18473  0.43405  0.94612  1.0000
  C   C247      1.0  0.18218  0.41706  0.94409  1.0000
  C   C248      1.0  0.17692  0.40384  0.96016  1.0000
  H   H279      1.0  0.18404  0.43653  0.78607  1.0000
  H   H280      1.0  0.11361  0.44137  0.75854  1.0000
  C   C249      1.0  0.25841  0.32852  0.64252  1.0000
  H   H281      1.0  0.17536  0.39051  0.95882  1.0000
  H   H282      1.0  0.25945  0.26996  0.83596  1.0000
  H   H283      1.0  0.30988  0.25148  0.83658  1.0000
  H   H284      1.0  0.27300  0.26489  0.87870  1.0000
  H   H285      1.0  0.13689  0.23659  0.62338  1.0000
  H   H286      1.0  0.13121  0.32840  0.86438  1.0000
  H   H287      1.0  0.09420  0.24832  0.60935  1.0000
  C   C250      1.0  0.13565  0.28990  0.87107  1.0000
  H   H288      1.0  0.02242  0.43100  0.77410  1.0000
  N   N15       1.0  0.17327  0.45856  0.86831  1.0000
  C   C251      1.0  0.15438  0.45427  0.87508  1.0000
  C   C252      1.0  0.18571  0.44275  0.85999  1.0000
  C   C253      1.0  0.18029  0.45915  0.88464  1.0000
  H   H289      1.0  0.12803  0.39298  0.95319  1.0000
  H   H290      1.0  0.15843  0.48000  0.80844  1.0000
  C   C254      1.0  0.06005  0.30432  0.80260  1.0000
  H   H291      1.0  0.30041  0.29186  0.81896  1.0000
  H   H292      1.0  0.25760  0.28646  0.89982  1.0000
  C   C255      1.0  0.10195  0.41082  0.91045  1.0000
  H   H293      1.0  0.11645  0.24457  0.67958  1.0000
  C   C256      1.0  0.13255  0.43808  0.94368  1.0000
  H   H294      1.0  0.00714  0.38809  0.72524  1.0000
  H   H295      1.0  0.14470  0.44940  0.74507  1.0000
  H   H296      1.0  0.18607  0.42919  0.87040  1.0000
  H   H297      1.0  0.29299  0.42904  0.49556  1.0000
  C   C257      1.0  0.14656  0.47376  0.81569  1.0000
  H   H298      1.0  0.18220  0.44530  0.89435  1.0000
  H   H299      1.0  0.19401  0.46338  0.88016  1.0000
  S   S80       1.0  0.18355  0.23675  0.64034  1.0000
  H   H300      1.0  0.30977  0.46988  0.51662  1.0000
  H   H301      1.0  0.06133  0.44704  0.73946  1.0000
  C   C258      1.0  0.26060  0.24682  0.70006  1.0000
  H   H302      1.0  0.12087  0.45239  0.91328  1.0000
  C   C259      1.0  0.17231  0.47695  0.85512  1.0000
  S   S81       1.0  0.04982  0.43332  0.80661  1.0000
  H   H303      1.0  0.30089  0.23556  0.80474  1.0000
  H   H304      1.0  0.18896  0.23755  0.72684  1.0000
  H   H305      1.0  0.03814  0.39414  0.70791  1.0000
  C   C260      1.0  0.10758  0.41029  0.92678  1.0000
  H   H306      1.0  0.05660  0.44296  0.71921  1.0000
  H   H307      1.0  0.27838  0.29105  0.81456  1.0000
  H   H308      1.0  0.25878  0.33313  0.85351  1.0000
  C   C261      1.0  0.14320  0.45877  0.80995  1.0000
  C   C262      1.0  0.17422  0.44224  0.79804  1.0000
  H   H309      1.0  0.18088  0.45187  0.80161  1.0000
  H   H310      1.0  0.17299  0.43032  0.81020  1.0000
  H   H311      1.0  0.13966  0.40386  0.96336  1.0000
  C   C263      1.0  0.99899  0.28845  0.82268  1.0000
  H   H312      1.0  0.99895  0.37666  0.80948  1.0000
  S   S82       1.0  0.04760  0.27547  0.87605  1.0000
  H   H313      1.0  0.12429  0.43911  0.81818  1.0000
  S   S83       1.0  0.99097  0.30431  0.76052  1.0000
  C   C264      1.0  0.11599  0.44036  0.91304  1.0000
  H   H314      1.0  0.27874  0.25079  0.83219  1.0000
  H   H315      1.0  0.31770  0.28795  0.56313  1.0000
  H   H316      1.0  0.25055  0.32049  0.88749  1.0000
  H   H317      1.0  0.11050  0.45291  0.88535  1.0000
  C   C265      1.0  0.06530  0.46366  0.84013  1.0000
  C   C266      1.0  0.02857  0.42307  0.73899  1.0000
  H   H318      1.0  0.28459  0.25301  0.70549  1.0000
  H   H319      1.0  0.14880  0.45310  0.86332  1.0000
  S   S84       1.0  0.26014  0.24922  0.64118  1.0000
  C   C267      1.0  0.11580  0.45838  0.83599  1.0000
  H   H320      1.0  0.19030  0.46750  0.82994  1.0000
  H   H321      1.0  0.03002  0.25811  0.82281  1.0000
  H   H322      1.0  0.22568  0.31468  0.65160  1.0000
  H   H323      1.0  0.06749  0.27586  0.81603  1.0000
  C   C268      1.0  0.27062  0.27969  0.87269  1.0000
  H   H324      1.0  0.09808  0.41389  0.96426  1.0000
  H   H325      1.0  0.11994  0.25474  0.73828  1.0000
  Fe  Fe35      1.0  0.23581  0.24180  0.66384  1.0000
  H   H326      1.0  0.17048  0.46888  0.89328  1.0000
  C   C269      1.0  0.17391  0.24083  0.72897  1.0000
  N   N16       1.0  0.12827  0.31866  0.81260  1.0000
  C   C270      1.0  0.11648  0.32739  0.82838  1.0000
  C   C271      1.0  0.12385  0.33086  0.79481  1.0000
  C   C272      1.0  0.12288  0.30061  0.81481  1.0000
  C   C273      1.0  0.14828  0.31663  0.81230  1.0000
  C   C274      1.0  0.16136  0.29928  0.81244  1.0000
  C   C275      1.0  0.15538  0.33250  0.81125  1.0000
  C   C276      1.0  0.18022  0.29808  0.81175  1.0000
  C   C277      1.0  0.17423  0.33110  0.81069  1.0000
  C   C278      1.0  0.18662  0.31391  0.81093  1.0000
  H   H327      1.0  0.11829  0.34177  0.82719  1.0000
  H   H328      1.0  0.10133  0.32882  0.82923  1.0000
  H   H329      1.0  0.11955  0.31881  0.84201  1.0000
  H   H330      1.0  0.12598  0.34526  0.79296  1.0000
  H   H331      1.0  0.10902  0.33237  0.79425  1.0000
  H   H332      1.0  0.13288  0.32516  0.78252  1.0000
  H   H333      1.0  0.10765  0.30242  0.81573  1.0000
  H   H334      1.0  0.13023  0.29371  0.80281  1.0000
  H   H335      1.0  0.12589  0.29075  0.82797  1.0000
  H   H336      1.0  0.15750  0.28638  0.81300  1.0000
  H   H337      1.0  0.14641  0.34619  0.81076  1.0000
  H   H338      1.0  0.18998  0.28475  0.81177  1.0000
  H   H339      1.0  0.17930  0.34345  0.80988  1.0000
  H   H340      1.0  0.20125  0.31289  0.81025  1.0000
  N   N17       1.0  0.24559  0.30400  0.66967  1.0000
  C   C279      1.0  0.24876  0.28513  0.66585  1.0000
  C   C280      1.0  0.24503  0.30213  0.68986  1.0000
  C   C281      1.0  0.22688  0.31430  0.66609  1.0000
  C   C282      1.0  0.26099  0.31313  0.65782  1.0000
  C   C283      1.0  0.04297  0.29207  0.78093  1.0000
  C   C284      1.0  0.27948  0.30605  0.66082  1.0000
  C   C285      1.0  0.11904  0.47359  0.84073  1.0000
  H   H341      1.0  0.06402  0.46082  0.82730  1.0000
  C   C286      1.0  0.12808  0.24149  0.65104  1.0000
  H   H342      1.0  0.26239  0.27634  0.66853  1.0000
  H   H343      1.0  0.23772  0.27749  0.67469  1.0000
  H   H344      1.0  0.24875  0.28608  0.65095  1.0000
  H   H345      1.0  0.25752  0.29244  0.69448  1.0000
  H   H346      1.0  0.23295  0.29621  0.69906  1.0000
  H   H347      1.0  0.06626  0.30916  0.81130  1.0000
  H   H348      1.0  0.22380  0.32889  0.66819  1.0000
  H   H349      1.0  0.12067  0.27155  0.86655  1.0000
  S   S85       1.0  0.31782  0.37171  0.56783  1.0000
  C   C287      1.0  0.01292  0.39807  0.72874  1.0000
  H   H350      1.0  0.28267  0.29402  0.67176  1.0000
  H   H351      1.0  0.06990  0.47435  0.88605  1.0000
  H   H352      1.0  0.14877  0.25222  0.85055  1.0000
  S   S86       1.0  0.00586  0.35138  0.75359  1.0000
  C   C288      1.0  0.14405  0.30967  0.89570  1.0000
  H   H353      1.0  0.12880  0.31129  0.89728  1.0000
  H   H354      1.0  0.14549  0.32123  0.90143  1.0000
  H   H355      1.0  0.14918  0.29621  0.90492  1.0000
  H   H356      1.0  0.18116  0.29832  0.88345  1.0000
  N   N18       1.0  0.02985  0.37259  0.86370  1.0000
  C   C289      1.0  0.04541  0.36097  0.85254  1.0000
  C   C290      1.0  0.01247  0.37330  0.85781  1.0000
  C   C291      1.0  0.03298  0.39196  0.85893  1.0000
  C   C292      1.0  0.02924  0.36471  0.88393  1.0000
  C   C293      1.0  0.01382  0.35756  0.89626  1.0000
  C   C294      1.0  0.04463  0.36361  0.89177  1.0000
  C   C295      1.0  0.01404  0.34963  0.91517  1.0000
  C   C296      1.0  0.04462  0.35583  0.91070  1.0000
  C   C297      1.0  0.02942  0.34875  0.92235  1.0000
  H   H357      1.0  0.04588  0.36591  0.83722  1.0000
  H   H358      1.0  0.05925  0.36107  0.85479  1.0000
  H   H359      1.0  0.04393  0.34616  0.85626  1.0000
  H   H360      1.0  0.00980  0.35905  0.86005  1.0000
  H   H361      1.0  0.01344  0.37929  0.84254  1.0000
  H   H362      1.0  0.00019  0.38216  0.86535  1.0000
  H   H363      1.0  0.04677  0.39255  0.86096  1.0000
  H   H364      1.0  0.03268  0.39862  0.84397  1.0000
  C   C298      1.0  0.13506  0.25100  0.73556  1.0000
  H   H365      1.0  0.00162  0.35755  0.89157  1.0000
  H   H366      1.0  0.05700  0.36844  0.88322  1.0000
  H   H367      1.0  0.24509  0.33442  0.63857  1.0000
  C   C299      1.0  0.06875  0.47137  0.87323  1.0000
  H   H368      1.0  0.24400  0.31592  0.69308  1.0000
  H   H369      1.0  0.23481  0.25864  0.74853  1.0000
  C   C300      1.0  0.05576  0.43740  0.73450  1.0000
  C   C301      1.0  0.24202  0.25547  0.73500  1.0000
  H   H370      1.0  0.06641  0.44272  0.88556  1.0000
  H   H371      1.0  0.28077  0.25208  0.60207  1.0000
  H   H372      1.0  0.17977  0.25939  0.84596  1.0000
  H   H373      1.0  0.00937  0.30044  0.91674  1.0000
  H   H374      1.0  0.04420  0.41541  0.76829  1.0000
  H   H375      1.0  0.05293  0.25246  0.82764  1.0000
  C   C302      1.0  0.18179  0.47918  0.83599  1.0000
  N   N19       1.0  0.12208  0.42343  0.94549  1.0000
  C   C303      1.0  0.02449  0.45520  0.74133  1.0000
  C   C304      1.0  0.31855  0.25791  0.56698  1.0000
  H   H376      1.0  0.14024  0.24702  0.64984  1.0000
  Fe  Fe36      1.0  0.07564  0.43735  0.78436  1.0000
  H   H377      1.0  0.17412  0.25311  0.68048  1.0000
  H   H378      1.0  0.28866  0.28335  0.55555  1.0000
  H   H379      1.0  0.29887  0.25159  0.86036  1.0000
  C   C305      1.0  0.31949  0.40979  0.49603  1.0000
  H   H380      1.0  0.09567  0.43882  0.95791  1.0000
  C   C306      1.0  0.01065  0.41943  0.74840  1.0000
  C   C307      1.0  0.11470  0.45586  0.75355  1.0000
  Fe  Fe37      1.0  0.07786  0.27689  0.86442  1.0000
  H   H381      1.0  0.26740  0.25338  0.85544  1.0000
  C   C308      1.0  0.14484  0.24208  0.72074  1.0000
  H   H382      1.0  0.27121  0.34789  0.61945  1.0000
  H   H383      1.0  0.20037  0.44465  0.85508  1.0000
  H   H384      1.0  0.30838  0.30832  0.65185  1.0000
  C   C309      1.0  0.00917  0.29212  0.84909  1.0000
  C   C310      1.0  0.13456  0.48109  0.83079  1.0000
  Fe  Fe38      1.0  0.05128  0.28329  0.90148  1.0000
  C   C311      1.0  0.16918  0.28283  0.85977  1.0000
  C   C312      1.0  0.12608  0.23533  0.63596  1.0000
  S   S87       1.0  0.24701  0.23528  0.78883  1.0000
  C   C313      1.0  0.10345  0.42593  0.89541  1.0000
  H   H385      1.0  0.01560  0.25991  0.96757  1.0000
  H   H386      1.0  0.15456  0.44075  0.88545  1.0000
  S   S88       1.0  0.03110  0.39176  0.80429  1.0000
  H   H387      1.0  0.02572  0.26116  0.79066  1.0000
  C   C314      1.0  0.29577  0.25169  0.59541  1.0000
  H   H388      1.0  0.05663  0.35502  0.91628  1.0000
  H   H389      1.0  0.27611  0.24731  0.57174  1.0000
  C   C315      1.0  0.14601  0.32787  0.86412  1.0000
  N   N20       1.0  0.28503  0.27320  0.84039  1.0000
  C   C316      1.0  0.13420  0.27477  0.86466  1.0000
  C   C317      1.0  0.16750  0.26784  0.85322  1.0000
  H   H390      1.0  0.07493  0.23855  0.85319  1.0000
  C   C318      1.0  0.13404  0.47917  0.73953  1.0000
  C   C319      1.0  0.06532  0.44957  0.85630  1.0000
  H   H391      1.0  0.19402  0.23496  0.67497  1.0000
  C   C320      1.0  0.16462  0.23641  0.71718  1.0000
  C   C321      1.0  0.26260  0.31820  0.85885  1.0000
  H   H392      1.0  0.13695  0.26085  0.75907  1.0000
  H   H393      1.0  0.02360  0.46009  0.72630  1.0000
  N   N21       1.0  0.03634  0.43618  0.74471  1.0000
  S   S89       1.0  0.23012  0.23677  0.69528  1.0000
  H   H394      1.0  0.30291  0.33512  0.62562  1.0000
  Fe  Fe39      1.0  0.06924  0.42204  0.82651  1.0000
  H   H395      1.0  0.17426  0.32294  0.88154  1.0000
  C   C322      1.0  0.15833  0.46722  0.77708  1.0000
  H   H396      1.0  0.00246  0.42591  0.75994  1.0000
  C   C323      1.0  0.00711  0.27150  0.95969  1.0000
  C   C324      1.0  0.30721  0.42533  0.48799  1.0000
  H   H397      1.0  0.15367  0.32926  0.84929  1.0000
  C   C325      1.0  0.17381  0.31136  0.87531  1.0000
  H   H398      1.0  0.12280  0.29828  0.87742  1.0000
  C   C326      1.0  0.29434  0.31406  0.64946  1.0000
  N   N22       1.0  0.15439  0.31041  0.87595  1.0000
  C   C327      1.0  0.15323  0.29422  0.86914  1.0000
  C   C328      1.0  0.12766  0.45097  0.82092  1.0000
  C   C329      1.0  0.27579  0.28645  0.85305  1.0000
  N   N23       1.0  0.15574  0.45162  0.79354  1.0000
  Fe  Fe40      1.0  0.22068  0.25467  0.79945  1.0000
  H   H399      1.0  0.18310  0.28528  0.85717  1.0000
  C   C330      1.0  0.07153  0.24825  0.79282  1.0000
  C   C331      1.0  0.29071  0.28258  0.82050  1.0000
  H   H400      1.0  0.19307  0.24760  0.69222  1.0000
  H   H401      1.0  0.14421  0.46506  0.88221  1.0000
  H   H402      1.0  0.14621  0.34046  0.86892  1.0000
  C   C332      1.0  0.15006  0.26380  0.85570  1.0000
  C   C333      1.0  0.10053  0.24420  0.83452  1.0000
  H   H403      1.0  0.02217  0.40093  0.86777  1.0000
  C   C334      1.0  0.00795  0.37382  0.79640  1.0000
  H   H404      1.0  0.03573  0.28847  0.77231  1.0000
  S   S90       1.0  0.23372  0.25146  0.61130  1.0000
  H   H405      1.0  0.18365  0.45119  0.96533  1.0000
  H   H406      1.0  0.16673  0.46202  0.76427  1.0000
  N   N24       1.0  0.05198  0.25830  0.79817  1.0000
  H   H407      1.0  0.05195  0.41552  0.71608  1.0000
  H   H408      1.0  0.10949  0.47952  0.85217  1.0000
  C   C335      1.0  0.05151  0.27856  0.79490  1.0000
  C   C336      1.0  0.25792  0.31110  0.87803  1.0000
  C   C337      1.0  0.04303  0.31105  0.77804  1.0000
  C   C338      1.0  0.14460  0.25446  0.74727  1.0000
  C   C339      1.0  0.13472  0.40507  0.95040  1.0000
  Fe  Fe41      1.0  0.21203  0.24301  0.63671  1.0000
  C   C340      1.0  0.06681  0.45350  0.87292  1.0000
  C   C341      1.0  0.24193  0.24543  0.70706  1.0000
  H   H409      1.0  0.01080  0.28726  0.86346  1.0000
  N   N25       1.0  0.29843  0.25830  0.57485  1.0000
  H   H410      1.0  0.09659  0.39928  0.90942  1.0000
  H   H411      1.0  0.00241  0.34378  0.92427  1.0000
  C   C342      1.0  0.18161  0.43806  0.96398  1.0000
  C   C343      1.0  0.27001  0.25240  0.71065  1.0000
  H   H412      1.0  0.14461  0.43785  0.93149  1.0000
  C   C344      1.0  0.04064  0.25383  0.78730  1.0000
  H   H413      1.0  0.29799  0.27229  0.81141  1.0000
  H   H414      1.0  0.16815  0.47167  0.92600  1.0000
  C   C345      1.0  0.05141  0.31719  0.78893  1.0000
  H   H415      1.0  0.18936  0.44410  0.93381  1.0000
  C   C346      1.0  0.06035  0.28527  0.80542  1.0000
  C   C347      1.0  0.11551  0.42468  0.92831  1.0000
  C   C348      1.0  0.04469  0.25088  0.81828  1.0000
  H   H416      1.0  0.26794  0.24291  0.68685  1.0000
  S   S91       1.0  0.07623  0.46433  0.76276  1.0000
  H   H417      1.0  0.13654  0.23953  0.71248  1.0000
  C   C349      1.0  0.27338  0.33644  0.63129  1.0000
  H   H418      1.0  0.03015  0.46553  0.74515  1.0000
  H   H419      1.0  0.14472  0.47546  0.77377  1.0000
  H   H420      1.0  0.14799  0.42496  0.79876  1.0000
  H   H421      1.0  0.04607  0.25767  0.77193  1.0000
  C   C350      1.0  0.29129  0.32924  0.63474  1.0000
  C   C351      1.0  0.11471  0.24022  0.66771  1.0000
  H   H422      1.0  0.09928  0.42611  0.88270  1.0000
  H   H423      1.0  0.05081  0.33200  0.78705  1.0000
  H   H424      1.0  0.10392  0.45231  0.84396  1.0000
  C   C352      1.0  0.14860  0.43798  0.78781  1.0000
  C   C353      1.0  0.27211  0.26133  0.84108  1.0000
  H   H425      1.0  0.15775  0.43346  0.77493  1.0000
  C   C354      1.0  0.11005  0.44087  0.89685  1.0000
  C   C355      1.0  0.03045  0.40142  0.71910  1.0000
  H   H426      1.0  0.29508  0.24902  0.55158  1.0000
  C   C356      1.0  0.03659  0.43017  0.76496  1.0000
  C   C357      1.0  0.28648  0.27728  0.57086  1.0000
  H   H427      1.0  0.13441  0.44404  0.78479  1.0000
  H   H428      1.0  0.07757  0.25334  0.77780  1.0000
  H   H429      1.0  0.30098  0.26039  0.60177  1.0000
  C   C358      1.0  0.26184  0.29189  0.88493  1.0000
  C   C359      1.0  0.00304  0.40705  0.74336  1.0000
  H   H430      1.0  0.04491  0.23565  0.82110  1.0000
  C   C360      1.0  0.10658  0.23737  0.60517  1.0000
  H   H431      1.0  0.16595  0.47701  0.77892  1.0000
  C   C361      1.0  0.18457  0.24139  0.68661  1.0000
  H   H432      1.0  0.10469  0.23329  0.59279  1.0000
  H   H433      1.0  0.21735  0.23636  0.77240  1.0000
  H   H434      1.0  0.10994  0.42502  0.97435  1.0000
  S   S92       1.0  0.98788  0.27694  0.81302  1.0000
  C   C362      1.0  0.06650  0.48163  0.84066  1.0000
  C   C363      1.0  0.09922  0.23296  0.66927  1.0000
  H   H435      1.0  0.99750  0.26898  0.84928  1.0000
  C   C364      1.0  0.08601  0.23452  0.84172  1.0000
  C   C365      1.0  0.19058  0.23441  0.79065  1.0000
  H   H436      1.0  0.30339  0.23701  0.59929  1.0000
  C   C366      1.0  0.98852  0.27848  0.96814  1.0000
  C   C367      1.0  0.17406  0.40774  0.97808  1.0000
  H   H437      1.0  0.98962  0.40394  0.75113  1.0000
  H   H438      1.0  0.07261  0.23288  0.79509  1.0000
  H   H439      1.0  0.32107  0.46755  0.53547  1.0000
  H   H440      1.0  0.11185  0.48164  0.78798  1.0000
  H   H441      1.0  0.14213  0.67213  0.31441  1.0000
  H   H442      1.0  0.15094  0.59749  0.24878  1.0000
  C   C368      1.0  0.27573  0.52427  0.38914  1.0000
  H   H443      1.0  0.20183  0.55747  0.23829  1.0000
  C   C369      1.0  0.26708  0.59333  0.14759  1.0000
  C   C370      1.0  0.28213  0.50736  0.06901  1.0000
  H   H444      1.0  0.19624  0.52445  0.10586  1.0000
  S   S93       1.0  0.28887  0.53834  0.41237  1.0000
  Fe  Fe42      1.0  0.24446  0.55146  0.07826  1.0000
  C   C371      1.0  0.27978  0.59064  0.18279  1.0000
  S   S94       1.0  0.26129  0.71612  0.14728  1.0000
  C   C372      1.0  0.25009  0.61230  0.18869  1.0000
  Fe  Fe43      1.0  0.27537  0.68056  0.11481  1.0000
  S   S95       1.0  0.26722  0.67196  0.14586  1.0000
  S   S96       1.0  0.28633  0.65705  0.09936  1.0000
  Fe  Fe44      1.0  0.24422  0.69746  0.14424  1.0000
  S   S97       1.0  0.21792  0.68992  0.16399  1.0000
  Fe  Fe45      1.0  0.28460  0.69094  0.14670  1.0000
  H   H445      1.0  0.22602  0.54245  0.02214  1.0000
  S   S98       1.0  0.25092  0.70477  0.11258  1.0000
  S   S99       1.0  0.29517  0.69746  0.11571  1.0000
  S   S100      1.0  0.24062  0.56451  0.12585  1.0000
  Fe  Fe46      1.0  0.23628  0.58363  0.09859  1.0000
  S   S101      1.0  0.22559  0.61414  0.09923  1.0000
  C   C373      1.0  0.11184  0.54576  0.17564  1.0000
  S   S102      1.0  0.00888  0.70246  0.35180  1.0000
  H   H446      1.0  0.18655  0.72080  0.25374  1.0000
  Fe  Fe47      1.0  0.12985  0.69416  0.26468  1.0000
  S   S103      1.0  0.15853  0.69829  0.26239  1.0000
  S   S104      1.0  0.13187  0.66447  0.26300  1.0000
  Fe  Fe48      1.0  0.14633  0.71028  0.28799  1.0000
  S   S105      1.0  0.16234  0.70071  0.31102  1.0000
  C   C374      1.0  0.00866  0.72187  0.41582  1.0000
  H   H447      1.0  0.17464  0.54306  0.20305  1.0000
  S   S106      1.0  0.11841  0.70379  0.29184  1.0000
  H   H448      1.0  0.23641  0.70907  0.23429  1.0000
  C   C375      1.0  0.28482  0.66505  0.27725  1.0000
  Fe  Fe49      1.0  0.09518  0.60213  0.23241  1.0000
  S   S107      1.0  0.07741  0.62938  0.23911  1.0000
  C   C376      1.0  0.22032  0.49938  0.06247  1.0000
  S   S108      1.0  0.30433  0.67954  0.16617  1.0000
  S   S109      1.0  0.26286  0.69528  0.32923  1.0000
  C   C377      1.0  0.18503  0.52175  0.10055  1.0000
  H   H449      1.0  0.13013  0.50399  0.14008  1.0000
  S   S110      1.0  0.00740  0.51469  0.14973  1.0000
  H   H450      1.0  0.26779  0.72201  0.27506  1.0000
  H   H451      1.0  0.11339  0.55341  0.08062  1.0000
  Fe  Fe50      1.0  0.03285  0.51701  0.15831  1.0000
  H   H452      1.0  0.29038  0.57449  0.20733  1.0000
  H   H453      1.0  0.23852  0.62303  0.18452  1.0000
  C   C378      1.0  0.18782  0.54650  0.07299  1.0000
  Fe  Fe51      1.0  0.22125  0.61672  0.32863  1.0000
  S   S111      1.0  0.20872  0.63988  0.34443  1.0000
  C   C379      1.0  0.24737  0.68039  0.33333  1.0000
  C   C380      1.0  0.25383  0.66370  0.32680  1.0000
  C   C381      1.0  0.24185  0.65150  0.32972  1.0000
  C   C382      1.0  0.22351  0.65561  0.33982  1.0000
  C   C383      1.0  0.21710  0.67214  0.34666  1.0000
  C   C384      1.0  0.22893  0.68468  0.34318  1.0000
  H   H454      1.0  0.26816  0.66021  0.31947  1.0000
  H   H455      1.0  0.24694  0.63884  0.32432  1.0000
  H   H456      1.0  0.20292  0.67536  0.35451  1.0000
  H   H457      1.0  0.22390  0.69748  0.34837  1.0000
  H   H458      1.0  0.08890  0.53585  0.12202  1.0000
  C   C385      1.0  0.18405  0.71536  0.32441  1.0000
  C   C386      1.0  0.99261  0.49663  0.08371  1.0000
  C   C387      1.0  0.22433  0.53049  0.03352  1.0000
  H   H459      1.0  0.05740  0.58038  0.24842  1.0000
  S   S112      1.0  0.01152  0.68916  0.40420  1.0000
  H   H460      1.0  0.19146  0.70110  0.32822  1.0000
  H   H461      1.0  0.04426  0.56379  0.24910  1.0000
  H   H462      1.0  0.22325  0.66952  0.29792  1.0000
  H   H463      1.0  0.29625  0.60700  0.14757  1.0000
  C   C388      1.0  0.11501  0.65570  0.25791  1.0000
  C   C389      1.0  0.10016  0.66727  0.24998  1.0000
  C   C390      1.0  0.08800  0.65924  0.24483  1.0000
  C   C391      1.0  0.09080  0.63973  0.24758  1.0000
  C   C392      1.0  0.10521  0.62833  0.25616  1.0000
  C   C393      1.0  0.11733  0.63627  0.26115  1.0000
  H   H464      1.0  0.09829  0.68230  0.24745  1.0000
  H   H465      1.0  0.07680  0.66812  0.23826  1.0000
  H   H466      1.0  0.10711  0.61329  0.25891  1.0000
  H   H467      1.0  0.12879  0.62725  0.26723  1.0000
  C   C394      1.0  0.20516  0.70377  0.18046  1.0000
  C   C395      1.0  0.19130  0.69694  0.19507  1.0000
  C   C396      1.0  0.18044  0.70782  0.20812  1.0000
  H   H468      1.0  0.02125  0.69197  0.30375  1.0000
  H   H469      1.0  0.08713  0.72321  0.41528  1.0000
  H   H470      1.0  0.06683  0.64546  0.29887  1.0000
  H   H471      1.0  0.18900  0.68318  0.19630  1.0000
  H   H472      1.0  0.16961  0.70256  0.21917  1.0000
  C   C397      1.0  0.13042  0.52909  0.07067  1.0000
  S   S113      1.0  0.14335  0.59713  0.17473  1.0000
  C   C398      1.0  0.26942  0.64572  0.09825  1.0000
  C   C399      1.0  0.25048  0.65426  0.10147  1.0000
  C   C400      1.0  0.23712  0.64462  0.10129  1.0000
  C   C401      1.0  0.24263  0.62629  0.09831  1.0000
  C   C402      1.0  0.26158  0.61774  0.09516  1.0000
  C   C403      1.0  0.27497  0.62753  0.09490  1.0000
  H   H473      1.0  0.24612  0.66832  0.10399  1.0000
  H   H474      1.0  0.22248  0.65132  0.10357  1.0000
  H   H475      1.0  0.26593  0.60363  0.09282  1.0000
  H   H476      1.0  0.28962  0.62088  0.09241  1.0000
  H   H477      1.0  0.15830  0.54874  0.11510  1.0000
  C   C404      1.0  0.28898  0.71042  0.18158  1.0000
  S   S114      1.0  0.16437  0.50884  0.01485  1.0000
  H   H478      1.0  0.30648  0.63333  0.19068  1.0000
  H   H479      1.0  0.16308  0.56732  0.09482  1.0000
  S   S115      1.0  0.24965  0.59879  0.32978  1.0000
  C   C405      1.0  0.02462  0.72351  0.43938  1.0000
  H   H480      1.0  0.11362  0.52547  0.11554  1.0000
  H   H481      1.0  0.23429  0.51114  0.07663  1.0000
  H   H482      1.0  0.17084  0.61555  0.25469  1.0000
  C   C406      1.0  0.05390  0.52283  0.99367  1.0000
  S   S116      1.0  0.20267  0.53352  0.13951  1.0000
  S   S117      1.0  0.24518  0.54690  0.34869  1.0000
  Fe  Fe52      1.0  0.05076  0.73160  0.47038  1.0000
  C   C407      1.0  0.27867  0.53999  0.39342  1.0000
  C   C408      1.0  0.27198  0.55781  0.38334  1.0000
  H   H483      1.0  0.27422  0.56999  0.38659  1.0000
  S   S118      1.0  0.03213  0.53949  0.17360  1.0000
  H   H484      1.0  0.99788  0.54795  0.06331  1.0000
  H   H485      1.0  0.31566  0.70397  0.28496  1.0000
  H   H486      1.0  0.23775  0.61263  0.21781  1.0000
  H   H487      1.0  0.07853  0.69953  0.28994  1.0000
  H   H488      1.0  0.11670  0.49593  0.16287  1.0000
  C   C409      1.0  0.05122  0.72981  0.27579  1.0000
  C   C410      1.0  0.16225  0.52053  0.07499  1.0000
  H   H489      1.0  0.19257  0.53691  0.06303  1.0000
  C   C411      1.0  0.21462  0.57655  0.38550  1.0000
  H   H490      1.0  0.04754  0.61311  0.23588  1.0000
  C   C412      1.0  0.26548  0.52652  0.37537  1.0000
  S   S119      1.0  0.19729  0.60633  0.27794  1.0000
  H   H491      1.0  0.28330  0.62978  0.15092  1.0000
  H   H492      1.0  0.16963  0.53210  0.16859  1.0000
  H   H493      1.0  0.15078  0.50595  0.06126  1.0000
  C   C413      1.0  0.24341  0.54892  0.17426  1.0000
  H   H494      1.0  0.25641  0.57384  0.36236  1.0000
  C   C414      1.0  0.24996  0.62435  0.14964  1.0000
  S   S120      1.0  0.12611  0.59976  0.22535  1.0000
  H   H495      1.0  0.25435  0.58743  0.15393  1.0000
  C   C415      1.0  0.10769  0.53165  0.16968  1.0000
  H   H496      1.0  0.08006  0.51739  0.02593  1.0000
  C   C416      1.0  0.26193  0.56002  0.36950  1.0000
  C   C417      1.0  0.15919  0.53544  0.08430  1.0000
  C   C418      1.0  0.21976  0.70901  0.26292  1.0000
  C   C419      1.0  0.29290  0.52844  0.32026  1.0000
  H   H497      1.0  0.28456  0.56243  0.32744  1.0000
  H   H498      1.0  0.03187  0.59660  0.26742  1.0000
  H   H499      1.0  0.20450  0.64309  0.13814  1.0000
  C   C420      1.0  0.17150  0.60106  0.26172  1.0000
  N   N26       1.0  0.19209  0.55168  0.21623  1.0000
  C   C421      1.0  0.06637  0.55556  0.19681  1.0000
  C   C422      1.0  0.16879  0.55308  0.10234  1.0000
  N   N27       1.0  0.15823  0.64427  0.31318  1.0000
  C   C423      1.0  0.14109  0.54726  0.08618  1.0000
  C   C424      1.0  0.16804  0.64560  0.32720  1.0000
  C   C425      1.0  0.16990  0.64983  0.29437  1.0000
  C   C426      1.0  0.15478  0.62537  0.31547  1.0000
  C   C427      1.0  0.15978  0.61019  0.33017  1.0000
  C   C428      1.0  0.14578  0.62180  0.30294  1.0000
  C   C429      1.0  0.15645  0.59249  0.33174  1.0000
  C   C430      1.0  0.14230  0.60414  0.30479  1.0000
  C   C431      1.0  0.14779  0.58946  0.31905  1.0000
  C   C432      1.0  0.14017  0.65794  0.31498  1.0000
  H   H500      1.0  0.15969  0.64269  0.34173  1.0000
  H   H501      1.0  0.17083  0.65985  0.32487  1.0000
  H   H502      1.0  0.18189  0.63584  0.32633  1.0000
  H   H503      1.0  0.16309  0.65057  0.28282  1.0000
  H   H504      1.0  0.17297  0.66389  0.29237  1.0000
  H   H505      1.0  0.18346  0.63968  0.29236  1.0000
  H   H506      1.0  0.16643  0.61156  0.34054  1.0000
  H   H507      1.0  0.14154  0.63265  0.29149  1.0000
  H   H508      1.0  0.16076  0.58099  0.34279  1.0000
  H   H509      1.0  0.13571  0.60167  0.29484  1.0000
  H   H510      1.0  0.14547  0.57568  0.32011  1.0000
  C   C433      1.0  0.15762  0.56066  0.17129  1.0000
  S   S121      1.0  0.04343  0.48580  0.16458  1.0000
  N   N28       1.0  0.03076  0.59267  0.24049  1.0000
  C   C434      1.0  0.03665  0.52227  0.00607  1.0000
  C   C435      1.0  0.28324  0.61747  0.14559  1.0000
  H   H511      1.0  0.25115  0.62785  0.13422  1.0000
  H   H512      1.0  0.24887  0.63770  0.15380  1.0000
  C   C436      1.0  0.10057  0.50335  0.98948  1.0000
  H   H513      1.0  0.28438  0.62204  0.13016  1.0000
  H   H514      1.0  0.04343  0.60937  0.21497  1.0000
  C   C437      1.0  0.23125  0.52849  0.04961  1.0000
  C   C438      1.0  0.21331  0.50140  0.04644  1.0000
  H   H515      1.0  0.31370  0.59524  0.11334  1.0000
  C   C439      1.0  0.21515  0.51717  0.03204  1.0000
  H   H516      1.0  0.23432  0.55133  0.42221  1.0000
  C   C440      1.0  0.14801  0.51735  0.06848  1.0000
  H   H517      1.0  0.02528  0.62263  0.22985  1.0000
  Fe  Fe53      1.0  0.25052  0.72483  0.33315  1.0000
  H   H518      1.0  0.26825  0.59690  0.13211  1.0000
  H   H519      1.0  0.31724  0.72732  0.15036  1.0000
  H   H520      1.0  0.27448  0.65764  0.28684  1.0000
  C   C441      1.0  0.16072  0.57220  0.26759  1.0000
  H   H521      1.0  0.03340  0.56259  0.22369  1.0000
  H   H522      1.0  0.28073  0.51047  0.39693  1.0000
  H   H523      1.0  0.20056  0.54838  0.07627  1.0000
  H   H524      1.0  0.30675  0.65572  0.20886  1.0000
  C   C442      1.0  0.10891  0.55106  0.13848  1.0000
  C   C443      1.0  0.18045  0.53882  0.21595  1.0000
  C   C444      1.0  0.04847  0.53881  0.18683  1.0000
  H   H525      1.0  0.05029  0.56761  0.17525  1.0000
  Fe  Fe54      1.0  0.22496  0.54693  0.11895  1.0000
  C   C445      1.0  0.06814  0.69116  0.29308  1.0000
  C   C446      1.0  0.07020  0.52174  0.00014  1.0000
  H   H526      1.0  0.10781  0.55414  0.12402  1.0000
  C   C447      1.0  0.06822  0.51918  0.01982  1.0000
  H   H527      1.0  0.00579  0.49757  0.10524  1.0000
  C   C448      1.0  0.02182  0.59469  0.26004  1.0000
  C   C449      1.0  0.10010  0.52332  0.12503  1.0000
  H   H528      1.0  0.10298  0.49785  0.00403  1.0000
  H   H529      1.0  0.01622  0.58210  0.26824  1.0000
  C   C450      1.0  0.28386  0.68372  0.27734  1.0000
  C   C451      1.0  0.03280  0.70451  0.44072  1.0000
  H   H530      1.0  0.29711  0.54288  0.35095  1.0000
  H   H531      1.0  0.14612  0.55706  0.18235  1.0000
  C   C452      1.0  0.11609  0.50145  0.14784  1.0000
  C   C453      1.0  0.31310  0.58131  0.12160  1.0000
  H   H532      1.0  0.28775  0.66071  0.22812  1.0000
  C   C454      1.0  0.10797  0.49413  0.06244  1.0000
  C   C455      1.0  0.01652  0.70278  0.41740  1.0000
  H   H533      1.0  0.04920  0.51025  0.20146  1.0000
  N   N29       1.0  0.29129  0.50390  0.04997  1.0000
  C   C456      1.0  0.27907  0.58504  0.20208  1.0000
  H   H534      1.0  0.05405  0.52420  0.97905  1.0000
  H   H535      1.0  0.17546  0.51514  0.11288  1.0000
  C   C457      1.0  0.08398  0.49624  0.09078  1.0000
  S   S122      1.0  0.24300  0.54537  0.05077  1.0000
  H   H536      1.0  0.06985  0.50177  0.09740  1.0000
  H   H537      1.0  0.09643  0.51181  0.12111  1.0000
  C   C458      1.0  0.21649  0.69698  0.28082  1.0000
  C   C459      1.0  0.24275  0.68249  0.25187  1.0000
  C   C460      1.0  0.22612  0.67837  0.28409  1.0000
  C   C461      1.0  0.23923  0.67113  0.26964  1.0000
  H   H538      1.0  0.04198  0.69767  0.45040  1.0000
  H   H539      1.0  0.13763  0.55930  0.09246  1.0000
  S   S123      1.0  0.08040  0.71482  0.46702  1.0000
  N   N30       1.0  0.17480  0.53919  0.09008  1.0000
  H   H540      1.0  0.29188  0.58410  0.17361  1.0000
  C   C462      1.0  0.02077  0.57324  0.22349  1.0000
  H   H541      1.0  0.18811  0.58127  0.21465  1.0000
  C   C463      1.0  0.22997  0.56328  0.41155  1.0000
  C   C464      1.0  0.27952  0.49519  0.04346  1.0000
  H   H542      1.0  0.11270  0.54382  0.19015  1.0000
  C   C465      1.0  0.00114  0.50519  0.09254  1.0000
  H   H543      1.0  0.25282  0.67677  0.24062  1.0000
  C   C466      1.0  0.03511  0.52042  0.02519  1.0000
  H   H544      1.0  0.24658  0.65664  0.27221  1.0000
  H   H545      1.0  0.13909  0.73105  0.46504  1.0000
  H   H546      1.0  0.17583  0.51146  0.07206  1.0000
  H   H547      1.0  0.18073  0.55464  0.10737  1.0000
  C   C467      1.0  0.19751  0.73233  0.19223  1.0000
  Fe  Fe55      1.0  0.02501  0.51653  0.12076  1.0000
  C   C468      1.0  0.18065  0.57094  0.21358  1.0000
  H   H548      1.0  0.20992  0.51885  0.01958  1.0000
  C   C469      1.0  0.05086  0.51885  0.03207  1.0000
  H   H549      1.0  0.08030  0.51127  0.06315  1.0000
  H   H550      1.0  0.28268  0.53131  0.31113  1.0000
  C   C470      1.0  0.16873  0.71912  0.31607  1.0000
  H   H551      1.0  0.31885  0.59885  0.26480  1.0000
  H   H552      1.0  0.31173  0.53104  0.15026  1.0000
  S   S124      1.0  0.04942  0.52137  0.12875  1.0000
  C   C471      1.0  0.02869  0.69419  0.42983  1.0000
  H   H553      1.0  0.11767  0.73115  0.34239  1.0000
  C   C472      1.0  0.18719  0.56981  0.14207  1.0000
  H   H554      1.0  0.04128  0.71867  0.32342  1.0000
  H   H555      1.0  0.17682  0.57533  0.19956  1.0000
  H   H556      1.0  0.29588  0.57614  0.10561  1.0000
  C   C473      1.0  0.05472  0.55514  0.18527  1.0000
  C   C474      1.0  0.12700  0.54408  0.07939  1.0000
  H   H557      1.0  0.19860  0.57350  0.13084  1.0000
  H   H558      1.0  0.30592  0.72732  0.08103  1.0000
  N   N31       1.0  0.23749  0.61326  0.39101  1.0000
  C   C475      1.0  0.24913  0.61316  0.40404  1.0000
  C   C476      1.0  0.24890  0.61680  0.37171  1.0000
  C   C477      1.0  0.22117  0.62906  0.39282  1.0000
  C   C478      1.0  0.23100  0.59560  0.39462  1.0000
  C   C479      1.0  0.23556  0.58005  0.40920  1.0000
  C   C480      1.0  0.22008  0.59340  0.38304  1.0000
  H   H559      1.0  0.27406  0.51707  0.01869  1.0000
  H   H560      1.0  0.26202  0.60194  0.40292  1.0000
  H   H561      1.0  0.25380  0.62661  0.40089  1.0000
  H   H562      1.0  0.24124  0.61117  0.41884  1.0000
  H   H563      1.0  0.26095  0.60491  0.36949  1.0000
  H   H564      1.0  0.25444  0.62976  0.36854  1.0000
  H   H565      1.0  0.24070  0.61882  0.36093  1.0000
  H   H566      1.0  0.21203  0.62681  0.40704  1.0000
  H   H567      1.0  0.22551  0.64261  0.39021  1.0000
  H   H568      1.0  0.21239  0.63099  0.38253  1.0000
  H   H569      1.0  0.24402  0.58014  0.41859  1.0000
  H   H570      1.0  0.21602  0.60457  0.37170  1.0000
  H   H571      1.0  0.27254  0.68993  0.28742  1.0000
  N   N32       1.0  0.28477  0.64073  0.21406  1.0000
  C   C481      1.0  0.29096  0.63655  0.19500  1.0000
  S   S125      1.0  0.12071  0.72228  0.24671  1.0000
  C   C482      1.0  0.29424  0.62474  0.22677  1.0000
  C   C483      1.0  0.26415  0.64432  0.21973  1.0000
  C   C484      1.0  0.25306  0.65831  0.20824  1.0000
  C   C485      1.0  0.25448  0.63468  0.23682  1.0000
  C   C486      1.0  0.23359  0.66221  0.21338  1.0000
  C   C487      1.0  0.23495  0.63870  0.24180  1.0000
  C   C488      1.0  0.22454  0.65245  0.23013  1.0000
  H   H572      1.0  0.02436  0.52337  0.00077  1.0000
  H   H573      1.0  0.28992  0.51495  0.07406  1.0000
  H   H574      1.0  0.28584  0.62434  0.19438  1.0000
  C   C489      1.0  0.30247  0.55231  0.12746  1.0000
  H   H575      1.0  0.26781  0.51601  0.06910  1.0000
  H   H576      1.0  0.28509  0.67015  0.20442  1.0000
  H   H577      1.0  0.28995  0.61156  0.22761  1.0000
  N   N33       1.0  0.29750  0.71310  0.26532  1.0000
  H   H578      1.0  0.29149  0.62748  0.24108  1.0000
  H   H579      1.0  0.25937  0.66653  0.19522  1.0000
  H   H580      1.0  0.26164  0.62399  0.24664  1.0000
  H   H581      1.0  0.22549  0.67296  0.20430  1.0000
  H   H582      1.0  0.22780  0.63109  0.25482  1.0000
  H   H583      1.0  0.20942  0.65559  0.23411  1.0000
  H   H584      1.0  0.08339  0.50986  0.17161  1.0000
  C   C490      1.0  0.07140  0.53977  0.21045  1.0000
  H   H585      1.0  0.01675  0.72260  0.28581  1.0000
  N   N34       1.0  0.15107  0.64961  0.20100  1.0000
  C   C491      1.0  0.14698  0.66791  0.20659  1.0000
  C   C492      1.0  0.13342  0.64697  0.19814  1.0000
  C   C493      1.0  0.15691  0.63489  0.21690  1.0000
  C   C494      1.0  0.16580  0.64815  0.18379  1.0000
  C   C495      1.0  0.17143  0.63138  0.17685  1.0000
  C   C496      1.0  0.17495  0.66300  0.17346  1.0000
  C   C497      1.0  0.18529  0.62961  0.16065  1.0000
  C   C498      1.0  0.18884  0.66103  0.15730  1.0000
  C   C499      1.0  0.19396  0.64441  0.15087  1.0000
  H   H586      1.0  0.15946  0.67057  0.20968  1.0000
  H   H587      1.0  0.14185  0.67969  0.19557  1.0000
  H   H588      1.0  0.13589  0.66849  0.21959  1.0000
  H   H589      1.0  0.12862  0.65771  0.18621  1.0000
  H   H590      1.0  0.12197  0.64797  0.21084  1.0000
  H   H591      1.0  0.13487  0.63310  0.19495  1.0000
  H   H592      1.0  0.17048  0.63597  0.21906  1.0000
  H   H593      1.0  0.14652  0.63604  0.23026  1.0000
  H   H594      1.0  0.15838  0.62059  0.21478  1.0000
  H   H595      1.0  0.16490  0.61959  0.18371  1.0000
  H   H596      1.0  0.17160  0.67638  0.17739  1.0000
  H   H597      1.0  0.18912  0.61679  0.15544  1.0000
  H   H598      1.0  0.19560  0.67259  0.14962  1.0000
  H   H599      1.0  0.25138  0.56482  0.18939  1.0000
  N   N35       1.0  0.10149  0.51873  0.14502  1.0000
  S   S126      1.0  0.12956  0.55769  0.21944  1.0000
  C   C500      1.0  0.11302  0.56508  0.14464  1.0000
  N   N36       1.0  0.26622  0.60989  0.15500  1.0000
  H   H600      1.0  0.28118  0.71432  0.29328  1.0000
  S   S127      1.0  0.22645  0.62349  0.29748  1.0000
  H   H601      1.0  0.13058  0.65371  0.32850  1.0000
  H   H602      1.0  0.03282  0.65887  0.30539  1.0000
  H   H603      1.0  0.30347  0.52829  0.04300  1.0000
  H   H604      1.0  0.25650  0.54782  0.16399  1.0000
  C   C501      1.0  0.26523  0.60437  0.17548  1.0000
  H   H605      1.0  0.23663  0.61945  0.15572  1.0000
  C   C502      1.0  0.03622  0.68715  0.30073  1.0000
  H   H606      1.0  0.21915  0.48712  0.07359  1.0000
  C   C503      1.0  0.08331  0.51474  0.15644  1.0000
  H   H607      1.0  0.30095  0.51381  0.32062  1.0000
  S   S128      1.0  0.29115  0.53771  0.12152  1.0000
  H   H608      1.0  0.07100  0.56824  0.19548  1.0000
  H   H609      1.0  0.20690  0.57494  0.37605  1.0000
  C   C504      1.0  0.29018  0.72535  0.18854  1.0000
  Fe  Fe56      1.0  0.25350  0.60329  0.29877  1.0000
  S   S129      1.0  0.28011  0.61054  0.28072  1.0000
  S   S130      1.0  0.20727  0.59311  0.33173  1.0000
  H   H610      1.0  0.06921  0.51109  0.22228  1.0000
  S   S131      1.0  0.01341  0.53488  0.09612  1.0000
  H   H611      1.0  0.03482  0.67942  0.43119  1.0000
  H   H612      1.0  0.21595  0.54824  0.40110  1.0000
  C   C505      1.0  0.03696  0.61019  0.22985  1.0000
  H   H613      1.0  0.27934  0.58196  0.15024  1.0000
  Fe  Fe57      1.0  0.99393  0.70119  0.38192  1.0000
  C   C506      1.0  0.15920  0.57933  0.16459  1.0000
  H   H614      1.0  0.31919  0.49754  0.05502  1.0000
  H   H615      1.0  0.18855  0.52416  0.21705  1.0000
  H   H616      1.0  0.13296  0.65942  0.30349  1.0000
  C   C507      1.0  0.18576  0.55112  0.14893  1.0000
  C   C508      1.0  0.22900  0.51294  0.06420  1.0000
  H   H617      1.0  0.19228  0.51128  0.09178  1.0000
  C   C509      1.0  0.21965  0.56148  0.39965  1.0000
  H   H618      1.0  0.20225  0.72706  0.33344  1.0000
  Fe  Fe58      1.0  0.23645  0.57539  0.33070  1.0000
  C   C510      1.0  0.29168  0.59351  0.26754  1.0000
  H   H619      1.0  0.19294  0.56767  0.29360  1.0000
  H   H620      1.0  0.18435  0.54419  0.24654  1.0000
  Fe  Fe59      1.0  0.26575  0.54940  0.10844  1.0000
  C   C511      1.0  0.00326  0.52364  0.08510  1.0000
  C   C512      1.0  0.24048  0.55848  0.18854  1.0000
  Fe  Fe60      1.0  0.21474  0.59840  0.30010  1.0000
  H   H621      1.0  0.22196  0.56743  0.21253  1.0000
  H   H622      1.0  0.23156  0.53371  0.16171  1.0000
  H   H623      1.0  0.16811  0.53882  0.22788  1.0000
  C   C513      1.0  0.16019  0.59085  0.25835  1.0000
  S   S132      1.0  0.09621  0.57408  0.25206  1.0000
  C   C514      1.0  0.18388  0.57416  0.28375  1.0000
  C   C515      1.0  0.22366  0.55971  0.20184  1.0000
  C   C516      1.0  0.19672  0.54645  0.23511  1.0000
  C   C517      1.0  0.05414  0.52282  0.19992  1.0000
  C   C518      1.0  0.23319  0.70116  0.24844  1.0000
  H   H624      1.0  0.31010  0.72080  0.23582  1.0000
  H   H625      1.0  0.20745  0.53322  0.23661  1.0000
  S   S133      1.0  0.25030  0.52982  0.10389  1.0000
  H   H626      1.0  0.20236  0.53548  0.18433  1.0000
  H   H627      1.0  0.16742  0.57204  0.22439  1.0000
  S   S134      1.0  0.09444  0.59179  0.20742  1.0000
  C   C519      1.0  0.20941  0.55096  0.20148  1.0000
  H   H628      1.0  0.17486  0.59836  0.14424  1.0000
  C   C520      1.0  0.17263  0.56389  0.28027  1.0000
  C   C521      1.0  0.17380  0.58391  0.14976  1.0000
  C   C522      1.0  0.28122  0.72177  0.27845  1.0000
  Fe  Fe61      1.0  0.12560  0.58685  0.20229  1.0000
  C   C523      1.0  0.22941  0.54086  0.17306  1.0000
  N   N37       1.0  0.04242  0.71991  0.29442  1.0000
  C   C524      1.0  0.29098  0.56931  0.25240  1.0000
  H   H629      1.0  0.27576  0.70963  0.17940  1.0000
  S   S135      1.0  0.26251  0.56964  0.08114  1.0000
  Fe  Fe62      1.0  0.12736  0.57111  0.24328  1.0000
  C   C525      1.0  0.28164  0.58309  0.26276  1.0000
  C   C526      1.0  0.29934  0.65565  0.26530  1.0000
  H   H630      1.0  0.17312  0.54946  0.28749  1.0000
  S   S136      1.0  0.21810  0.56746  0.09328  1.0000
  H   H631      1.0  0.26663  0.58606  0.26645  1.0000
  C   C527      1.0  0.29132  0.65754  0.21391  1.0000
  H   H632      1.0  0.26283  0.51435  0.37246  1.0000
  C   C528      1.0  0.06543  0.52336  0.21175  1.0000
  N   N38       1.0  0.30547  0.54190  0.31362  1.0000
  H   H633      1.0  0.02169  0.52010  0.03470  1.0000
  C   C529      1.0  0.17086  0.54654  0.16340  1.0000
  Fe  Fe63      1.0  0.09819  0.56333  0.22627  1.0000
  H   H634      1.0  0.28321  0.56116  0.24880  1.0000
  C   C530      1.0  0.25834  0.54444  0.36564  1.0000
  C   C531      1.0  0.01262  0.73212  0.42683  1.0000
  C   C532      1.0  0.18334  0.59279  0.27445  1.0000
  Fe  Fe64      1.0  0.27035  0.72132  0.11571  1.0000
  S   S137      1.0  0.08417  0.54010  0.22683  1.0000
  H   H635      1.0  0.18113  0.56021  0.06527  1.0000
  S   S138      1.0  0.14728  0.55866  0.26315  1.0000
  C   C533      1.0  0.21259  0.54191  0.18632  1.0000
  S   S139      1.0  0.24254  0.57844  0.29940  1.0000
  C   C534      1.0  0.29751  0.69360  0.26515  1.0000
  H   H636      1.0  0.30968  0.62199  0.22192  1.0000
  H   H637      1.0  0.99941  0.72870  0.40627  1.0000
  C   C535      1.0  0.30492  0.69673  0.17728  1.0000
  C   C536      1.0  0.11439  0.56248  0.16318  1.0000
  C   C537      1.0  0.18338  0.72565  0.20659  1.0000
  C   C538      1.0  0.04878  0.69943  0.29603  1.0000
  C   C539      1.0  0.30293  0.57054  0.11722  1.0000
  C   C540      1.0  0.07451  0.67192  0.29413  1.0000
  C   C541      1.0  0.31198  0.68363  0.25296  1.0000
  H   H638      1.0  0.08938  0.66597  0.29159  1.0000
  Fe  Fe65      1.0  0.31239  0.51477  0.42122  1.0000
  C   C542      1.0  0.18898  0.72861  0.26312  1.0000
  H   H639      1.0  0.28613  0.64855  0.18409  1.0000
  C   C543      1.0  0.10603  0.53386  0.15092  1.0000
  H   H640      1.0  0.07937  0.50353  0.15225  1.0000
  C   C544      1.0  0.04773  0.57751  0.24127  1.0000
  C   C545      1.0  0.26391  0.59291  0.21463  1.0000
  C   C546      1.0  0.04274  0.66792  0.30177  1.0000
  H   H641      1.0  0.10236  0.52944  0.00561  1.0000
  H   H642      1.0  0.28462  0.56520  0.30343  1.0000
  H   H643      1.0  0.11956  0.52672  0.06525  1.0000
  C   C547      1.0  0.24949  0.60651  0.20796  1.0000
  H   H644      1.0  0.30194  0.52048  0.02319  1.0000
  C   C548      1.0  0.99650  0.53359  0.06901  1.0000
  C   C549      1.0  0.06184  0.66034  0.29828  1.0000
  C   C550      1.0  0.31484  0.54097  0.29387  1.0000
  H   H645      1.0  0.26334  0.58849  0.22958  1.0000
  C   C551      1.0  0.31459  0.71341  0.27107  1.0000
  S   S140      1.0  0.31187  0.49365  0.44873  1.0000
  H   H646      1.0  0.05587  0.57596  0.22700  1.0000
  H   H647      1.0  0.11734  0.57350  0.16792  1.0000
  H   H648      1.0  0.04778  0.72563  0.26427  1.0000
  N   N39       1.0  0.20908  0.72859  0.25983  1.0000
  C   C552      1.0  0.02189  0.72650  0.29643  1.0000
  H   H649      1.0  0.11342  0.48999  0.14286  1.0000
  C   C553      1.0  0.08989  0.50156  0.07133  1.0000
  C   C554      1.0  0.29734  0.72501  0.24630  1.0000
  H   H650      1.0  0.04959  0.51737  0.04701  1.0000
  H   H651      1.0  0.01099  0.55851  0.20841  1.0000
  Fe  Fe66      1.0  0.17157  0.49841  0.98812  1.0000
  H   H652      1.0  0.01425  0.72079  0.31065  1.0000
  C   C555      1.0  0.99999  0.60203  0.23036  1.0000
  C   C556      1.0  0.29466  0.52206  0.03770  1.0000
  H   H653      1.0  0.11496  0.57820  0.13507  1.0000
  H   H654      1.0  0.05038  0.70409  0.38603  1.0000
  H   H655      1.0  0.06666  0.72700  0.27357  1.0000
  C   C557      1.0  0.00786  0.57060  0.21473  1.0000
  H   H656      1.0  0.10547  0.51911  0.18005  1.0000
  C   C558      1.0  0.01725  0.58915  0.23151  1.0000
  H   H657      1.0  0.01009  0.60705  0.26076  1.0000
  H   H658      1.0  0.28446  0.52906  0.33462  1.0000
  C   C559      1.0  0.20844  0.72140  0.17921  1.0000
  C   C560      1.0  0.29395  0.56108  0.31362  1.0000
  Fe  Fe67      1.0  0.14890  0.72698  0.24641  1.0000
  H   H659      1.0  0.06325  0.72187  0.30815  1.0000
  H   H660      1.0  0.30287  0.57161  0.30975  1.0000
  Fe  Fe68      1.0  0.99220  0.73164  0.34719  1.0000
  S   S141      1.0  0.11455  0.50064  0.03798  1.0000
  H   H661      1.0  0.31227  0.65212  0.14083  1.0000
  H   H662      1.0  0.28136  0.53261  0.03708  1.0000
  H   H663      1.0  0.99633  0.61451  0.23600  1.0000
  C   C561      1.0  0.31287  0.66492  0.25316  1.0000
  H   H664      1.0  0.09405  0.49334  0.98631  1.0000
  C   C562      1.0  0.27203  0.50357  0.02711  1.0000
  C   C563      1.0  0.19019  0.73005  0.32730  1.0000
  H   H665      1.0  0.28517  0.72451  0.24103  1.0000
  C   C564      1.0  0.31188  0.54518  0.14236  1.0000
  H   H666      1.0  0.04237  0.48288  0.05409  1.0000
  H   H667      1.0  0.06046  0.71512  0.40815  1.0000
  C   C565      1.0  0.31104  0.59067  0.26131  1.0000
  H   H668      1.0  0.30028  0.64104  0.26570  1.0000
  Fe  Fe69      1.0  0.14436  0.48955  0.02468  1.0000
  C   C566      1.0  0.31182  0.53873  0.34542  1.0000
  H   H669      1.0  0.30457  0.54456  0.28468  1.0000
  H   H670      1.0  0.11126  0.53685  0.98152  1.0000
  C   C567      1.0  0.31032  0.56651  0.24611  1.0000
  H   H671      1.0  0.20623  0.70180  0.29242  1.0000
  N   N40       1.0  0.08866  0.52239  0.98734  1.0000
  S   S142      1.0  0.98791  0.67806  0.32491  1.0000
  Fe  Fe70      1.0  0.01961  0.48384  0.15291  1.0000
  H   H672      1.0  0.11458  0.50310  0.97995  1.0000
  H   H673      1.0  0.07195  0.52744  0.15488  1.0000
  C   C568      1.0  0.30732  0.72645  0.19125  1.0000
  Fe  Fe71      1.0  0.05855  0.49023  0.13445  1.0000
  H   H674      1.0  0.21904  0.72680  0.16796  1.0000
  C   C569      1.0  0.04791  0.72553  0.30921  1.0000
  C   C570      1.0  0.09805  0.53501  0.99190  1.0000
  C   C571      1.0  0.05481  0.71736  0.38171  1.0000
  H   H675      1.0  0.18329  0.72202  0.27773  1.0000
  H   H676      1.0  0.08880  0.54907  0.99220  1.0000
  H   H677      1.0  0.31463  0.72765  0.27236  1.0000
  H   H678      1.0  0.14382  0.72972  0.35676  1.0000
  H   H679      1.0  0.06366  0.72949  0.42852  1.0000
  H   H680      1.0  0.25486  0.50180  0.00930  1.0000
  C   C572      1.0  0.26090  0.49493  0.02149  1.0000
  C   C573      1.0  0.30976  0.49116  0.05075  1.0000
  S   S143      1.0  0.20318  0.48341  0.04491  1.0000
  H   H681      1.0  0.28082  0.49427  0.07967  1.0000
  S   S144      1.0  0.03593  0.48574  0.12335  1.0000
  H   H682      1.0  0.31817  0.53555  0.37239  1.0000
  H   H683      1.0  0.04907  0.72306  0.35420  1.0000
  C   C574      1.0  0.06063  0.72394  0.39438  1.0000
  C   C575      1.0  0.31864  0.53748  0.32632  1.0000
  C   C576      1.0  0.05402  0.72804  0.36379  1.0000
  C   C577      1.0  0.09621  0.48361  0.10146  1.0000
  H   H684      1.0  0.31676  0.48764  0.03682  1.0000
  C   C578      1.0  0.99103  0.58347  0.21398  1.0000
  C   C579      1.0  0.32033  0.57725  0.25048  1.0000
  Fe  Fe72      1.0  0.18567  0.48362  0.02437  1.0000
  H   H685      1.0  0.99099  0.48238  0.08955  1.0000
  Fe  Fe73      1.0  0.08192  0.51570  0.87727  1.0000
  S   S145      1.0  0.11286  0.51260  0.86958  1.0000
  S   S146      1.0  0.06977  0.50842  0.85666  1.0000
  Fe  Fe74      1.0  0.07821  0.53758  0.90690  1.0000
  S   S147      1.0  0.10901  0.53741  0.90017  1.0000
  S   S148      1.0  0.06095  0.54965  0.93197  1.0000
  Fe  Fe75      1.0  0.10736  0.54297  0.87005  1.0000
  S   S149      1.0  0.12407  0.55757  0.84345  1.0000
  Fe  Fe76      1.0  0.11186  0.50727  0.90026  1.0000
  H   H686      1.0  0.31723  0.67103  0.55300  1.0000
  S   S150      1.0  0.07620  0.54649  0.87650  1.0000
  S   S151      1.0  0.08132  0.50697  0.90825  1.0000
  C   C580      1.0  0.24619  0.70110  0.76320  1.0000
  C   C581      1.0  0.16030  0.51097  0.84928  1.0000
  C   C582      1.0  0.27333  0.63260  0.69478  1.0000
  C   C583      1.0  0.15816  0.71618  0.63266  1.0000
  H   H687      1.0  0.27036  0.57290  0.83706  1.0000
  C   C584      1.0  0.30548  0.61888  0.74079  1.0000
  H   H688      1.0  0.25359  0.61948  0.82401  1.0000
  S   S152      1.0  0.08679  0.68663  0.51936  1.0000
  H   H689      1.0  0.30088  0.55220  0.82789  1.0000
  C   C585      1.0  0.25570  0.56049  0.82440  1.0000
  H   H690      1.0  0.25577  0.64091  0.61275  1.0000
  C   C586      1.0  0.23366  0.66381  0.60484  1.0000
  H   H691      1.0  0.29754  0.69005  0.77719  1.0000
  H   H692      1.0  0.25274  0.53612  0.78420  1.0000
  C   C587      1.0  0.27482  0.71362  0.75375  1.0000
  Fe  Fe77      1.0  0.16083  0.67603  0.57633  1.0000
  S   S153      1.0  0.13671  0.67322  0.60077  1.0000
  S   S154      1.0  0.15728  0.69050  0.54692  1.0000
  Fe  Fe78      1.0  0.18988  0.66062  0.60133  1.0000
  S   S155      1.0  0.16788  0.65712  0.62764  1.0000
  S   S156      1.0  0.21953  0.64873  0.60496  1.0000
  Fe  Fe79      1.0  0.15468  0.64552  0.61134  1.0000
  S   S157      1.0  0.14743  0.61709  0.62172  1.0000
  Fe  Fe80      1.0  0.15249  0.68508  0.61444  1.0000
  S   S158      1.0  0.17756  0.64734  0.58559  1.0000
  S   S159      1.0  0.17567  0.68953  0.58934  1.0000
  Fe  Fe81      1.0  0.20225  0.64107  0.76949  1.0000
  S   S160      1.0  0.20134  0.64896  0.79637  1.0000
  S   S161      1.0  0.19025  0.65856  0.74453  1.0000
  Fe  Fe82      1.0  0.22566  0.60221  0.78075  1.0000
  S   S162      1.0  0.22716  0.60687  0.80823  1.0000
  S   S163      1.0  0.23944  0.57557  0.77083  1.0000
  Fe  Fe83      1.0  0.19658  0.61985  0.81028  1.0000
  S   S164      1.0  0.17592  0.61296  0.83758  1.0000
  Fe  Fe84      1.0  0.23183  0.63520  0.79186  1.0000
  S   S165      1.0  0.25474  0.64950  0.79056  1.0000
  S   S166      1.0  0.19495  0.61323  0.78368  1.0000
  S   S167      1.0  0.23296  0.62925  0.76406  1.0000
  Fe  Fe85      1.0  0.16431  0.51154  0.72817  1.0000
  S   S168      1.0  0.14679  0.53376  0.74387  1.0000
  C   C588      1.0  0.27768  0.72393  0.66744  1.0000
  Fe  Fe86      1.0  0.19756  0.53093  0.71372  1.0000
  S   S169      1.0  0.18234  0.55452  0.72803  1.0000
  S   S170      1.0  0.22633  0.53445  0.69695  1.0000
  Fe  Fe87      1.0  0.17324  0.53254  0.75239  1.0000
  S   S171      1.0  0.17430  0.53435  0.78121  1.0000
  Fe  Fe88      1.0  0.15758  0.55380  0.71786  1.0000
  S   S172      1.0  0.14107  0.58276  0.70857  1.0000
  S   S173      1.0  0.19009  0.50876  0.73897  1.0000
  S   S174      1.0  0.17337  0.53174  0.70132  1.0000
  C   C589      1.0  0.22239  0.56256  0.77450  1.0000
  C   C590      1.0  0.22297  0.55221  0.76147  1.0000
  C   C591      1.0  0.20850  0.54296  0.76382  1.0000
  C   C592      1.0  0.19376  0.54358  0.77948  1.0000
  C   C593      1.0  0.19390  0.55293  0.79308  1.0000
  C   C594      1.0  0.20798  0.56272  0.79042  1.0000
  H   H693      1.0  0.23424  0.55183  0.74921  1.0000
  H   H694      1.0  0.20869  0.53551  0.75339  1.0000
  H   H695      1.0  0.18280  0.55318  0.80534  1.0000
  H   H696      1.0  0.20758  0.57060  0.80057  1.0000
  C   C595      1.0  0.31600  0.63453  0.76490  1.0000
  C   C596      1.0  0.20176  0.53948  0.84206  1.0000
  C   C597      1.0  0.18929  0.68271  0.74029  1.0000
  C   C598      1.0  0.18765  0.69375  0.72250  1.0000
  H   H697      1.0  0.18692  0.68735  0.71159  1.0000
  C   C599      1.0  0.14635  0.60768  0.64580  1.0000
  C   C600      1.0  0.15082  0.58824  0.65213  1.0000
  C   C601      1.0  0.14961  0.58044  0.67135  1.0000
  C   C602      1.0  0.14337  0.59204  0.68435  1.0000
  C   C603      1.0  0.13888  0.61149  0.67801  1.0000
  C   C604      1.0  0.14066  0.61931  0.65875  1.0000
  H   H698      1.0  0.15516  0.57917  0.64217  1.0000
  H   H699      1.0  0.15298  0.56543  0.67613  1.0000
  H   H700      1.0  0.13400  0.62053  0.68801  1.0000
  H   H701      1.0  0.13705  0.63431  0.65399  1.0000
  H   H702      1.0  0.17819  0.69186  0.62528  1.0000
  C   C605      1.0  0.10584  0.68863  0.52733  1.0000
  C   C606      1.0  0.10830  0.67937  0.54546  1.0000
  C   C607      1.0  0.00980  0.54591  0.96519  1.0000
  C   C608      1.0  0.13711  0.69009  0.53987  1.0000
  C   C609      1.0  0.13454  0.69956  0.52184  1.0000
  C   C610      1.0  0.11896  0.69884  0.51559  1.0000
  H   H703      1.0  0.10107  0.53114  0.95802  1.0000
  C   C611      1.0  0.16095  0.48422  0.93114  1.0000
  H   H704      1.0  0.14479  0.70718  0.51253  1.0000
  H   H705      1.0  0.11744  0.70568  0.50144  1.0000
  C   C612      1.0  0.27782  0.59757  0.78454  1.0000
  C   C613      1.0  0.24916  0.58331  0.67839  1.0000
  C   C614      1.0  0.23773  0.60700  0.64646  1.0000
  H   H706      1.0  0.08280  0.51925  0.96188  1.0000
  H   H707      1.0  0.27488  0.60066  0.74915  1.0000
  H   H708      1.0  0.24914  0.51356  0.81396  1.0000
  H   H709      1.0  0.12410  0.50532  0.79449  1.0000
  C   C615      1.0  0.28573  0.58900  0.75470  1.0000
  C   C616      1.0  0.16160  0.49343  0.86137  1.0000
  C   C617      1.0  0.20681  0.57660  0.65410  1.0000
  H   H710      1.0  0.28730  0.71043  0.63460  1.0000
  C   C618      1.0  0.11792  0.49333  0.74039  1.0000
  C   C619      1.0  0.23598  0.71844  0.75590  1.0000
  H   H711      1.0  0.26794  0.61105  0.78086  1.0000
  C   C620      1.0  0.09907  0.71707  0.57617  1.0000
  C   C621      1.0  0.08740  0.52922  0.96729  1.0000
  S   S175      1.0  0.30125  0.66751  0.63816  1.0000
  C   C622      1.0  0.27147  0.56244  0.82918  1.0000
  H   H712      1.0  0.21434  0.68948  0.59699  1.0000
  H   H713      1.0  0.16837  0.52632  0.82135  1.0000
  C   C623      1.0  0.13858  0.57244  0.84284  1.0000
  C   C624      1.0  0.13612  0.58168  0.85732  1.0000
  C   C625      1.0  0.14746  0.59434  0.85546  1.0000
  C   C626      1.0  0.16145  0.59754  0.83929  1.0000
  C   C627      1.0  0.16392  0.58808  0.82499  1.0000
  C   C628      1.0  0.15243  0.57573  0.82673  1.0000
  H   H714      1.0  0.12512  0.57957  0.86962  1.0000
  H   H715      1.0  0.14519  0.60193  0.86640  1.0000
  H   H716      1.0  0.17459  0.59031  0.81252  1.0000
  H   H717      1.0  0.15396  0.56897  0.81535  1.0000
  C   C629      1.0  0.32076  0.61819  0.66570  1.0000
  H   H718      1.0  0.06832  0.54055  0.80018  1.0000
  H   H719      1.0  0.18624  0.72140  0.70488  1.0000
  C   C630      1.0  0.10264  0.49469  0.79061  1.0000
  H   H720      1.0  0.26446  0.61480  0.64004  1.0000
  H   H721      1.0  0.30230  0.56515  0.78071  1.0000
  H   H722      1.0  0.07753  0.54302  0.96507  1.0000
  C   C631      1.0  0.01255  0.53325  0.93814  1.0000
  C   C632      1.0  0.16960  0.51267  0.83063  1.0000
  H   H723      1.0  0.22114  0.72035  0.75680  1.0000
  H   H724      1.0  0.06593  0.49261  0.82831  1.0000
  C   C633      1.0  0.03837  0.54486  0.94087  1.0000
  C   C634      1.0  0.20245  0.60887  0.63843  1.0000
  H   H725      1.0  0.03866  0.53293  0.91792  1.0000
  H   H726      1.0  0.24447  0.54630  0.81067  1.0000
  H   H727      1.0  0.19272  0.61446  0.67423  1.0000
  H   H728      1.0  0.08776  0.49969  0.74741  1.0000
  C   C635      1.0  0.03072  0.53653  0.93110  1.0000
  H   H729      1.0  0.19089  0.68276  0.76826  1.0000
  N   N41       1.0  0.23781  0.68245  0.66985  1.0000
  C   C636      1.0  0.22262  0.67715  0.66480  1.0000
  C   C637      1.0  0.22906  0.69629  0.68202  1.0000
  C   C638      1.0  0.24904  0.69195  0.65254  1.0000
  C   C639      1.0  0.24980  0.66543  0.67875  1.0000
  C   C640      1.0  0.25175  0.66213  0.69763  1.0000
  C   C641      1.0  0.25980  0.65135  0.66849  1.0000
  C   C642      1.0  0.27146  0.63532  0.67639  1.0000
  H   H730      1.0  0.21459  0.66885  0.67722  1.0000
  H   H731      1.0  0.21259  0.68970  0.65924  1.0000
  H   H732      1.0  0.22797  0.66879  0.65367  1.0000
  H   H733      1.0  0.21970  0.69040  0.69496  1.0000
  H   H734      1.0  0.22024  0.70893  0.67484  1.0000
  H   H735      1.0  0.23973  0.70125  0.68596  1.0000
  H   H736      1.0  0.25502  0.68311  0.64196  1.0000
  H   H737      1.0  0.24053  0.70484  0.64538  1.0000
  H   H738      1.0  0.26084  0.69583  0.65557  1.0000
  H   H739      1.0  0.24434  0.67178  0.70672  1.0000
  H   H740      1.0  0.25877  0.65265  0.65419  1.0000
  H   H741      1.0  0.27916  0.62500  0.66808  1.0000
  N   N42       1.0  0.10375  0.54015  0.80302  1.0000
  C   C643      1.0  0.12404  0.53567  0.80293  1.0000
  C   C644      1.0  0.09988  0.55802  0.78937  1.0000
  C   C645      1.0  0.09354  0.54287  0.82208  1.0000
  C   C646      1.0  0.09736  0.52549  0.79822  1.0000
  C   C647      1.0  0.28435  0.70447  0.67380  1.0000
  C   C648      1.0  0.30178  0.61093  0.76033  1.0000
  C   C649      1.0  0.18874  0.72680  0.63794  1.0000
  H   H742      1.0  0.25370  0.50174  0.75182  1.0000
  C   C650      1.0  0.14248  0.51685  0.94431  1.0000
  H   H743      1.0  0.13270  0.53390  0.78886  1.0000
  H   H744      1.0  0.12834  0.54697  0.80663  1.0000
  H   H745      1.0  0.12788  0.52284  0.81349  1.0000
  H   H746      1.0  0.27901  0.57677  0.76122  1.0000
  C   C651      1.0  0.10020  0.48870  0.74719  1.0000
  H   H747      1.0  0.08469  0.56359  0.79006  1.0000
  H   H748      1.0  0.15197  0.52337  0.85437  1.0000
  H   H749      1.0  0.09734  0.55429  0.82601  1.0000
  H   H750      1.0  0.07814  0.54652  0.82355  1.0000
  S   S176      1.0  0.31000  0.61512  0.84643  1.0000
  H   H751      1.0  0.30206  0.61336  0.73064  1.0000
  H   H752      1.0  0.29797  0.72905  0.62025  1.0000
  H   H753      1.0  0.18863  0.71694  0.76203  1.0000
  C   C652      1.0  0.13488  0.72935  0.68596  1.0000
  H   H754      1.0  0.15306  0.71391  0.70476  1.0000
  H   H755      1.0  0.13534  0.52947  0.94942  1.0000
  H   H756      1.0  0.27537  0.54010  0.77157  1.0000
  H   H757      1.0  0.31909  0.69190  0.76103  1.0000
  C   C653      1.0  0.31365  0.58865  0.66650  1.0000
  H   H758      1.0  0.30557  0.61369  0.78708  1.0000
  C   C654      1.0  0.26417  0.50696  0.81024  1.0000
  H   H759      1.0  0.19319  0.59014  0.68497  1.0000
  H   H760      1.0  0.16223  0.72878  0.59258  1.0000
  C   C655      1.0  0.13400  0.50952  0.93429  1.0000
  C   C656      1.0  0.16928  0.49129  0.94152  1.0000
  S   S177      1.0  0.13380  0.48515  0.91310  1.0000
  C   C657      1.0  0.23177  0.58383  0.67507  1.0000
  N   N43       1.0  0.29339  0.59424  0.76830  1.0000
  H   H761      1.0  0.26460  0.64361  0.71988  1.0000
  C   C658      1.0  0.24144  0.51652  0.72802  1.0000
  H   H762      1.0  0.23922  0.68950  0.76991  1.0000
  C   C659      1.0  0.30750  0.61916  0.77213  1.0000
  C   C660      1.0  0.25594  0.51040  0.73790  1.0000
  H   H763      1.0  0.20504  0.70164  0.62901  1.0000
  C   C661      1.0  0.29468  0.51006  0.79214  1.0000
  C   C662      1.0  0.25120  0.65594  0.60933  1.0000
  C   C663      1.0  0.25751  0.68684  0.60442  1.0000
  C   C664      1.0  0.02785  0.54958  0.95791  1.0000
  C   C665      1.0  0.27442  0.53509  0.80848  1.0000
  H   H764      1.0  0.09665  0.52991  0.83281  1.0000
  C   C666      1.0  0.18040  0.49686  0.82400  1.0000
  C   C667      1.0  0.26301  0.66737  0.60925  1.0000
  C   C668      1.0  0.07186  0.51438  0.79311  1.0000
  H   H765      1.0  0.27448  0.59369  0.66820  1.0000
  H   H766      1.0  0.03361  0.55625  0.96542  1.0000
  C   C669      1.0  0.26171  0.53209  0.70164  1.0000
  N   N44       1.0  0.12596  0.62088  0.57537  1.0000
  C   C670      1.0  0.14053  0.60500  0.58213  1.0000
  C   C671      1.0  0.12087  0.63454  0.58768  1.0000
  C   C672      1.0  0.10916  0.61338  0.57746  1.0000
  C   C673      1.0  0.13313  0.63019  0.55589  1.0000
  C   C674      1.0  0.15005  0.63661  0.55129  1.0000
  C   C675      1.0  0.12321  0.63412  0.54128  1.0000
  C   C676      1.0  0.15665  0.64628  0.53327  1.0000
  C   C677      1.0  0.12991  0.64388  0.52331  1.0000
  C   C678      1.0  0.14655  0.64998  0.51933  1.0000
  H   H767      1.0  0.15278  0.60962  0.58341  1.0000
  H   H768      1.0  0.13526  0.59725  0.59649  1.0000
  H   H769      1.0  0.14564  0.59495  0.57258  1.0000
  H   H770      1.0  0.13310  0.63994  0.58773  1.0000
  H   H771      1.0  0.11544  0.62815  0.60255  1.0000
  H   H772      1.0  0.11001  0.64675  0.58310  1.0000
  H   H773      1.0  0.11195  0.60327  0.56822  1.0000
  H   H774      1.0  0.10456  0.60588  0.59212  1.0000
  H   H775      1.0  0.09703  0.62477  0.57423  1.0000
  H   H776      1.0  0.15799  0.63485  0.56178  1.0000
  H   H777      1.0  0.10993  0.63040  0.54344  1.0000
  H   H778      1.0  0.16921  0.65172  0.53035  1.0000
  H   H779      1.0  0.12169  0.64749  0.51262  1.0000
  H   H780      1.0  0.15128  0.65818  0.50560  1.0000
  C   C679      1.0  0.30788  0.57813  0.77472  1.0000
  H   H781      1.0  0.27542  0.60622  0.84593  1.0000
  C   C680      1.0  0.22552  0.59561  0.65896  1.0000
  C   C681      1.0  0.26768  0.52938  0.78104  1.0000
  C   C682      1.0  0.26532  0.69862  0.76221  1.0000
  H   H782      1.0  0.20860  0.56593  0.66716  1.0000
  C   C683      1.0  0.30402  0.69290  0.76196  1.0000
  H   H783      1.0  0.26836  0.51891  0.77289  1.0000
  H   H784      1.0  0.13721  0.49270  0.83479  1.0000
  H   H785      1.0  0.12011  0.51616  0.93218  1.0000
  H   H786      1.0  0.25365  0.57400  0.69071  1.0000
  H   H787      1.0  0.20188  0.62357  0.63894  1.0000
  H   H788      1.0  0.15398  0.49287  0.87568  1.0000
  H   H789      1.0  0.13740  0.71804  0.67872  1.0000
  C   C684      1.0  0.26750  0.70600  0.70559  1.0000
  H   H790      1.0  0.26502  0.49556  0.80307  1.0000
  C   C685      1.0  0.29777  0.63942  0.81614  1.0000
  Fe  Fe89      1.0  0.07642  0.71199  0.49827  1.0000
  C   C686      1.0  0.08392  0.49764  0.79002  1.0000
  H   H791      1.0  0.28962  0.52984  0.70523  1.0000
  C   C687      1.0  0.26088  0.59441  0.66576  1.0000
  H   H792      1.0  0.13315  0.72850  0.54806  1.0000
  H   H793      1.0  0.18288  0.48412  0.94442  1.0000
  Fe  Fe90      1.0  0.30047  0.68362  0.60899  1.0000
  H   H794      1.0  0.29683  0.58467  0.74280  1.0000
  N   N45       1.0  0.16593  0.60550  0.74870  1.0000
  C   C688      1.0  0.15503  0.60276  0.73638  1.0000
  C   C689      1.0  0.17645  0.62024  0.73780  1.0000
  C   C690      1.0  0.17978  0.58801  0.75325  1.0000
  C   C691      1.0  0.15329  0.60999  0.76627  1.0000
  C   C692      1.0  0.14208  0.59733  0.77803  1.0000
  C   C693      1.0  0.15209  0.62647  0.77254  1.0000
  C   C694      1.0  0.13046  0.60094  0.79498  1.0000
  C   C695      1.0  0.14070  0.62973  0.78970  1.0000
  C   C696      1.0  0.12994  0.61700  0.80090  1.0000
  H   H795      1.0  0.14386  0.61529  0.73330  1.0000
  H   H796      1.0  0.16399  0.59998  0.72273  1.0000
  H   H797      1.0  0.14822  0.59060  0.74261  1.0000
  H   H798      1.0  0.18548  0.61665  0.72449  1.0000
  H   H799      1.0  0.18598  0.62211  0.74576  1.0000
  H   H800      1.0  0.16694  0.63393  0.73397  1.0000
  H   H801      1.0  0.17318  0.57572  0.75951  1.0000
  H   H802      1.0  0.19043  0.58467  0.74064  1.0000
  H   H803      1.0  0.18742  0.58906  0.76346  1.0000
  H   H804      1.0  0.14259  0.58432  0.77439  1.0000
  H   H805      1.0  0.16020  0.63686  0.76472  1.0000
  H   H806      1.0  0.12239  0.59088  0.80402  1.0000
  H   H807      1.0  0.14052  0.64206  0.79452  1.0000
  H   H808      1.0  0.12151  0.61937  0.81441  1.0000
  N   N46       1.0  0.17374  0.55116  0.89669  1.0000
  C   C697      1.0  0.18416  0.53889  0.91103  1.0000
  C   C698      1.0  0.17167  0.57079  0.89821  1.0000
  C   C699      1.0  0.15475  0.54723  0.90119  1.0000
  C   C700      1.0  0.18358  0.54740  0.87793  1.0000
  C   C701      1.0  0.18690  0.52919  0.87439  1.0000
  C   C702      1.0  0.18994  0.56143  0.86273  1.0000
  C   C703      1.0  0.19592  0.52533  0.85671  1.0000
  H   H809      1.0  0.19892  0.54045  0.90748  1.0000
  H   H810      1.0  0.17784  0.54222  0.92514  1.0000
  H   H811      1.0  0.18424  0.52385  0.91275  1.0000
  H   H812      1.0  0.18549  0.57459  0.89539  1.0000
  H   H813      1.0  0.16431  0.57312  0.91250  1.0000
  H   H814      1.0  0.15503  0.53228  0.90221  1.0000
  H   H815      1.0  0.14661  0.55056  0.91492  1.0000
  H   H816      1.0  0.14676  0.55562  0.89027  1.0000
  H   H817      1.0  0.18237  0.51784  0.88528  1.0000
  H   H818      1.0  0.18793  0.57576  0.86390  1.0000
  H   H819      1.0  0.19816  0.51136  0.85430  1.0000
  C   C704      1.0  0.28532  0.64708  0.80401  1.0000
  S   S178      1.0  0.13948  0.70953  0.62846  1.0000
  C   C705      1.0  0.17600  0.70489  0.62950  1.0000
  H   H820      1.0  0.16330  0.58082  0.88834  1.0000
  H   H821      1.0  0.28479  0.68091  0.69708  1.0000
  C   C706      1.0  0.26339  0.64592  0.70544  1.0000
  H   H822      1.0  0.22821  0.51250  0.73435  1.0000
  H   H823      1.0  0.29051  0.72502  0.77524  1.0000
  H   H824      1.0  0.21275  0.60551  0.62562  1.0000
  C   C707      1.0  0.27934  0.69573  0.69261  1.0000
  H   H825      1.0  0.08644  0.71553  0.55438  1.0000
  H   H826      1.0  0.30329  0.68144  0.75573  1.0000
  H   H827      1.0  0.31348  0.72392  0.76043  1.0000
  C   C708      1.0  0.31654  0.63059  0.54185  1.0000
  C   C709      1.0  0.26593  0.62498  0.82173  1.0000
  C   C710      1.0  0.24427  0.52726  0.70980  1.0000
  C   C711      1.0  0.19883  0.55745  0.84510  1.0000
  H   H828      1.0  0.28244  0.62008  0.70077  1.0000
  C   C712      1.0  0.22790  0.68328  0.60040  1.0000
  H   H829      1.0  0.30997  0.64514  0.81393  1.0000
  S   S179      1.0  0.17091  0.51733  0.95990  1.0000
  C   C713      1.0  0.18991  0.69109  0.75444  1.0000
  C   C714      1.0  0.26948  0.63981  0.80665  1.0000
  H   H830      1.0  0.20308  0.56860  0.83369  1.0000
  H   H831      1.0  0.30406  0.51955  0.78345  1.0000
  H   H832      1.0  0.27220  0.68482  0.76835  1.0000
  C   C715      1.0  0.30461  0.71423  0.73214  1.0000
  H   H833      1.0  0.28807  0.65857  0.79244  1.0000
  C   C716      1.0  0.18721  0.71301  0.71871  1.0000
  H   H834      1.0  0.23532  0.70983  0.59680  1.0000
  C   C717      1.0  0.23981  0.69479  0.60023  1.0000
  H   H835      1.0  0.15511  0.72569  0.56402  1.0000
  H   H836      1.0  0.26411  0.54014  0.68744  1.0000
  Fe  Fe91      1.0  0.31747  0.64376  0.62443  1.0000
  H   H837      1.0  0.29359  0.69570  0.66454  1.0000
  C   C718      1.0  0.27337  0.51517  0.72978  1.0000
  Fe  Fe92      1.0  0.31731  0.51811  0.73485  1.0000
  H   H838      1.0  0.18853  0.60858  0.63640  1.0000
  H   H839      1.0  0.28269  0.59813  0.79695  1.0000
  H   H840      1.0  0.05727  0.51653  0.79273  1.0000
  C   C719      1.0  0.19222  0.60078  0.67177  1.0000
  H   H841      1.0  0.10648  0.55620  0.77475  1.0000
  S   S180      1.0  0.27252  0.70113  0.60427  1.0000
  C   C720      1.0  0.27825  0.61753  0.83414  1.0000
  H   H842      1.0  0.27636  0.66104  0.61300  1.0000
  H   H843      1.0  0.16583  0.72885  0.53175  1.0000
  C   C721      1.0  0.27617  0.52626  0.71168  1.0000
  H   H844      1.0  0.29511  0.50015  0.78335  1.0000
  C   C722      1.0  0.19126  0.71034  0.63182  1.0000
  H   H845      1.0  0.12583  0.67281  0.56558  1.0000
  C   C723      1.0  0.14341  0.49345  0.92728  1.0000
  H   H846      1.0  0.19331  0.57613  0.65122  1.0000
  S   S181      1.0  0.29135  0.50625  0.74252  1.0000
  H   H847      1.0  0.17814  0.60206  0.66922  1.0000
  C   C724      1.0  0.29424  0.62470  0.83130  1.0000
  C   C725      1.0  0.29019  0.53724  0.81387  1.0000
  H   H848      1.0  0.32020  0.64054  0.77427  1.0000
  H   H849      1.0  0.22337  0.57466  0.68513  1.0000
  C   C726      1.0  0.18756  0.72141  0.73298  1.0000
  C   C727      1.0  0.10943  0.50842  0.79448  1.0000
  C   C728      1.0  0.25517  0.60628  0.64988  1.0000
  N   N47       1.0  0.27541  0.52063  0.79814  1.0000
  C   C729      1.0  0.12386  0.68016  0.55173  1.0000
  S   S182      1.0  0.31458  0.65913  0.59552  1.0000
  C   C730      1.0  0.16015  0.50777  0.94788  1.0000
  H   H850      1.0  0.24230  0.56939  0.82868  1.0000
  C   C731      1.0  0.18868  0.71046  0.75087  1.0000
  N   N48       1.0  0.20713  0.59559  0.65571  1.0000
  S   S183      1.0  0.04601  0.72632  0.50191  1.0000
  H   H851      1.0  0.23424  0.61647  0.63384  1.0000
  H   H852      1.0  0.09821  0.67144  0.55456  1.0000
  H   H853      1.0  0.30196  0.70426  0.72517  1.0000
  C   C732      1.0  0.26079  0.72508  0.69980  1.0000
  C   C733      1.0  0.25711  0.54713  0.81413  1.0000
  H   H854      1.0  0.26353  0.69921  0.72015  1.0000
  C   C734      1.0  0.29454  0.72125  0.63499  1.0000
  H   H855      1.0  0.21824  0.57187  0.64259  1.0000
  H   H856      1.0  0.26966  0.58633  0.78933  1.0000
  H   H857      1.0  0.20839  0.53656  0.82828  1.0000
  H   H858      1.0  0.11907  0.50780  0.73534  1.0000
  H   H859      1.0  0.30930  0.57992  0.65994  1.0000
  C   C735      1.0  0.06839  0.48552  0.85707  1.0000
  C   C736      1.0  0.07838  0.52805  0.79733  1.0000
  C   C737      1.0  0.31042  0.64628  0.55003  1.0000
  C   C738      1.0  0.14372  0.72707  0.70060  1.0000
  H   H860      1.0  0.30390  0.52857  0.81053  1.0000
  H   H861      1.0  0.00660  0.52716  0.93029  1.0000
  C   C739      1.0  0.00203  0.53790  0.95519  1.0000
  H   H862      1.0  0.31329  0.61043  0.51772  1.0000
  H   H863      1.0  0.10535  0.56913  0.79202  1.0000
  H   H864      1.0  0.10672  0.70271  0.57758  1.0000
  H   H865      1.0  0.26917  0.50040  0.82352  1.0000
  N   N49       1.0  0.29509  0.71152  0.75221  1.0000
  C   C740      1.0  0.28865  0.55083  0.82394  1.0000
  H   H866      1.0  0.30813  0.71428  0.63913  1.0000
  H   H867      1.0  0.29681  0.64857  0.55931  1.0000
  H   H868      1.0  0.30091  0.50162  0.80429  1.0000
  C   C741      1.0  0.10077  0.72828  0.58739  1.0000
  H   H869      1.0  0.10996  0.72178  0.59711  1.0000
  C   C742      1.0  0.08763  0.72425  0.56314  1.0000
  H   H870      1.0  0.30718  0.62113  0.54507  1.0000
  H   H871      1.0  0.07869  0.48688  0.78724  1.0000
  C   C743      1.0  0.29840  0.72578  0.76048  1.0000
  S   S184      1.0  0.31575  0.54174  0.74799  1.0000
  H   H872      1.0  0.18762  0.49842  0.80939  1.0000
  S   S185      1.0  0.15666  0.48395  0.73046  1.0000
  C   C744      1.0  0.31428  0.63410  0.73368  1.0000
  H   H873      1.0  0.29982  0.72862  0.72423  1.0000
  H   H874      1.0  0.31360  0.58061  0.78575  1.0000
  S   S186      1.0  0.31104  0.61524  0.63460  1.0000
  C   C745      1.0  0.26399  0.73103  0.74628  1.0000
  H   H875      1.0  0.31735  0.63965  0.71869  1.0000
  C   C746      1.0  0.31547  0.60678  0.65708  1.0000
  C   C747      1.0  0.31787  0.58164  0.68428  1.0000
  H   H876      1.0  0.32001  0.71213  0.73039  1.0000
  C   C748      1.0  0.31948  0.64194  0.74573  1.0000
  H   H877      1.0  0.31984  0.57517  0.76290  1.0000
  H   H878      1.0  0.31659  0.56759  0.69148  1.0000
  H   H879      1.0  0.00170  0.54978  0.97820  1.0000
  Fe  Fe93      1.0  0.16591  0.80681  0.46787  1.0000
  H   H880      1.0  0.15018  0.81044  0.34469  1.0000
  H   H881      1.0  0.31134  0.79365  0.05609  1.0000
  Fe  Fe94      1.0  0.14274  0.84312  0.45064  1.0000
  S   S187      1.0  0.16469  0.85943  0.44690  1.0000
  S   S188      1.0  0.11522  0.85770  0.44230  1.0000
  Fe  Fe95      1.0  0.18477  0.83437  0.43708  1.0000
  S   S189      1.0  0.20729  0.83634  0.41078  1.0000
  S   S190      1.0  0.26885  0.74240  0.33600  1.0000
  H   H882      1.0  0.08426  0.77103  0.38320  1.0000
  S   S191      1.0  0.16254  0.81959  0.43840  1.0000
  H   H883      1.0  0.23320  0.88032  0.42079  1.0000
  H   H884      1.0  0.01767  0.74200  0.29465  1.0000
  H   H885      1.0  0.05348  0.84433  0.29240  1.0000
  H   H886      1.0  0.29335  0.74603  0.13401  1.0000
  C   C749      1.0  0.11953  0.74372  0.34530  1.0000
  H   H887      1.0  0.05551  0.79774  0.32339  1.0000
  H   H888      1.0  0.22944  0.74033  0.23703  1.0000
  S   S192      1.0  0.00556  0.75530  0.32960  1.0000
  C   C750      1.0  0.29279  0.75594  0.08224  1.0000
  H   H889      1.0  0.03604  0.82000  0.29806  1.0000
  H   H890      1.0  0.04221  0.88661  0.26645  1.0000
  Fe  Fe96      1.0  0.06498  0.82866  0.37969  1.0000
  S   S193      1.0  0.06181  0.80683  0.36652  1.0000
  S   S194      1.0  0.08646  0.81547  0.39737  1.0000
  Fe  Fe97      1.0  0.03635  0.85828  0.36048  1.0000
  S   S195      1.0  0.03119  0.83868  0.34567  1.0000
  S   S196      1.0  0.02248  0.88893  0.35601  1.0000
  Fe  Fe98      1.0  0.03134  0.81877  0.37345  1.0000
  S   S197      1.0  0.01341  0.79785  0.38702  1.0000
  Fe  Fe99      1.0  0.06227  0.82849  0.34020  1.0000
  S   S198      1.0  0.08209  0.82219  0.31363  1.0000
  S   S199      1.0  0.03418  0.83894  0.38891  1.0000
  S   S200      1.0  0.06772  0.84975  0.35270  1.0000
  H   H891      1.0  0.00631  0.74682  0.42568  1.0000
  C   C751      1.0  0.30843  0.76501  0.14823  1.0000
  C   C752      1.0  0.12474  0.75939  0.45630  1.0000
  H   H892      1.0  0.17863  0.88783  0.47243  1.0000
  H   H893      1.0  0.03684  0.91010  0.29638  1.0000
  H   H894      1.0  0.05886  0.89496  0.27351  1.0000
  C   C753      1.0  0.08258  0.80154  0.30677  1.0000
  H   H895      1.0  0.11289  0.78878  0.44988  1.0000
  C   C754      1.0  0.20794  0.86450  0.44658  1.0000
  C   C755      1.0  0.31025  0.77919  0.06151  1.0000
  H   H896      1.0  0.10976  0.80147  0.28866  1.0000
  H   H897      1.0  0.13436  0.79784  0.46385  1.0000
  H   H898      1.0  0.01492  0.75911  0.38975  1.0000
  C   C756      1.0  0.99991  0.89576  0.35110  1.0000
  N   N50       1.0  0.04008  0.88090  0.29624  1.0000
  H   H899      1.0  0.20621  0.75417  0.23878  1.0000
  H   H900      1.0  0.99740  0.92475  0.35111  1.0000
  H   H901      1.0  0.29320  0.77790  0.24853  1.0000
  C   C757      1.0  0.01260  0.79507  0.35190  1.0000
  C   C758      1.0  0.01340  0.78568  0.37036  1.0000
  C   C759      1.0  0.13718  0.75925  0.35647  1.0000
  C   C760      1.0  0.21175  0.73853  0.27311  1.0000
  H   H902      1.0  0.01238  0.80985  0.34771  1.0000
  H   H903      1.0  0.05615  0.76995  0.31146  1.0000
  C   C761      1.0  0.21828  0.79804  0.41619  1.0000
  C   C762      1.0  0.05879  0.74547  0.35851  1.0000
  H   H904      1.0  0.04662  0.74528  0.27412  1.0000
  S   S201      1.0  0.24055  0.74495  0.30859  1.0000
  C   C763      1.0  0.08367  0.76949  0.29388  1.0000
  C   C764      1.0  0.22202  0.81486  0.38393  1.0000
  H   H905      1.0  0.22056  0.82792  0.37376  1.0000
  H   H906      1.0  0.04868  0.81186  0.42561  1.0000
  C   C765      1.0  0.18073  0.74851  0.32220  1.0000
  H   H907      1.0  0.05799  0.76976  0.42011  1.0000
  H   H908      1.0  0.20464  0.85856  0.43619  1.0000
  C   C766      1.0  0.99080  0.91466  0.34902  1.0000
  H   H909      1.0  0.19956  0.85920  0.46054  1.0000
  C   C767      1.0  0.02702  0.79918  0.47141  1.0000
  H   H910      1.0  0.29668  0.73992  0.24607  1.0000
  C   C768      1.0  0.24268  0.89349  0.46659  1.0000
  H   H911      1.0  0.09243  0.76268  0.40426  1.0000
  C   C769      1.0  0.10809  0.84661  0.42845  1.0000
  C   C770      1.0  0.09391  0.85629  0.41861  1.0000
  C   C771      1.0  0.08760  0.84722  0.40819  1.0000
  C   C772      1.0  0.09531  0.82836  0.40789  1.0000
  C   C773      1.0  0.10971  0.81886  0.41737  1.0000
  C   C774      1.0  0.11603  0.82792  0.42764  1.0000
  H   H912      1.0  0.08773  0.87079  0.41914  1.0000
  H   H913      1.0  0.07649  0.85467  0.40085  1.0000
  H   H914      1.0  0.11559  0.80424  0.41726  1.0000
  H   H915      1.0  0.12657  0.82022  0.43550  1.0000
  H   H916      1.0  0.21402  0.79797  0.43102  1.0000
  H   H917      1.0  0.23201  0.83177  0.44160  1.0000
  C   C775      1.0  0.01110  0.78548  0.33904  1.0000
  C   C776      1.0  0.13549  0.78328  0.46406  1.0000
  C   C777      1.0  0.21625  0.81498  0.40315  1.0000
  H   H918      1.0  0.25349  0.86224  0.42551  1.0000
  H   H919      1.0  0.24894  0.83471  0.45280  1.0000
  S   S202      1.0  0.02858  0.73722  0.45311  1.0000
  Fe  Fe100     1.0  0.08823  0.74175  0.46559  1.0000
  H   H920      1.0  0.20285  0.87994  0.44311  1.0000
  H   H921      1.0  0.15903  0.78592  0.34904  1.0000
  S   S203      1.0  0.22598  0.73580  0.35434  1.0000
  C   C778      1.0  0.30282  0.77121  0.25780  1.0000
  C   C779      1.0  0.12535  0.77689  0.35153  1.0000
  C   C780      1.0  0.30890  0.76058  0.28910  1.0000
  H   H922      1.0  0.04235  0.75773  0.41627  1.0000
  H   H923      1.0  0.11075  0.77329  0.27749  1.0000
  H   H924      1.0  0.04498  0.87312  0.32418  1.0000
  S   S204      1.0  0.18999  0.81968  0.46570  1.0000
  S   S205      1.0  0.11118  0.75339  0.44421  1.0000
  H   H925      1.0  0.31088  0.74344  0.11351  1.0000
  C   C781      1.0  0.00947  0.86959  0.30565  1.0000
  C   C782      1.0  0.06584  0.74158  0.38939  1.0000
  H   H926      1.0  0.07566  0.80387  0.43878  1.0000
  C   C783      1.0  0.05128  0.88339  0.27678  1.0000
  H   H927      1.0  0.05582  0.83578  0.43135  1.0000
  Fe  Fe101     1.0  0.24320  0.75551  0.35505  1.0000
  N   N51       1.0  0.12889  0.79395  0.35481  1.0000
  C   C784      1.0  0.15035  0.75073  0.47253  1.0000
  C   C785      1.0  0.12330  0.77818  0.45620  1.0000
  H   H928      1.0  0.14923  0.75805  0.36208  1.0000
  H   H929      1.0  0.22564  0.83307  0.46559  1.0000
  H   H930      1.0  0.09926  0.74824  0.38708  1.0000
  Fe  Fe102     1.0  0.25713  0.76339  0.31273  1.0000
  H   H931      1.0  0.23402  0.79791  0.36298  1.0000
  C   C786      1.0  0.02830  0.89944  0.29899  1.0000
  S   S206      1.0  0.27269  0.77840  0.28572  1.0000
  H   H932      1.0  0.18824  0.91576  0.47522  1.0000
  H   H933      1.0  0.19178  0.74565  0.39258  1.0000
  C   C787      1.0  0.09880  0.77838  0.28766  1.0000
  S   S207      1.0  0.24197  0.75931  0.38406  1.0000
  C   C788      1.0  0.16518  0.75226  0.31420  1.0000
  C   C789      1.0  0.99130  0.88283  0.34836  1.0000
  S   S208      1.0  0.16959  0.73987  0.22238  1.0000
  H   H934      1.0  0.14042  0.78088  0.37960  1.0000
  H   H935      1.0  0.99813  0.86825  0.34998  1.0000
  C   C790      1.0  0.19269  0.74947  0.40550  1.0000
  S   S209      1.0  0.27313  0.75084  0.09993  1.0000
  C   C791      1.0  0.14936  0.76961  0.47177  1.0000
  C   C792      1.0  0.22645  0.78118  0.41007  1.0000
  H   H936      1.0  0.00118  0.88296  0.30825  1.0000
  C   C793      1.0  0.06803  0.77659  0.30675  1.0000
  C   C794      1.0  0.05500  0.76374  0.40956  1.0000
  H   H937      1.0  0.29691  0.75842  0.15774  1.0000
  H   H938      1.0  0.18038  0.74304  0.26034  1.0000
  H   H939      1.0  0.07442  0.79194  0.46270  1.0000
  C   C795      1.0  0.01034  0.76655  0.34468  1.0000
  H   H940      1.0  0.20631  0.75354  0.40303  1.0000
  H   H941      1.0  0.11782  0.82371  0.35221  1.0000
  H   H942      1.0  0.10083  0.78991  0.33884  1.0000
  H   H943      1.0  0.11545  0.78736  0.38386  1.0000
  C   C796      1.0  0.23397  0.83894  0.45187  1.0000
  H   H944      1.0  0.02638  0.79624  0.42120  1.0000
  H   H945      1.0  0.19980  0.74614  0.19095  1.0000
  C   C797      1.0  0.07246  0.80605  0.45335  1.0000
  H   H946      1.0  0.15770  0.76652  0.31042  1.0000
  S   S210      1.0  0.08368  0.74997  0.28527  1.0000
  H   H947      1.0  0.20427  0.75345  0.27083  1.0000
  H   H948      1.0  0.01836  0.90488  0.28937  1.0000
  C   C798      1.0  0.06437  0.75230  0.37116  1.0000
  H   H949      1.0  0.12908  0.80482  0.37847  1.0000
  C   C799      1.0  0.23198  0.78098  0.39089  1.0000
  C   C800      1.0  0.30458  0.75261  0.12386  1.0000
  N   N52       1.0  0.22818  0.85958  0.44633  1.0000
  H   H950      1.0  0.24709  0.88896  0.43921  1.0000
  H   H951      1.0  0.03746  0.84454  0.44933  1.0000
  H   H952      1.0  0.02026  0.89878  0.31372  1.0000
  H   H953      1.0  0.30401  0.75913  0.30410  1.0000
  C   C801      1.0  0.02922  0.86631  0.29951  1.0000
  C   C802      1.0  0.24115  0.88393  0.45373  1.0000
  C   C803      1.0  0.13799  0.74561  0.46487  1.0000
  H   H954      1.0  0.19317  0.73649  0.41662  1.0000
  S   S211      1.0  0.05932  0.75874  0.46673  1.0000
  C   C804      1.0  0.03916  0.80622  0.43791  1.0000
  C   C805      1.0  0.21447  0.73952  0.24053  1.0000
  C   C806      1.0  0.03846  0.84802  0.29677  1.0000
  C   C807      1.0  0.29635  0.76918  0.27719  1.0000
  H   H955      1.0  0.14919  0.79688  0.32881  1.0000
  C   C808      1.0  0.11500  0.81117  0.34933  1.0000
  H   H956      1.0  0.06155  0.84383  0.44864  1.0000
  H   H957      1.0  0.27799  0.73630  0.19126  1.0000
  C   C809      1.0  0.30705  0.74176  0.07569  1.0000
  H   H958      1.0  0.15959  0.74471  0.42618  1.0000
  C   C810      1.0  0.01498  0.78955  0.46858  1.0000
  H   H959      1.0  0.06692  0.76629  0.36667  1.0000
  C   C811      1.0  0.15921  0.73757  0.31110  1.0000
  C   C812      1.0  0.14756  0.79695  0.34388  1.0000
  H   H960      1.0  0.00985  0.79283  0.32494  1.0000
  C   C813      1.0  0.09816  0.79445  0.29392  1.0000
  H   H961      1.0  0.05112  0.77542  0.39791  1.0000
  C   C814      1.0  0.08744  0.75816  0.39388  1.0000
  H   H962      1.0  0.06302  0.86172  0.30770  1.0000
  S   S212      1.0  0.18826  0.76696  0.32573  1.0000
  H   H963      1.0  0.22844  0.76819  0.42027  1.0000
  C   C815      1.0  0.06761  0.79238  0.31347  1.0000
  C   C816      1.0  0.22961  0.79788  0.37779  1.0000
  C   C817      1.0  0.00927  0.83756  0.30616  1.0000
  H   H964      1.0  0.22678  0.73818  0.27169  1.0000
  C   C818      1.0  0.99974  0.85535  0.30896  1.0000
  C   C819      1.0  0.02859  0.83391  0.30005  1.0000
  C   C820      1.0  0.23170  0.86882  0.45966  1.0000
  C   C821      1.0  0.01220  0.75698  0.36282  1.0000
  H   H965      1.0  0.11506  0.81423  0.33407  1.0000
  H   H966      1.0  0.00169  0.82654  0.30884  1.0000
  C   C822      1.0  0.13419  0.74293  0.35350  1.0000
  C   C823      1.0  0.01360  0.76656  0.37570  1.0000
  C   C824      1.0  0.05293  0.87508  0.30942  1.0000
  C   C825      1.0  0.29445  0.77466  0.07506  1.0000
  H   H967      1.0  0.06214  0.87069  0.27425  1.0000
  Fe  Fe103     1.0  0.21767  0.75759  0.32988  1.0000
  H   H968      1.0  0.28348  0.78572  0.08005  1.0000
  N   N53       1.0  0.17686  0.76466  0.41108  1.0000
  H   H969      1.0  0.14696  0.74056  0.30532  1.0000
  C   C826      1.0  0.17918  0.76825  0.42859  1.0000
  C   C827      1.0  0.15942  0.75771  0.41506  1.0000
  C   C828      1.0  0.17571  0.78225  0.39669  1.0000
  C   C829      1.0  0.16165  0.79823  0.40030  1.0000
  C   C830      1.0  0.18836  0.78421  0.37901  1.0000
  C   C831      1.0  0.16064  0.81522  0.38730  1.0000
  C   C832      1.0  0.18708  0.80122  0.36602  1.0000
  C   C833      1.0  0.17339  0.81673  0.37022  1.0000
  H   H970      1.0  0.30222  0.77970  0.14225  1.0000
  H   H971      1.0  0.21156  0.73352  0.22988  1.0000
  H   H972      1.0  0.05742  0.75406  0.34481  1.0000
  H   H973      1.0  0.19159  0.77441  0.42601  1.0000
  S   S213      1.0  0.30959  0.74634  0.19714  1.0000
  H   H974      1.0  0.16705  0.77816  0.43481  1.0000
  H   H975      1.0  0.14687  0.76795  0.42020  1.0000
  H   H976      1.0  0.15729  0.75455  0.40234  1.0000
  H   H977      1.0  0.01265  0.74214  0.36695  1.0000
  H   H978      1.0  0.15159  0.79784  0.41345  1.0000
  H   H979      1.0  0.19975  0.77301  0.37503  1.0000
  H   H980      1.0  0.15016  0.82738  0.39072  1.0000
  H   H981      1.0  0.19716  0.80249  0.35281  1.0000
  H   H982      1.0  0.17288  0.83003  0.36033  1.0000
  N   N54       1.0  0.07104  0.74937  0.40286  1.0000
  H   H983      1.0  0.18092  0.75526  0.43962  1.0000
  H   H984      1.0  0.29748  0.76641  0.11664  1.0000
  C   C834      1.0  0.10769  0.76080  0.34021  1.0000
  S   S214      1.0  0.23305  0.77813  0.33193  1.0000
  H   H985      1.0  0.10069  0.81004  0.35743  1.0000
  C   C835      1.0  0.11041  0.77718  0.34333  1.0000
  C   C836      1.0  0.12849  0.79161  0.37502  1.0000
  H   H986      1.0  0.06130  0.88571  0.30757  1.0000
  C   C837      1.0  0.05073  0.81925  0.47817  1.0000
  H   H987      1.0  0.08325  0.81303  0.45433  1.0000
  C   C838      1.0  0.03966  0.80770  0.45611  1.0000
  H   H988      1.0  0.04362  0.74093  0.30829  1.0000
  C   C839      1.0  0.01483  0.78844  0.45054  1.0000
  H   H989      1.0  0.09659  0.76145  0.33337  1.0000
  N   N55       1.0  0.05335  0.81711  0.45862  1.0000
  C   C840      1.0  0.02666  0.79704  0.43522  1.0000
  S   S215      1.0  0.13898  0.73958  0.27199  1.0000
  C   C841      1.0  0.05193  0.83611  0.44648  1.0000
  H   H990      1.0  0.00579  0.78057  0.44847  1.0000
  H   H991      1.0  0.23556  0.85752  0.41718  1.0000
  C   C842      1.0  0.23813  0.86524  0.42665  1.0000
  Fe  Fe104     1.0  0.16819  0.84358  0.47584  1.0000
  H   H992      1.0  0.31013  0.81201  0.21006  1.0000
  C   C843      1.0  0.07593  0.73508  0.41948  1.0000
  H   H993      1.0  0.08094  0.74102  0.42878  1.0000
  H   H994      1.0  0.28144  0.73655  0.27797  1.0000
  H   H995      1.0  0.24944  0.90533  0.46178  1.0000
  H   H996      1.0  0.31744  0.76534  0.15750  1.0000
  N   N56       1.0  0.31867  0.75462  0.13316  1.0000
  H   H997      1.0  0.16112  0.74009  0.47838  1.0000
  H   H998      1.0  0.10854  0.88706  0.47742  1.0000
  H   H999      1.0  0.31795  0.75450  0.00148  1.0000
  Fe  Fe105     1.0  0.11162  0.73250  0.27399  1.0000
  H   H1000     1.0  0.20620  0.73240  0.28796  1.0000
  C   C844      1.0  0.04969  0.89115  0.52483  1.0000
  C   C845      1.0  0.10562  0.75068  0.61009  1.0000
  S   S216      1.0  0.04258  0.77320  0.51613  1.0000
  S   S217      1.0  0.16270  0.89727  0.59629  1.0000
  Fe  Fe106     1.0  0.08385  0.82318  0.60380  1.0000
  S   S218      1.0  0.06339  0.81737  0.59058  1.0000
  S   S219      1.0  0.09510  0.79987  0.62596  1.0000
  Fe  Fe107     1.0  0.08747  0.85943  0.57576  1.0000
  S   S220      1.0  0.06753  0.85645  0.56017  1.0000
  S   S221      1.0  0.10171  0.88342  0.56204  1.0000
  Fe  Fe108     1.0  0.05036  0.84795  0.58878  1.0000
  S   S222      1.0  0.01904  0.85770  0.59545  1.0000
  Fe  Fe109     1.0  0.08239  0.82649  0.56332  1.0000
  S   S223      1.0  0.09515  0.81121  0.53963  1.0000
  S   S224      1.0  0.06930  0.85310  0.60442  1.0000
  S   S225      1.0  0.10379  0.83014  0.57665  1.0000
  H   H1001     1.0  0.10663  0.76052  0.61826  1.0000
  H   H1002     1.0  0.09823  0.92783  0.56645  1.0000
  H   H1003     1.0  0.10235  0.76576  0.73442  1.0000
  Fe  Fe110     1.0  0.17858  0.79055  0.66722  1.0000
  S   S226      1.0  0.17439  0.76110  0.67835  1.0000
  S   S227      1.0  0.15670  0.81563  0.65834  1.0000
  Fe  Fe111     1.0  0.21957  0.77974  0.66888  1.0000
  C   C846      1.0  0.22204  0.97697  0.57850  1.0000
  S   S228      1.0  0.24667  0.78917  0.66127  1.0000
  C   C847      1.0  0.22449  0.84235  0.64903  1.0000
  H   H1004     1.0  0.15240  0.76905  0.72060  1.0000
  Fe  Fe112     1.0  0.19204  0.75953  0.69840  1.0000
  H   H1005     1.0  0.22655  0.91425  0.61702  1.0000
  S   S229      1.0  0.20459  0.78320  0.64599  1.0000
  S   S230      1.0  0.19381  0.78983  0.68922  1.0000
  C   C848      1.0  0.19505  0.84637  0.64052  1.0000
  Fe  Fe113     1.0  0.20164  0.75379  0.65878  1.0000
  H   H1006     1.0  0.14829  0.73896  0.72086  1.0000
  H   H1007     1.0  0.11255  0.77186  0.57484  1.0000
  H   H1008     1.0  0.21177  0.97781  0.57060  1.0000
  H   H1009     1.0  0.30582  0.74154  0.65313  1.0000
  H   H1010     1.0  0.23212  0.78139  0.70151  1.0000
  C   C849      1.0  0.11978  0.76092  0.68968  1.0000
  C   C850      1.0  0.99423  0.88283  0.64214  1.0000
  C   C851      1.0  0.08912  0.95792  0.56036  1.0000
  C   C852      1.0  0.20940  0.83511  0.64919  1.0000
  C   C853      1.0  0.07767  0.74267  0.56138  1.0000
  S   S231      1.0  0.19444  0.92676  0.50646  1.0000
  C   C854      1.0  0.18256  0.89323  0.52086  1.0000
  H   H1011     1.0  0.07919  0.95714  0.55284  1.0000
  H   H1012     1.0  0.07475  0.77529  0.61783  1.0000
  Fe  Fe114     1.0  0.05679  0.75224  0.49776  1.0000
  H   H1013     1.0  0.16398  0.85191  0.60166  1.0000
  H   H1014     1.0  0.20715  0.75885  0.58738  1.0000
  H   H1015     1.0  0.13384  0.76974  0.51036  1.0000
  H   H1016     1.0  0.98977  0.86964  0.64578  1.0000
  C   C855      1.0  0.06131  0.90087  0.52808  1.0000
  H   H1017     1.0  0.00605  0.78247  0.48052  1.0000
  H   H1018     1.0  0.26465  0.95690  0.54501  1.0000
  C   C856      1.0  0.29631  0.96970  0.84580  1.0000
  H   H1019     1.0  0.12211  0.92807  0.58304  1.0000
  H   H1020     1.0  0.23739  0.86557  0.64071  1.0000
  H   H1021     1.0  0.02258  0.87067  0.63066  1.0000
  H   H1022     1.0  0.20548  0.78180  0.55744  1.0000
  H   H1023     1.0  0.18446  0.87293  0.62472  1.0000
  H   H1024     1.0  0.05298  0.80545  0.48792  1.0000
  H   H1025     1.0  0.16887  0.75106  0.64579  1.0000
  S   S232      1.0  0.19835  0.95924  0.53993  1.0000
  H   H1026     1.0  0.20891  0.82071  0.65601  1.0000
  S   S233      1.0  0.28431  0.77819  0.72975  1.0000
  C   C857      1.0  0.22527  0.86094  0.64030  1.0000
  H   H1027     1.0  0.23568  0.83336  0.65570  1.0000
  H   H1028     1.0  0.18328  0.84068  0.64077  1.0000
  H   H1029     1.0  0.07109  0.76817  0.57070  1.0000
  H   H1030     1.0  0.23678  0.74687  0.74194  1.0000
  H   H1031     1.0  0.06872  0.74822  0.55124  1.0000
  H   H1032     1.0  0.27024  0.74301  0.73942  1.0000
  H   H1033     1.0  0.16044  0.75975  0.59833  1.0000
  C   C858      1.0  0.28418  0.78392  0.69236  1.0000
  C   C859      1.0  0.11633  0.95801  0.57888  1.0000
  H   H1034     1.0  0.10108  0.73848  0.62057  1.0000
  H   H1035     1.0  0.12518  0.74147  0.52745  1.0000
  Fe  Fe115     1.0  0.17512  0.92051  0.57554  1.0000
  H   H1036     1.0  0.29871  0.78434  0.68967  1.0000
  H   H1037     1.0  0.19420  0.92017  0.62191  1.0000
  C   C860      1.0  0.11204  0.80452  0.63494  1.0000
  C   C861      1.0  0.11229  0.82281  0.63525  1.0000
  C   C862      1.0  0.12596  0.82611  0.64265  1.0000
  C   C863      1.0  0.13953  0.81119  0.64946  1.0000
  C   C864      1.0  0.13935  0.79296  0.64892  1.0000
  C   C865      1.0  0.12553  0.78962  0.64184  1.0000
  H   H1038     1.0  0.10187  0.83437  0.62996  1.0000
  H   H1039     1.0  0.12607  0.84027  0.64299  1.0000
  H   H1040     1.0  0.14983  0.78141  0.65394  1.0000
  H   H1041     1.0  0.12545  0.77549  0.64147  1.0000
  C   C866      1.0  0.01089  0.88213  0.59090  1.0000
  H   H1042     1.0  0.10164  0.78550  0.59246  1.0000
  H   H1043     1.0  0.13486  0.78405  0.73394  1.0000
  C   C867      1.0  0.09082  0.74718  0.58591  1.0000
  C   C868      1.0  0.01687  0.91347  0.58225  1.0000
  C   C869      1.0  0.02348  0.89407  0.58441  1.0000
  S   S234      1.0  0.14443  0.82916  0.48043  1.0000
  N   N57       1.0  0.09249  0.75967  0.59723  1.0000
  H   H1044     1.0  0.02672  0.92260  0.57767  1.0000
  H   H1045     1.0  0.03833  0.88834  0.58152  1.0000
  H   H1046     1.0  0.21616  0.85299  0.48470  1.0000
  H   H1047     1.0  0.14362  0.81795  0.60710  1.0000
  C   C870      1.0  0.01278  0.88335  0.63368  1.0000
  H   H1048     1.0  0.06360  0.77447  0.60019  1.0000
  H   H1049     1.0  0.17174  0.79950  0.61796  1.0000
  H   H1050     1.0  0.14263  0.82304  0.58293  1.0000
  C   C871      1.0  0.14660  0.89158  0.58696  1.0000
  C   C872      1.0  0.13264  0.88236  0.59866  1.0000
  C   C873      1.0  0.11903  0.87913  0.59108  1.0000
  C   C874      1.0  0.11938  0.88529  0.57186  1.0000
  C   C875      1.0  0.13367  0.89394  0.56019  1.0000
  C   C876      1.0  0.14737  0.89680  0.56770  1.0000
  H   H1051     1.0  0.13200  0.87824  0.61360  1.0000
  H   H1052     1.0  0.10792  0.87253  0.60016  1.0000
  H   H1053     1.0  0.13413  0.89857  0.54529  1.0000
  H   H1054     1.0  0.15847  0.90321  0.55853  1.0000
  C   C877      1.0  0.05738  0.78339  0.52285  1.0000
  C   C878      1.0  0.07599  0.78242  0.51339  1.0000
  C   C879      1.0  0.08740  0.79124  0.51847  1.0000
  C   C880      1.0  0.08034  0.80085  0.53319  1.0000
  C   C881      1.0  0.06171  0.80193  0.54261  1.0000
  C   C882      1.0  0.05022  0.79328  0.53737  1.0000
  H   H1055     1.0  0.08150  0.77528  0.50184  1.0000
  H   H1056     1.0  0.10163  0.79080  0.51077  1.0000
  H   H1057     1.0  0.05609  0.80953  0.55383  1.0000
  H   H1058     1.0  0.03576  0.79425  0.54457  1.0000
  C   C883      1.0  0.11355  0.94112  0.57729  1.0000
  C   C884      1.0  0.24483  0.73338  0.74754  1.0000
  S   S235      1.0  0.99044  0.94539  0.58500  1.0000
  C   C885      1.0  0.19576  0.86490  0.63158  1.0000
  C   C886      1.0  0.25509  0.77987  0.71402  1.0000
  C   C887      1.0  0.23398  0.95984  0.58360  1.0000
  C   C888      1.0  0.18660  0.90716  0.50502  1.0000
  C   C889      1.0  0.14864  0.75566  0.55223  1.0000
  C   C890      1.0  0.12024  0.88769  0.50853  1.0000
  C   C891      1.0  0.14817  0.77335  0.55578  1.0000
  C   C892      1.0  0.17737  0.87732  0.51921  1.0000
  C   C893      1.0  0.25685  0.78593  0.68050  1.0000
  H   H1059     1.0  0.19034  0.76801  0.61732  1.0000
  C   C894      1.0  0.28398  0.97933  0.83392  1.0000
  H   H1060     1.0  0.18148  0.90301  0.62406  1.0000
  H   H1061     1.0  0.17447  0.86660  0.53154  1.0000
  C   C895      1.0  0.18513  0.90507  0.48755  1.0000
  S   S236      1.0  0.23326  0.93947  0.57657  1.0000
  H   H1062     1.0  0.18624  0.83598  0.59999  1.0000
  C   C896      1.0  0.15724  0.75870  0.58554  1.0000
  C   C897      1.0  0.15558  0.73294  0.63845  1.0000
  C   C898      1.0  0.10005  0.94106  0.56797  1.0000
  H   H1063     1.0  0.17268  0.75070  0.51992  1.0000
  C   C899      1.0  0.26593  0.73395  0.68111  1.0000
  H   H1064     1.0  0.22674  0.88436  0.59561  1.0000
  H   H1065     1.0  0.16605  0.82975  0.61692  1.0000
  H   H1066     1.0  0.12727  0.95805  0.58564  1.0000
  H   H1067     1.0  0.10924  0.84540  0.51593  1.0000
  H   H1068     1.0  0.25683  0.75451  0.64767  1.0000
  C   C900      1.0  0.99766  0.92109  0.58635  1.0000
  C   C901      1.0  0.18955  0.77817  0.60427  1.0000
  H   H1069     1.0  0.25669  0.94593  0.59773  1.0000
  H   H1070     1.0  0.28467  0.75913  0.65445  1.0000
  C   C902      1.0  0.26561  0.74328  0.64030  1.0000
  C   C903      1.0  0.22605  0.87328  0.49188  1.0000
  S   S237      1.0  0.20830  0.73262  0.64119  1.0000
  H   H1071     1.0  0.08886  0.90366  0.52557  1.0000
  S   S238      1.0  0.18091  0.94372  0.58474  1.0000
  H   H1072     1.0  0.05529  0.91198  0.53583  1.0000
  H   H1073     1.0  0.11872  0.88795  0.52349  1.0000
  H   H1074     1.0  0.29815  0.75524  0.63215  1.0000
  H   H1075     1.0  0.11625  0.75016  0.54866  1.0000
  N   N58       1.0  0.16663  0.82910  0.58820  1.0000
  C   C904      1.0  0.17096  0.83692  0.60226  1.0000
  C   C905      1.0  0.16941  0.84260  0.56996  1.0000
  C   C906      1.0  0.14671  0.82793  0.59360  1.0000
  C   C907      1.0  0.17815  0.81007  0.58763  1.0000
  C   C908      1.0  0.17911  0.79634  0.60446  1.0000
  C   C909      1.0  0.18782  0.80425  0.57057  1.0000
  H   H1076     1.0  0.11915  0.79721  0.68989  1.0000
  C   C910      1.0  0.19812  0.78596  0.57057  1.0000
  H   H1077     1.0  0.20189  0.89033  0.59780  1.0000
  C   C911      1.0  0.24663  0.78214  0.69891  1.0000
  H   H1078     1.0  0.16110  0.85691  0.57109  1.0000
  H   H1079     1.0  0.13738  0.84171  0.59523  1.0000
  H   H1080     1.0  0.18430  0.84374  0.56482  1.0000
  H   H1081     1.0  0.08919  0.78496  0.57579  1.0000
  H   H1082     1.0  0.16464  0.83881  0.55901  1.0000
  H   H1083     1.0  0.19046  0.90339  0.64366  1.0000
  C   C912      1.0  0.17619  0.87505  0.50173  1.0000
  H   H1084     1.0  0.25680  0.73320  0.64153  1.0000
  H   H1085     1.0  0.03285  0.90068  0.62108  1.0000
  H   H1086     1.0  0.18766  0.81354  0.55704  1.0000
  H   H1087     1.0  0.22603  0.89844  0.63937  1.0000
  C   C913      1.0  0.09925  0.77618  0.58455  1.0000
  H   H1088     1.0  0.14326  0.78995  0.69118  1.0000
  Fe  Fe116     1.0  0.17039  0.96249  0.55974  1.0000
  C   C914      1.0  0.13769  0.77174  0.52281  1.0000
  S   S239      1.0  0.18619  0.74560  0.72885  1.0000
  S   S240      1.0  0.20370  0.91422  0.55761  1.0000
  H   H1089     1.0  0.03648  0.82721  0.48322  1.0000
  H   H1090     1.0  0.11026  0.77366  0.68498  1.0000
  H   H1091     1.0  0.28360  0.78966  0.66307  1.0000
  S   S241      1.0  0.16162  0.93975  0.55247  1.0000
  H   H1092     1.0  0.12508  0.78025  0.53034  1.0000
  H   H1093     1.0  0.18387  0.89454  0.53431  1.0000
  Fe  Fe117     1.0  0.20848  0.93947  0.56485  1.0000
  H   H1094     1.0  0.03472  0.89475  0.52998  1.0000
  H   H1095     1.0  0.15166  0.78832  0.57482  1.0000
  N   N59       1.0  0.28276  0.73378  0.64771  1.0000
  C   C915      1.0  0.07395  0.76612  0.60883  1.0000
  Fe  Fe118     1.0  0.19056  0.93436  0.53473  1.0000
  C   C916      1.0  0.99163  0.88973  0.59464  1.0000
  N   N60       1.0  0.14413  0.75360  0.53508  1.0000
  H   H1096     1.0  0.24075  0.89146  0.61811  1.0000
  C   C917      1.0  0.08900  0.88096  0.51244  1.0000
  C   C918      1.0  0.08068  0.89592  0.52204  1.0000
  H   H1097     1.0  0.12980  0.87061  0.48098  1.0000
  C   C919      1.0  0.01852  0.90030  0.62828  1.0000
  C   C920      1.0  0.12885  0.75924  0.70441  1.0000
  N   N61       1.0  0.12534  0.77508  0.71380  1.0000
  C   C921      1.0  0.13734  0.77176  0.72750  1.0000
  C   C922      1.0  0.12883  0.79229  0.69973  1.0000
  C   C923      1.0  0.10561  0.77851  0.72397  1.0000
  N   N62       1.0  0.10947  0.87488  0.50640  1.0000
  H   H1098     1.0  0.21462  0.90835  0.59321  1.0000
  C   C924      1.0  0.00573  0.91688  0.63116  1.0000
  H   H1099     1.0  0.04835  0.86845  0.51357  1.0000
  H   H1100     1.0  0.24702  0.77759  0.72822  1.0000
  C   C925      1.0  0.27561  0.78680  0.67727  1.0000
  C   C926      1.0  0.19906  0.77299  0.58738  1.0000
  S   S242      1.0  0.21906  0.74944  0.67978  1.0000
  H   H1101     1.0  0.25154  0.73317  0.70976  1.0000
  C   C927      1.0  0.17979  0.88917  0.48592  1.0000
  H   H1102     1.0  0.12727  0.80423  0.70638  1.0000
  C   C928      1.0  0.07674  0.87121  0.50958  1.0000
  H   H1103     1.0  0.21969  0.86959  0.50661  1.0000
  H   H1104     1.0  0.10243  0.79008  0.73159  1.0000
  H   H1105     1.0  0.09576  0.78247  0.71432  1.0000
  H   H1106     1.0  0.30898  0.96014  0.84081  1.0000
  C   C929      1.0  0.07914  0.75398  0.57262  1.0000
  C   C930      1.0  0.27389  0.78083  0.71076  1.0000
  H   H1107     1.0  0.08209  0.85918  0.50313  1.0000
  H   H1108     1.0  0.11174  0.85649  0.53307  1.0000
  N   N63       1.0  0.21136  0.89245  0.62154  1.0000
  C   C931      1.0  0.19364  0.90522  0.62813  1.0000
  C   C932      1.0  0.22686  0.89932  0.62426  1.0000
  C   C933      1.0  0.21374  0.89390  0.60118  1.0000
  C   C934      1.0  0.21079  0.87286  0.63138  1.0000
  H   H1109     1.0  0.11591  0.74787  0.66926  1.0000
  C   C935      1.0  0.15229  0.77473  0.57229  1.0000
  C   C936      1.0  0.09123  0.97541  0.56216  1.0000
  H   H1110     1.0  0.29379  0.94572  0.55696  1.0000
  H   H1111     1.0  0.26895  0.75015  0.62522  1.0000
  H   H1112     1.0  0.25918  0.97450  0.60643  1.0000
  S   S243      1.0  0.17063  0.85408  0.50058  1.0000
  C   C937      1.0  0.23502  0.88827  0.48558  1.0000
  H   H1113     1.0  0.12002  0.74586  0.60232  1.0000
  H   H1114     1.0  0.13106  0.85120  0.51420  1.0000
  C   C938      1.0  0.24733  0.95908  0.59378  1.0000
  C   C939      1.0  0.17087  0.73816  0.64131  1.0000
  H   H1115     1.0  0.30282  0.96590  0.87275  1.0000
  C   C940      1.0  0.10543  0.97494  0.57144  1.0000
  H   H1116     1.0  0.28790  0.97658  0.81996  1.0000
  C   C941      1.0  0.29286  0.97287  0.86384  1.0000
  H   H1117     1.0  0.14445  0.78636  0.54613  1.0000
  C   C942      1.0  0.05739  0.87634  0.51559  1.0000
  H   H1118     1.0  0.13476  0.75975  0.73931  1.0000
  C   C943      1.0  0.11565  0.85618  0.51785  1.0000
  H   H1119     1.0  0.15816  0.74171  0.51082  1.0000
  H   H1120     1.0  0.14879  0.78004  0.51718  1.0000
  C   C944      1.0  0.16093  0.74326  0.52400  1.0000
  C   C945      1.0  0.24882  0.97529  0.59867  1.0000
  H   H1121     1.0  0.99169  0.95061  0.64363  1.0000
  H   H1122     1.0  0.13551  0.88314  0.50319  1.0000
  C   C946      1.0  0.11441  0.87370  0.48632  1.0000
  C   C947      1.0  0.29329  0.74802  0.64682  1.0000
  Fe  Fe119     1.0  0.31509  0.77791  0.72111  1.0000
  C   C948      1.0  0.28726  0.96045  0.55501  1.0000
  H   H1123     1.0  0.30740  0.96734  0.56542  1.0000
  H   H1124     1.0  0.23558  0.89616  0.49541  1.0000
  H   H1125     1.0  0.01104  0.92955  0.62590  1.0000
  H   H1126     1.0  0.10927  0.86241  0.48369  1.0000
  H   H1127     1.0  0.29418  0.74029  0.75262  1.0000
  C   C949      1.0  0.12906  0.74298  0.54012  1.0000
  C   C950      1.0  0.15820  0.74121  0.58230  1.0000
  S   S244      1.0  0.08663  0.73768  0.49628  1.0000
  H   H1128     1.0  0.02653  0.79918  0.48581  1.0000
  H   H1129     1.0  0.11589  0.90217  0.50068  1.0000
  C   C951      1.0  0.12285  0.74620  0.68059  1.0000
  H   H1130     1.0  0.26061  0.74882  0.67739  1.0000
  H   H1131     1.0  0.06814  0.75406  0.61818  1.0000
  C   C952      1.0  0.27090  0.96672  0.54816  1.0000
  C   C953      1.0  0.14076  0.74170  0.70982  1.0000
  H   H1132     1.0  0.14184  0.74185  0.64062  1.0000
  C   C954      1.0  0.29490  0.97297  0.55982  1.0000
  C   C955      1.0  0.15398  0.73963  0.56594  1.0000
  H   H1133     1.0  0.05601  0.98178  0.55440  1.0000
  H   H1134     1.0  0.06096  0.82670  0.47956  1.0000
  C   C956      1.0  0.22425  0.86377  0.47916  1.0000
  H   H1135     1.0  0.23673  0.98229  0.83889  1.0000
  S   S245      1.0  0.16639  0.77616  0.47900  1.0000
  H   H1136     1.0  0.63145  0.01116  0.13114  1.0000
  Fe  Fe120     1.0  0.60025  0.22943  0.40082  1.0000
  Fe  Fe121     1.0  0.58180  0.06104  0.02180  1.0000
  S   S246      1.0  0.56686  0.09086  0.01410  1.0000
  S   S247      1.0  0.57361  0.04631  0.05170  1.0000
  Fe  Fe122     1.0  0.60651  0.06229  0.98333  1.0000
  Fe  Fe123     1.0  0.59540  0.09667  0.00047  1.0000
  S   S248      1.0  0.60438  0.12246  0.00239  1.0000
  S   S249      1.0  0.57945  0.05282  0.99622  1.0000
  S   S250      1.0  0.61035  0.06725  0.00992  1.0000
  Fe  Fe124     1.0  0.65030  0.04949  0.19433  1.0000
  H   H1137     1.0  0.53257  0.06659  0.04739  1.0000
  H   H1138     1.0  0.62654  0.99484  0.01881  1.0000
  C   C957      1.0  0.63955  0.18178  0.33369  1.0000
  H   H1139     1.0  0.62496  0.18675  0.33154  1.0000
  H   H1140     1.0  0.64439  0.20449  0.14160  1.0000
  S   S251      1.0  0.63461  0.03296  0.21990  1.0000
  C   C958      1.0  0.53857  0.99687  0.06163  1.0000
  H   H1141     1.0  0.64048  0.10684  0.08796  1.0000
  H   H1142     1.0  0.54702  0.05899  0.02691  1.0000
  C   C959      1.0  0.63365  0.02538  0.12677  1.0000
  H   H1143     1.0  0.64446  0.00533  0.98940  1.0000
  H   H1144     1.0  0.53761  0.00901  0.08456  1.0000
  H   H1145     1.0  0.64753  0.05623  0.14245  1.0000
  C   C960      1.0  0.62156  0.99701  0.18047  1.0000
  S   S252      1.0  0.55262  0.19878  0.45202  1.0000
  H   H1146     1.0  0.53888  0.98872  0.03645  1.0000
  C   C961      1.0  0.52603  0.03403  0.04272  1.0000
  H   H1147     1.0  0.53233  0.05039  0.00496  1.0000
  S   S253      1.0  0.63782  0.07667  0.17751  1.0000
  H   H1148     1.0  0.57157  0.99242  0.20202  1.0000
  H   H1149     1.0  0.64123  0.21361  0.35710  1.0000
  H   H1150     1.0  0.64833  0.09275  0.04475  1.0000
  H   H1151     1.0  0.64375  0.11410  0.18526  1.0000
  C   C962      1.0  0.64085  0.10580  0.03776  1.0000
  H   H1152     1.0  0.50066  0.06157  0.05813  1.0000
  H   H1153     1.0  0.61105  0.01006  0.99560  1.0000
  Fe  Fe125     1.0  0.65310  0.00817  0.20823  1.0000
  H   H1154     1.0  0.52799  0.02019  0.01991  1.0000
  H   H1155     1.0  0.52667  0.04099  0.06878  1.0000
  C   C963      1.0  0.64005  0.03276  0.13831  1.0000
  C   C964      1.0  0.55333  0.21828  0.47757  1.0000
  C   C965      1.0  0.50067  0.06121  0.04353  1.0000
  C   C966      1.0  0.51844  0.05562  0.01347  1.0000
  Fe  Fe126     1.0  0.62181  0.19411  0.42114  1.0000
  S   S254      1.0  0.59680  0.19969  0.40857  1.0000
  H   H1156     1.0  0.62168  0.01063  0.18235  1.0000
  C   C967      1.0  0.53501  0.01168  0.07057  1.0000
  H   H1157     1.0  0.49517  0.07581  0.03658  1.0000
  Fe  Fe127     1.0  0.57999  0.20685  0.43611  1.0000
  C   C968      1.0  0.52882  0.02998  0.06133  1.0000
  S   S255      1.0  0.60483  0.19824  0.44950  1.0000
  H   H1158     1.0  0.62364  0.09343  0.09055  1.0000
  C   C969      1.0  0.61064  0.99540  0.16873  1.0000
  N   N64       1.0  0.64211  0.08211  0.11010  1.0000
  C   C970      1.0  0.52967  0.01856  0.03402  1.0000
  S   S256      1.0  0.64810  0.17209  0.41581  1.0000
  H   H1159     1.0  0.54385  0.98277  0.06873  1.0000
  C   C971      1.0  0.64617  0.11081  0.19969  1.0000
  H   H1160     1.0  0.58740  0.98383  0.03750  1.0000
  H   H1161     1.0  0.65271  0.05627  0.29231  1.0000
  N   N65       1.0  0.51952  0.05360  0.03326  1.0000
  H   H1162     1.0  0.63743  0.19039  0.36614  1.0000
  C   C972      1.0  0.63833  0.09224  0.09136  1.0000
  C   C973      1.0  0.64951  0.15996  0.39842  1.0000
  H   H1163     1.0  0.64287  0.02421  0.15164  1.0000
  C   C974      1.0  0.65313  0.20460  0.44733  1.0000
  H   H1164     1.0  0.63924  0.11271  0.15342  1.0000
  H   H1165     1.0  0.63383  0.11872  0.20818  1.0000
  H   H1166     1.0  0.60255  0.00789  0.16153  1.0000
  H   H1167     1.0  0.64621  0.09560  0.20504  1.0000
  C   C975      1.0  0.53247  0.06523  0.03314  1.0000
  H   H1168     1.0  0.63954  0.17010  0.34620  1.0000
  C   C976      1.0  0.63354  0.15625  0.39549  1.0000
  H   H1169     1.0  0.52892  0.07973  0.02487  1.0000
  H   H1170     1.0  0.51601  0.20226  0.47640  1.0000
  H   H1171     1.0  0.49060  0.05256  0.04431  1.0000
  H   H1172     1.0  0.62283  0.14201  0.38074  1.0000
  H   H1173     1.0  0.61997  0.16124  0.40369  1.0000
  H   H1174     1.0  0.54411  0.98637  0.19978  1.0000
  C   C977      1.0  0.64561  0.99633  0.97951  1.0000
  H   H1175     1.0  0.57619  0.02042  0.08634  1.0000
  C   C978      1.0  0.63926  0.06266  0.11546  1.0000
  C   C979      1.0  0.58209  0.99290  0.08050  1.0000
  C   C980      1.0  0.58520  0.99182  0.04810  1.0000
  H   H1176     1.0  0.62493  0.03050  0.10079  1.0000
  C   C981      1.0  0.53589  0.00029  0.04341  1.0000
  Fe  Fe128     1.0  0.56646  0.08312  0.98746  1.0000
  H   H1177     1.0  0.59363  0.99686  0.21755  1.0000
  C   C982      1.0  0.57881  0.01246  0.07561  1.0000
  H   H1178     1.0  0.63177  0.08667  0.13843  1.0000
  C   C983      1.0  0.63614  0.20246  0.35406  1.0000
  H   H1179     1.0  0.51403  0.07053  0.00657  1.0000
  H   H1180     1.0  0.59990  0.99359  0.99182  1.0000
  C   C984      1.0  0.63519  0.14527  0.38255  1.0000
  H   H1181     1.0  0.50813  0.04816  0.01232  1.0000
  H   H1182     1.0  0.58212  0.01854  0.02877  1.0000
  H   H1183     1.0  0.62632  0.09231  0.02592  1.0000
  Fe  Fe129     1.0  0.60680  0.22831  0.43905  1.0000
  C   C985      1.0  0.64390  0.12279  0.03933  1.0000
  C   C986      1.0  0.57887  0.02177  0.05697  1.0000
  C   C987      1.0  0.61916  0.12224  0.01724  1.0000
  C   C988      1.0  0.62214  0.13925  0.01885  1.0000
  C   C989      1.0  0.63433  0.13956  0.02995  1.0000
  C   C990      1.0  0.58227  0.01143  0.04313  1.0000
  H   H1184     1.0  0.56751  0.21885  0.47016  1.0000
  C   C991      1.0  0.62847  0.10550  0.02693  1.0000
  H   H1185     1.0  0.61504  0.15228  0.01141  1.0000
  C   C992      1.0  0.64276  0.05112  0.13284  1.0000
  C   C993      1.0  0.54275  0.20945  0.47148  1.0000
  H   H1186     1.0  0.63662  0.15273  0.03091  1.0000
  H   H1187     1.0  0.63152  0.10754  0.12070  1.0000
  N   N66       1.0  0.62990  0.98652  0.98472  1.0000
  H   H1188     1.0  0.62094  0.20744  0.35420  1.0000
  H   H1189     1.0  0.64409  0.21872  0.44453  1.0000
  C   C994      1.0  0.63280  0.05467  0.10396  1.0000
  C   C995      1.0  0.63001  0.03631  0.10966  1.0000
  N   N67       1.0  0.64679  0.19723  0.33598  1.0000
  H   H1190     1.0  0.63386  0.09343  0.99060  1.0000
  H   H1191     1.0  0.62974  0.06231  0.09052  1.0000
  C   C996      1.0  0.62948  0.09291  0.12399  1.0000
  C   C997      1.0  0.63502  0.23126  0.32097  1.0000
  C   C998      1.0  0.65092  0.10810  0.41558  1.0000
  S   S257      1.0  0.64689  0.18806  0.11041  1.0000
  C   C999      1.0  0.65275  0.13830  0.37215  1.0000
  H   H1192     1.0  0.64813  0.17549  0.32161  1.0000
  H   H1193     1.0  0.65051  0.12528  0.43426  1.0000
  C   C1000     1.0  0.65311  0.10397  0.15149  1.0000
  H   H1194     1.0  0.61459  0.09346  0.12441  1.0000
  H   H1195     1.0  0.64791  0.19792  0.46212  1.0000
  C   C1001     1.0  0.64536  0.21288  0.31951  1.0000
  H   H1196     1.0  0.64792  0.08544  0.07999  1.0000
  C   C1002     1.0  0.58511  0.98255  0.06681  1.0000
  H   H1197     1.0  0.63583  0.11092  0.41774  1.0000
  C   C1003     1.0  0.61203  0.00053  0.98629  1.0000
  H   H1198     1.0  0.58211  0.98587  0.09493  1.0000
  S   S258      1.0  0.62620  0.22352  0.41189  1.0000
  C   C1004     1.0  0.65331  0.22438  0.28540  1.0000
  H   H1199     1.0  0.65063  0.19622  0.43857  1.0000
  H   H1200     1.0  0.65405  0.11681  0.22970  1.0000
  S   S259      1.0  0.65440  0.12375  0.35674  1.0000
  C   C1005     1.0  0.59065  0.98309  0.22000  1.0000
  C   C1006     1.0  0.53238  0.07898  0.96464  1.0000
  S   S260      1.0  0.61944  0.05689  0.73829  1.0000
  Fe  Fe130     1.0  0.63258  0.07140  0.75201  1.0000
  S   S261      1.0  0.61509  0.09601  0.76422  1.0000
  Fe  Fe131     1.0  0.63231  0.03033  0.75620  1.0000
  S   S262      1.0  0.61609  0.01068  0.77853  1.0000
  H   H1201     1.0  0.34368  0.07475  0.85044  1.0000
  H   H1202     1.0  0.52501  0.18892  0.55421  1.0000
  H   H1203     1.0  0.37219  0.08037  0.85478  1.0000
  H   H1204     1.0  0.42003  0.04431  0.89001  1.0000
  H   H1205     1.0  0.53828  0.15367  0.56099  1.0000
  H   H1206     1.0  0.59450  0.05009  0.95677  1.0000
  Fe  Fe132     1.0  0.49134  0.04976  0.91743  1.0000
  S   S263      1.0  0.49581  0.02455  0.90505  1.0000
  S   S264      1.0  0.51124  0.04323  0.93736  1.0000
  Fe  Fe133     1.0  0.46249  0.07187  0.89356  1.0000
  S   S265      1.0  0.46535  0.04851  0.87946  1.0000
  S   S266      1.0  0.44060  0.09745  0.88564  1.0000
  Fe  Fe134     1.0  0.46482  0.03048  0.90804  1.0000
  S   S267      1.0  0.44702  0.00876  0.91930  1.0000
  Fe  Fe135     1.0  0.49600  0.04488  0.87765  1.0000
  S   S268      1.0  0.51959  0.03827  0.85360  1.0000
  S   S269      1.0  0.45996  0.05402  0.92277  1.0000
  S   S270      1.0  0.49341  0.06983  0.88945  1.0000
  H   H1207     1.0  0.59834  0.06066  0.88298  1.0000
  H   H1208     1.0  0.40486  0.07597  0.88703  1.0000
  H   H1209     1.0  0.60747  0.19485  0.77806  1.0000
  S   S271      1.0  0.64374  0.04536  0.77118  1.0000
  H   H1210     1.0  0.39524  0.17460  0.59367  1.0000
  H   H1211     1.0  0.41500  0.04776  0.85024  1.0000
  S   S272      1.0  0.49369  0.22039  0.57239  1.0000
  H   H1212     1.0  0.37348  0.18886  0.58907  1.0000
  Fe  Fe136     1.0  0.47031  0.20673  0.57436  1.0000
  S   S273      1.0  0.47120  0.17740  0.59143  1.0000
  C   C1007     1.0  0.51738  0.08710  0.95548  1.0000
  C   C1008     1.0  0.56104  0.02887  0.78722  1.0000
  H   H1213     1.0  0.57446  0.02916  0.78953  1.0000
  Fe  Fe137     1.0  0.39378  0.12317  0.80050  1.0000
  S   S274      1.0  0.37028  0.13419  0.82254  1.0000
  S   S275      1.0  0.42108  0.10500  0.80709  1.0000
  Fe  Fe138     1.0  0.37184  0.14045  0.76924  1.0000
  S   S276      1.0  0.34666  0.15232  0.78918  1.0000
  S   S277      1.0  0.36777  0.14964  0.73942  1.0000
  Fe  Fe139     1.0  0.36670  0.16059  0.80065  1.0000
  S   S278      1.0  0.36019  0.19010  0.80477  1.0000
  Fe  Fe140     1.0  0.35271  0.12478  0.80876  1.0000
  C   C1009     1.0  0.55672  0.04180  0.90807  1.0000
  S   S279      1.0  0.39180  0.15057  0.77951  1.0000
  S   S280      1.0  0.37628  0.11198  0.78801  1.0000
  Fe  Fe141     1.0  0.35413  0.11308  0.62912  1.0000
  S   S281      1.0  0.34896  0.12281  0.65602  1.0000
  C   C1010     1.0  0.63719  0.21752  0.69687  1.0000
  Fe  Fe142     1.0  0.39114  0.12601  0.61415  1.0000
  S   S282      1.0  0.38914  0.13626  0.63985  1.0000
  S   S283      1.0  0.41237  0.13365  0.58784  1.0000
  Fe  Fe143     1.0  0.37915  0.11009  0.65567  1.0000
  S   S284      1.0  0.38804  0.09524  0.68293  1.0000
  Fe  Fe144     1.0  0.35933  0.14813  0.63826  1.0000
  S   S285      1.0  0.34717  0.17682  0.64420  1.0000
  S   S286      1.0  0.38387  0.09820  0.62994  1.0000
  S   S287      1.0  0.36178  0.13985  0.61136  1.0000
  C   C1011     1.0  0.52432  0.20888  0.48121  1.0000
  H   H1214     1.0  0.56041  0.04889  0.87044  1.0000
  C   C1012     1.0  0.34497  0.06981  0.61461  1.0000
  C   C1013     1.0  0.34331  0.05328  0.61043  1.0000
  H   H1215     1.0  0.54356  0.08611  0.88444  1.0000
  H   H1216     1.0  0.57344  0.06681  0.86552  1.0000
  H   H1217     1.0  0.33083  0.12394  0.78655  1.0000
  H   H1218     1.0  0.35842  0.07153  0.61536  1.0000
  H   H1219     1.0  0.35550  0.04224  0.60813  1.0000
  H   H1220     1.0  0.34114  0.03089  0.80010  1.0000
  C   C1014     1.0  0.59119  0.98771  0.87340  1.0000
  C   C1015     1.0  0.54182  0.07187  0.89243  1.0000
  C   C1016     1.0  0.62516  0.21775  0.68553  1.0000
  C   C1017     1.0  0.32543  0.18499  0.82432  1.0000
  H   H1221     1.0  0.54914  0.16017  0.51953  1.0000
  C   C1018     1.0  0.60025  0.03615  0.93381  1.0000
  C   C1019     1.0  0.37200  0.13326  0.72526  1.0000
  C   C1020     1.0  0.36482  0.13885  0.70892  1.0000
  C   C1021     1.0  0.36942  0.12706  0.69616  1.0000
  C   C1022     1.0  0.38120  0.10950  0.69964  1.0000
  C   C1023     1.0  0.38799  0.10362  0.71626  1.0000
  C   C1024     1.0  0.38340  0.11549  0.72908  1.0000
  H   H1222     1.0  0.35587  0.15251  0.70597  1.0000
  H   H1223     1.0  0.36398  0.13167  0.68351  1.0000
  H   H1224     1.0  0.39712  0.09004  0.71901  1.0000
  H   H1225     1.0  0.38911  0.11111  0.74159  1.0000
  S   S288      1.0  0.32949  0.10448  0.62466  1.0000
  C   C1025     1.0  0.56299  0.07679  0.91733  1.0000
  H   H1226     1.0  0.35046  0.04402  0.65106  1.0000
  H   H1227     1.0  0.53304  0.13951  0.54808  1.0000
  H   H1228     1.0  0.60245  0.11799  0.79187  1.0000
  H   H1229     1.0  0.42380  0.06309  0.85863  1.0000
  H   H1230     1.0  0.53989  0.18512  0.51522  1.0000
  C   C1026     1.0  0.45417  0.16601  0.59062  1.0000
  C   C1027     1.0  0.44804  0.15264  0.60621  1.0000
  C   C1028     1.0  0.43476  0.14303  0.60572  1.0000
  C   C1029     1.0  0.42821  0.14617  0.58930  1.0000
  C   C1030     1.0  0.43455  0.15937  0.57363  1.0000
  C   C1031     1.0  0.44713  0.16964  0.57443  1.0000
  H   H1231     1.0  0.45372  0.14955  0.61863  1.0000
  H   H1232     1.0  0.43021  0.13260  0.61773  1.0000
  H   H1233     1.0  0.42959  0.16172  0.56087  1.0000
  H   H1234     1.0  0.45183  0.17992  0.56234  1.0000
  H   H1235     1.0  0.39827  0.03776  0.90195  1.0000
  C   C1032     1.0  0.40736  0.04106  0.88784  1.0000
  H   H1236     1.0  0.46652  0.15732  0.53839  1.0000
  N   N68       1.0  0.52369  0.16911  0.53885  1.0000
  H   H1237     1.0  0.65068  0.10772  0.74810  1.0000
  H   H1238     1.0  0.41226  0.02826  0.88196  1.0000
  H   H1239     1.0  0.32977  0.06925  0.82607  1.0000
  C   C1033     1.0  0.59059  0.06770  0.89422  1.0000
  C   C1034     1.0  0.34747  0.04644  0.86615  1.0000
  H   H1240     1.0  0.40486  0.07233  0.84676  1.0000
  H   H1241     1.0  0.51103  0.10177  0.95480  1.0000
  C   C1035     1.0  0.62350  0.13352  0.78838  1.0000
  C   C1036     1.0  0.62409  0.04098  0.94697  1.0000
  C   C1037     1.0  0.63788  0.03237  0.93370  1.0000
  C   C1038     1.0  0.63288  0.02546  0.92069  1.0000
  C   C1039     1.0  0.61408  0.02708  0.92088  1.0000
  H   H1242     1.0  0.38723  0.08640  0.87376  1.0000
  C   C1040     1.0  0.36884  0.06680  0.86121  1.0000
  H   H1243     1.0  0.32332  0.99057  0.55661  1.0000
  C   C1041     1.0  0.37515  0.03519  0.87940  1.0000
  H   H1244     1.0  0.61031  0.00975  0.97248  1.0000
  C   C1042     1.0  0.43515  0.09903  0.86397  1.0000
  C   C1043     1.0  0.41735  0.10832  0.86081  1.0000
  C   C1044     1.0  0.41282  0.11007  0.84352  1.0000
  C   C1045     1.0  0.42606  0.10250  0.82922  1.0000
  C   C1046     1.0  0.44382  0.09302  0.83245  1.0000
  C   C1047     1.0  0.44837  0.09131  0.84975  1.0000
  H   H1245     1.0  0.40697  0.11409  0.87182  1.0000
  H   H1246     1.0  0.39910  0.11732  0.84133  1.0000
  H   H1247     1.0  0.45418  0.08715  0.82146  1.0000
  H   H1248     1.0  0.46225  0.08435  0.85192  1.0000
  C   C1048     1.0  0.51853  0.05741  0.94814  1.0000
  C   C1049     1.0  0.51060  0.07643  0.94707  1.0000
  C   C1050     1.0  0.32908  0.08390  0.61809  1.0000
  H   H1249     1.0  0.33178  0.04533  0.70360  1.0000
  H   H1250     1.0  0.35730  0.04127  0.78088  1.0000
  C   C1051     1.0  0.53334  0.04926  0.95756  1.0000
  H   H1251     1.0  0.49918  0.08288  0.93991  1.0000
  C   C1052     1.0  0.32731  0.18651  0.63461  1.0000
  C   C1053     1.0  0.43814  0.00175  0.90356  1.0000
  H   H1252     1.0  0.33218  0.17080  0.82962  1.0000
  H   H1253     1.0  0.37816  0.18284  0.61241  1.0000
  H   H1254     1.0  0.48849  0.16209  0.55417  1.0000
  H   H1255     1.0  0.55024  0.04437  0.92235  1.0000
  C   C1054     1.0  0.61593  0.12071  0.78398  1.0000
  C   C1055     1.0  0.50641  0.99896  0.82487  1.0000
  H   H1256     1.0  0.63025  0.98780  0.95572  1.0000
  C   C1056     1.0  0.52889  0.01192  0.83229  1.0000
  C   C1057     1.0  0.51437  0.02390  0.84179  1.0000
  C   C1058     1.0  0.49588  0.02399  0.84206  1.0000
  C   C1059     1.0  0.49189  0.01169  0.83342  1.0000
  S   S289      1.0  0.60797  0.01729  0.90530  1.0000
  H   H1257     1.0  0.54323  0.01235  0.83121  1.0000
  H   H1258     1.0  0.48461  0.03366  0.84869  1.0000
  C   C1060     1.0  0.38053  0.05277  0.87203  1.0000
  H   H1259     1.0  0.61697  0.05642  0.83014  1.0000
  C   C1061     1.0  0.64310  0.11499  0.75925  1.0000
  C   C1062     1.0  0.44628  0.00424  0.88440  1.0000
  S   S290      1.0  0.32275  0.02941  0.60698  1.0000
  H   H1260     1.0  0.61357  0.15755  0.75404  1.0000
  H   H1261     1.0  0.33288  0.18821  0.75843  1.0000
  C   C1063     1.0  0.35251  0.06367  0.85848  1.0000
  H   H1262     1.0  0.45809  0.01094  0.87888  1.0000
  H   H1263     1.0  0.57464  0.21433  0.74604  1.0000
  H   H1264     1.0  0.63673  0.07815  0.81226  1.0000
  H   H1265     1.0  0.33073  0.99373  0.81128  1.0000
  C   C1064     1.0  0.65043  0.12841  0.76322  1.0000
  C   C1065     1.0  0.55571  0.00174  0.74656  1.0000
  H   H1266     1.0  0.58234  0.04309  0.87705  1.0000
  H   H1267     1.0  0.62596  0.20629  0.73683  1.0000
  C   C1066     1.0  0.50156  0.16489  0.50058  1.0000
  S   S291      1.0  0.33083  0.10876  0.82567  1.0000
  H   H1268     1.0  0.37696  0.00674  0.84299  1.0000
  C   C1067     1.0  0.51045  0.16637  0.52904  1.0000
  C   C1068     1.0  0.51521  0.18563  0.54751  1.0000
  H   H1269     1.0  0.55381  0.01622  0.73796  1.0000
  C   C1069     1.0  0.62572  0.11132  0.76953  1.0000
  C   C1070     1.0  0.60916  0.16532  0.74124  1.0000
  H   H1270     1.0  0.62588  0.20520  0.68090  1.0000
  H   H1271     1.0  0.59314  0.99902  0.87912  1.0000
  H   H1272     1.0  0.41062  0.21754  0.56923  1.0000
  H   H1273     1.0  0.35389  0.20752  0.61037  1.0000
  S   S292      1.0  0.32393  0.99796  0.87665  1.0000
  H   H1274     1.0  0.60014  0.09009  0.92304  1.0000
  C   C1071     1.0  0.33601  0.19751  0.81206  1.0000
  N   N69       1.0  0.40249  0.16937  0.67024  1.0000
  C   C1072     1.0  0.41249  0.14984  0.66919  1.0000
  C   C1073     1.0  0.39882  0.17101  0.69007  1.0000
  C   C1074     1.0  0.38440  0.17248  0.66469  1.0000
  C   C1075     1.0  0.41298  0.18363  0.65809  1.0000
  C   C1076     1.0  0.40520  0.20293  0.65755  1.0000
  C   C1077     1.0  0.43093  0.17899  0.64654  1.0000
  C   C1078     1.0  0.60842  0.18581  0.76824  1.0000
  C   C1079     1.0  0.44046  0.19288  0.63538  1.0000
  H   H1275     1.0  0.61593  0.14050  0.79978  1.0000
  H   H1276     1.0  0.42584  0.14621  0.67407  1.0000
  H   H1277     1.0  0.40409  0.13947  0.67826  1.0000
  H   H1278     1.0  0.41545  0.14741  0.65472  1.0000
  H   H1279     1.0  0.41202  0.16993  0.69444  1.0000
  H   H1280     1.0  0.39199  0.15977  0.69980  1.0000
  H   H1281     1.0  0.38934  0.18440  0.69273  1.0000
  H   H1282     1.0  0.37655  0.16135  0.67256  1.0000
  H   H1283     1.0  0.37486  0.18584  0.66734  1.0000
  H   H1284     1.0  0.38649  0.17263  0.64954  1.0000
  C   C1080     1.0  0.35887  0.22038  0.60560  1.0000
  H   H1285     1.0  0.43804  0.16475  0.64591  1.0000
  H   H1286     1.0  0.35097  0.02246  0.82743  1.0000
  H   H1287     1.0  0.45421  0.18905  0.62675  1.0000
  H   H1288     1.0  0.54585  0.05138  0.80123  1.0000
  C   C1081     1.0  0.32690  0.18332  0.61735  1.0000
  H   H1289     1.0  0.35238  0.05926  0.67373  1.0000
  H   H1290     1.0  0.32696  0.22752  0.57037  1.0000
  H   H1291     1.0  0.44013  0.22233  0.62690  1.0000
  H   H1292     1.0  0.55454  0.99223  0.73814  1.0000
  S   S293      1.0  0.64463  0.98399  0.87565  1.0000
  C   C1082     1.0  0.54181  0.17223  0.52634  1.0000
  H   H1293     1.0  0.51104  0.19824  0.53682  1.0000
  C   C1083     1.0  0.54047  0.06003  0.96544  1.0000
  S   S294      1.0  0.54039  0.09286  0.97512  1.0000
  H   H1294     1.0  0.33840  0.08194  0.67573  1.0000
  C   C1084     1.0  0.60933  0.99044  0.77767  1.0000
  C   C1085     1.0  0.52490  0.99938  0.82400  1.0000
  H   H1295     1.0  0.61458  0.13974  0.73153  1.0000
  H   H1296     1.0  0.35025  0.01690  0.64000  1.0000
  H   H1297     1.0  0.44567  0.99958  0.85760  1.0000
  N   N70       1.0  0.34636  0.05660  0.80305  1.0000
  C   C1086     1.0  0.34431  0.04443  0.79155  1.0000
  H   H1298     1.0  0.57262  0.19369  0.76404  1.0000
  C   C1087     1.0  0.34851  0.07491  0.79040  1.0000
  C   C1088     1.0  0.36219  0.04734  0.81254  1.0000
  C   C1089     1.0  0.37770  0.05554  0.81018  1.0000
  C   C1090     1.0  0.36236  0.02949  0.82470  1.0000
  C   C1091     1.0  0.39245  0.04626  0.81927  1.0000
  C   C1092     1.0  0.37717  0.02035  0.83371  1.0000
  C   C1093     1.0  0.39221  0.02868  0.83098  1.0000
  C   C1094     1.0  0.63993  0.06989  0.82548  1.0000
  H   H1299     1.0  0.64712  0.20488  0.70083  1.0000
  H   H1300     1.0  0.36114  0.07347  0.77893  1.0000
  C   C1095     1.0  0.41563  0.98688  0.89848  1.0000
  C   C1096     1.0  0.32319  0.00131  0.82225  1.0000
  C   C1097     1.0  0.59212  0.08429  0.91693  1.0000
  H   H1301     1.0  0.39163  0.21178  0.56357  1.0000
  C   C1098     1.0  0.61086  0.98517  0.76085  1.0000
  H   H1302     1.0  0.34935  0.08508  0.79824  1.0000
  H   H1303     1.0  0.37881  0.06910  0.80136  1.0000
  C   C1099     1.0  0.40176  0.20701  0.57296  1.0000
  H   H1304     1.0  0.40419  0.05274  0.81712  1.0000
  H   H1305     1.0  0.33259  0.05102  0.78408  1.0000
  H   H1306     1.0  0.61561  0.07480  0.89615  1.0000
  C   C1100     1.0  0.52771  0.15244  0.55386  1.0000
  N   N71       1.0  0.42139  0.16656  0.81699  1.0000
  C   C1101     1.0  0.42830  0.14859  0.81069  1.0000
  C   C1102     1.0  0.40887  0.17905  0.80461  1.0000
  C   C1103     1.0  0.43744  0.17540  0.81424  1.0000
  C   C1104     1.0  0.41209  0.16298  0.83707  1.0000
  C   C1105     1.0  0.39253  0.16892  0.84349  1.0000
  C   C1106     1.0  0.42260  0.15276  0.85089  1.0000
  C   C1107     1.0  0.38425  0.16519  0.86257  1.0000
  C   C1108     1.0  0.41420  0.14926  0.86993  1.0000
  C   C1109     1.0  0.39506  0.15546  0.87576  1.0000
  H   H1307     1.0  0.41650  0.14175  0.81239  1.0000
  H   H1308     1.0  0.43540  0.15045  0.79562  1.0000
  H   H1309     1.0  0.43835  0.13850  0.81881  1.0000
  H   H1310     1.0  0.39737  0.17250  0.80472  1.0000
  H   H1311     1.0  0.41630  0.18203  0.78969  1.0000
  H   H1312     1.0  0.40260  0.19273  0.80887  1.0000
  H   H1313     1.0  0.44877  0.16591  0.82103  1.0000
  H   H1314     1.0  0.44397  0.17934  0.79912  1.0000
  H   H1315     1.0  0.43293  0.18829  0.82009  1.0000
  H   H1316     1.0  0.38323  0.17634  0.83407  1.0000
  H   H1317     1.0  0.43734  0.14690  0.84709  1.0000
  H   H1318     1.0  0.36929  0.16974  0.86711  1.0000
  H   H1319     1.0  0.42251  0.14106  0.88016  1.0000
  H   H1320     1.0  0.38857  0.15240  0.89051  1.0000
  N   N72       1.0  0.54192  0.00061  0.76467  1.0000
  S   S295      1.0  0.44834  0.23026  0.58422  1.0000
  C   C1110     1.0  0.51658  0.21702  0.49705  1.0000
  H   H1321     1.0  0.62347  0.17935  0.76424  1.0000
  C   C1111     1.0  0.54265  0.01480  0.77454  1.0000
  C   C1112     1.0  0.52654  0.02765  0.78153  1.0000
  C   C1113     1.0  0.55989  0.01575  0.77786  1.0000
  C   C1114     1.0  0.52783  0.04075  0.79089  1.0000
  H   H1322     1.0  0.65254  0.14271  0.70738  1.0000
  C   C1115     1.0  0.54503  0.04140  0.79369  1.0000
  H   H1323     1.0  0.60073  0.17462  0.77642  1.0000
  H   H1324     1.0  0.33898  0.17529  0.60966  1.0000
  H   H1325     1.0  0.57038  0.99739  0.74850  1.0000
  H   H1326     1.0  0.65124  0.14954  0.68296  1.0000
  C   C1116     1.0  0.52732  0.22573  0.50314  1.0000
  H   H1327     1.0  0.63075  0.23035  0.61493  1.0000
  N   N73       1.0  0.60086  0.19656  0.75142  1.0000
  S   S296      1.0  0.64946  0.15376  0.78403  1.0000
  H   H1328     1.0  0.53622  0.99053  0.81644  1.0000
  H   H1329     1.0  0.51270  0.02759  0.78035  1.0000
  H   H1330     1.0  0.57264  0.00617  0.77339  1.0000
  C   C1117     1.0  0.49270  0.16280  0.53921  1.0000
  H   H1331     1.0  0.53961  0.03456  0.95842  1.0000
  H   H1332     1.0  0.41362  0.21186  0.60127  1.0000
  C   C1118     1.0  0.58088  0.20480  0.75778  1.0000
  N   N74       1.0  0.39208  0.20402  0.59301  1.0000
  H   H1333     1.0  0.63584  0.10996  0.96892  1.0000
  C   C1119     1.0  0.43924  0.99780  0.87237  1.0000
  H   H1334     1.0  0.55143  0.17423  0.53413  1.0000
  H   H1335     1.0  0.53414  0.06649  0.88504  1.0000
  C   C1120     1.0  0.41081  0.06012  0.85689  1.0000
  H   H1336     1.0  0.50254  0.18362  0.55859  1.0000
  C   C1121     1.0  0.61107  0.21193  0.74261  1.0000
  H   H1337     1.0  0.34161  0.07405  0.65474  1.0000
  H   H1338     1.0  0.60505  0.15550  0.70130  1.0000
  C   C1122     1.0  0.63154  0.04604  0.85279  1.0000
  H   H1339     1.0  0.61415  0.99399  0.83787  1.0000
  C   C1123     1.0  0.56958  0.05435  0.87605  1.0000
  H   H1340     1.0  0.57886  0.21322  0.76848  1.0000
  H   H1341     1.0  0.62266  0.03624  0.86061  1.0000
  C   C1124     1.0  0.52330  0.00266  0.76061  1.0000
  H   H1342     1.0  0.54710  0.03535  0.90418  1.0000
  H   H1343     1.0  0.38164  0.07181  0.89655  1.0000
  N   N75       1.0  0.39750  0.05665  0.87508  1.0000
  H   H1344     1.0  0.47754  0.01166  0.83388  1.0000
  H   H1345     1.0  0.51512  0.15039  0.56509  1.0000
  H   H1346     1.0  0.39159  0.20749  0.66592  1.0000
  C   C1125     1.0  0.32390  0.04393  0.67165  1.0000
  H   H1347     1.0  0.54858  0.07710  0.92425  1.0000
  H   H1348     1.0  0.62556  0.01786  0.81206  1.0000
  N   N76       1.0  0.57871  0.99527  0.85977  1.0000
  H   H1349     1.0  0.52755  0.17014  0.50036  1.0000
  C   C1126     1.0  0.40603  0.20029  0.60472  1.0000
  C   C1127     1.0  0.55960  0.00143  0.87062  1.0000
  C   C1128     1.0  0.58576  0.01032  0.84480  1.0000
  C   C1129     1.0  0.57403  0.02775  0.83877  1.0000
  C   C1130     1.0  0.60460  0.00724  0.83482  1.0000
  C   C1131     1.0  0.58086  0.04119  0.82374  1.0000
  S   S297      1.0  0.65242  0.06355  0.68667  1.0000
  C   C1132     1.0  0.59941  0.03767  0.81424  1.0000
  C   C1133     1.0  0.33889  0.03718  0.65763  1.0000
  H   H1350     1.0  0.65248  0.03078  0.93363  1.0000
  H   H1351     1.0  0.51531  0.05013  0.79649  1.0000
  C   C1134     1.0  0.33904  0.02146  0.65117  1.0000
  H   H1352     1.0  0.41651  0.99104  0.92533  1.0000
  H   H1353     1.0  0.64362  0.01892  0.91045  1.0000
  H   H1354     1.0  0.56989  0.03132  0.90930  1.0000
  H   H1355     1.0  0.51248  0.00046  0.77376  1.0000
  H   H1356     1.0  0.55873  0.01348  0.87680  1.0000
  H   H1357     1.0  0.55939  0.03113  0.84505  1.0000
  C   C1135     1.0  0.32888  0.05994  0.81731  1.0000
  H   H1358     1.0  0.57157  0.05419  0.81905  1.0000
  H   H1359     1.0  0.41135  0.19405  0.56926  1.0000
  C   C1136     1.0  0.60077  0.07576  0.90172  1.0000
  H   H1360     1.0  0.64614  0.00574  0.96543  1.0000
  C   C1137     1.0  0.64064  0.13755  0.77794  1.0000
  H   H1361     1.0  0.53217  0.07322  0.90616  1.0000
  C   C1138     1.0  0.54565  0.22633  0.49334  1.0000
  H   H1362     1.0  0.64799  0.10589  0.80857  1.0000
  C   C1139     1.0  0.35881  0.03222  0.87649  1.0000
  C   C1140     1.0  0.43251  0.21167  0.63536  1.0000
  Fe  Fe145     1.0  0.62764  0.98965  0.90329  1.0000
  C   C1141     1.0  0.51453  0.16732  0.50938  1.0000
  C   C1142     1.0  0.57328  0.08478  0.92473  1.0000
  C   C1143     1.0  0.60454  0.16366  0.71130  1.0000
  H   H1363     1.0  0.64098  0.11967  0.68789  1.0000
  H   H1364     1.0  0.59403  0.18993  0.69409  1.0000
  H   H1365     1.0  0.40365  0.02143  0.83800  1.0000
  S   S298      1.0  0.46916  0.21698  0.54392  1.0000
  N   N77       1.0  0.56015  0.05924  0.89454  1.0000
  H   H1366     1.0  0.60449  0.04778  0.80209  1.0000
  H   H1367     1.0  0.58567  0.03753  0.93401  1.0000
  C   C1144     1.0  0.62840  0.05735  0.83565  1.0000
  C   C1145     1.0  0.60268  0.18508  0.73766  1.0000
  C   C1146     1.0  0.59824  0.18298  0.70730  1.0000
  H   H1368     1.0  0.61717  0.99318  0.74771  1.0000
  H   H1369     1.0  0.54896  0.00536  0.86186  1.0000
  C   C1147     1.0  0.60525  0.04322  0.94677  1.0000
  C   C1148     1.0  0.57125  0.06815  0.90172  1.0000
  S   S299      1.0  0.63072  0.04759  0.96444  1.0000
  H   H1370     1.0  0.33633  0.08149  0.78358  1.0000
  H   H1371     1.0  0.47908  0.98652  0.90089  1.0000
  C   C1149     1.0  0.61131  0.02083  0.81994  1.0000
  C   C1150     1.0  0.65155  0.11277  0.69668  1.0000
  C   C1151     1.0  0.39254  0.07342  0.88344  1.0000
  H   H1372     1.0  0.51879  0.01668  0.75191  1.0000
  H   H1373     1.0  0.56664  0.09108  0.93685  1.0000
  H   H1374     1.0  0.38325  0.02345  0.88748  1.0000
  H   H1375     1.0  0.35484  0.01878  0.88225  1.0000
  H   H1376     1.0  0.41682  0.18738  0.60273  1.0000
  H   H1377     1.0  0.33532  0.22551  0.79562  1.0000
  C   C1152     1.0  0.60996  0.15484  0.72825  1.0000
  C   C1153     1.0  0.59718  0.19355  0.72030  1.0000
  C   C1154     1.0  0.33955  0.06933  0.67025  1.0000
  C   C1155     1.0  0.41486  0.21670  0.64634  1.0000
  H   H1378     1.0  0.32574  0.04682  0.82691  1.0000
  H   H1379     1.0  0.59197  0.20847  0.71655  1.0000
  H   H1380     1.0  0.63562  0.08648  0.96911  1.0000
  N   N78       1.0  0.32273  0.06103  0.67825  1.0000
  H   H1381     1.0  0.33481  0.04398  0.86404  1.0000
  C   C1156     1.0  0.37777  0.22095  0.59670  1.0000
  C   C1157     1.0  0.64086  0.09517  0.97555  1.0000
  H   H1382     1.0  0.55513  0.99005  0.88237  1.0000
  S   S300      1.0  0.59353  0.09211  0.97275  1.0000
  H   H1383     1.0  0.52337  0.99201  0.75287  1.0000
  C   C1158     1.0  0.32443  0.01201  0.65842  1.0000
  Fe  Fe146     1.0  0.64727  0.05338  0.71803  1.0000
  H   H1384     1.0  0.50235  0.21661  0.50443  1.0000
  H   H1385     1.0  0.32436  0.00017  0.65297  1.0000
  C   C1159     1.0  0.38431  0.18695  0.59723  1.0000
  C   C1160     1.0  0.32715  0.21585  0.80522  1.0000
  C   C1161     1.0  0.32577  0.05080  0.60986  1.0000
  C   C1162     1.0  0.47993  0.16018  0.53029  1.0000
  C   C1163     1.0  0.42388  0.98912  0.87940  1.0000
  H   H1386     1.0  0.39926  0.19847  0.61986  1.0000
  C   C1164     1.0  0.42281  0.99308  0.91052  1.0000
  C   C1165     1.0  0.64619  0.04726  0.85990  1.0000
  H   H1387     1.0  0.60006  0.98386  0.80766  1.0000
  H   H1388     1.0  0.57904  0.23118  0.52142  1.0000
  H   H1389     1.0  0.60515  0.22205  0.73100  1.0000
  H   H1390     1.0  0.61091  0.22031  0.75275  1.0000
  H   H1391     1.0  0.64862  0.03842  0.87326  1.0000
  H   H1392     1.0  0.64425  0.11309  0.71150  1.0000
  C   C1166     1.0  0.32813  0.99556  0.83985  1.0000
  H   H1393     1.0  0.55217  0.05364  0.97218  1.0000
  C   C1167     1.0  0.48433  0.16128  0.51100  1.0000
  H   H1394     1.0  0.56963  0.98532  0.84019  1.0000
  H   H1395     1.0  0.33928  0.98358  0.84237  1.0000
  H   H1396     1.0  0.32254  0.17034  0.75696  1.0000
  H   H1397     1.0  0.47434  0.15939  0.50412  1.0000
  H   H1398     1.0  0.36000  0.22674  0.55716  1.0000
  H   H1399     1.0  0.65441  0.12807  0.96954  1.0000
  H   H1400     1.0  0.50492  0.16591  0.48552  1.0000
  H   H1401     1.0  0.48191  0.98465  0.86650  1.0000
  H   H1402     1.0  0.40873  0.23135  0.64629  1.0000
  S   S301      1.0  0.46229  0.46728  0.28432  1.0000
  C   C1168     1.0  0.60392  0.30171  0.47396  1.0000
  S   S302      1.0  0.58104  0.23727  0.42706  1.0000
  H   H1403     1.0  0.61179  0.47497  0.33364  1.0000
  C   C1169     1.0  0.64292  0.24215  0.28730  1.0000
  H   H1404     1.0  0.49457  0.47395  0.25015  1.0000
  H   H1405     1.0  0.63831  0.31154  0.39524  1.0000
  H   H1406     1.0  0.59573  0.45936  0.33967  1.0000
  C   C1170     1.0  0.63501  0.30942  0.21618  1.0000
  H   H1407     1.0  0.53125  0.28072  0.35725  1.0000
  C   C1171     1.0  0.58704  0.47975  0.36747  1.0000
  H   H1408     1.0  0.53779  0.46589  0.27182  1.0000
  H   H1409     1.0  0.60840  0.42395  0.31757  1.0000
  Fe  Fe147     1.0  0.33360  0.47469  0.43167  1.0000
  H   H1410     1.0  0.59332  0.29339  0.45446  1.0000
  H   H1411     1.0  0.39263  0.40922  0.41240  1.0000
  S   S303      1.0  0.51069  0.45272  0.30537  1.0000
  C   C1172     1.0  0.64930  0.26706  0.46388  1.0000
  Fe  Fe148     1.0  0.61717  0.32884  0.28185  1.0000
  S   S304      1.0  0.58939  0.33217  0.30204  1.0000
  S   S305      1.0  0.63234  0.30188  0.27215  1.0000
  Fe  Fe149     1.0  0.62477  0.36467  0.28685  1.0000
  S   S306      1.0  0.59772  0.37086  0.30743  1.0000
  Fe  Fe150     1.0  0.60409  0.34021  0.31992  1.0000
  S   S307      1.0  0.60301  0.32940  0.35084  1.0000
  Fe  Fe151     1.0  0.58537  0.36267  0.28762  1.0000
  S   S308      1.0  0.55786  0.37781  0.27897  1.0000
  S   S309      1.0  0.63194  0.33472  0.30096  1.0000
  S   S310      1.0  0.61220  0.35861  0.26589  1.0000
  C   C1173     1.0  0.64871  0.29388  0.21145  1.0000
  H   H1412     1.0  0.56212  0.47060  0.35434  1.0000
  H   H1413     1.0  0.57609  0.29561  0.32993  1.0000
  H   H1414     1.0  0.54736  0.29849  0.37794  1.0000
  S   S311      1.0  0.63236  0.43733  0.33184  1.0000
  C   C1174     1.0  0.37949  0.41986  0.41132  1.0000
  S   S312      1.0  0.60113  0.24391  0.37066  1.0000
  H   H1415     1.0  0.38146  0.42788  0.36466  1.0000
  H   H1416     1.0  0.36950  0.41269  0.38348  1.0000
  H   H1417     1.0  0.63308  0.25484  0.42486  1.0000
  H   H1418     1.0  0.63584  0.33739  0.36861  1.0000
  C   C1175     1.0  0.63391  0.25862  0.46844  1.0000
  H   H1419     1.0  0.62611  0.25961  0.30630  1.0000
  H   H1420     1.0  0.57079  0.29377  0.36433  1.0000
  H   H1421     1.0  0.64181  0.25332  0.27504  1.0000
  C   C1176     1.0  0.64371  0.33808  0.37833  1.0000
  H   H1422     1.0  0.61147  0.31127  0.46325  1.0000
  H   H1423     1.0  0.53406  0.32485  0.31965  1.0000
  H   H1424     1.0  0.65376  0.34993  0.25704  1.0000
  H   H1425     1.0  0.36282  0.45493  0.37752  1.0000
  C   C1177     1.0  0.36297  0.44610  0.39178  1.0000
  H   H1426     1.0  0.65114  0.33225  0.24711  1.0000
  S   S313      1.0  0.64871  0.37934  0.27979  1.0000
  C   C1178     1.0  0.38164  0.41965  0.37921  1.0000
  C   C1179     1.0  0.54790  0.32103  0.34272  1.0000
  H   H1427     1.0  0.62817  0.38607  0.37551  1.0000
  C   C1180     1.0  0.53999  0.45128  0.24240  1.0000
  C   C1181     1.0  0.65300  0.26663  0.43122  1.0000
  H   H1428     1.0  0.53462  0.47912  0.21141  1.0000
  C   C1182     1.0  0.62264  0.41750  0.31208  1.0000
  C   C1183     1.0  0.39656  0.44109  0.38728  1.0000
  S   S314      1.0  0.61000  0.24183  0.46086  1.0000
  H   H1429     1.0  0.54595  0.37487  0.32482  1.0000
  H   H1430     1.0  0.38721  0.45479  0.41119  1.0000
  H   H1431     1.0  0.56144  0.35735  0.35111  1.0000
  C   C1184     1.0  0.60541  0.30503  0.35638  1.0000
  C   C1185     1.0  0.60812  0.29536  0.34217  1.0000
  C   C1186     1.0  0.60751  0.27637  0.34670  1.0000
  C   C1187     1.0  0.60448  0.26687  0.36543  1.0000
  C   C1188     1.0  0.60281  0.27623  0.37966  1.0000
  C   C1189     1.0  0.60319  0.29536  0.37512  1.0000
  H   H1432     1.0  0.61017  0.30263  0.32767  1.0000
  H   H1433     1.0  0.60883  0.26918  0.33569  1.0000
  H   H1434     1.0  0.60051  0.26893  0.39417  1.0000
  H   H1435     1.0  0.60117  0.30278  0.38615  1.0000
  H   H1436     1.0  0.35048  0.43966  0.39624  1.0000
  H   H1437     1.0  0.62817  0.31919  0.20554  1.0000
  H   H1438     1.0  0.52538  0.29944  0.33859  1.0000
  H   H1439     1.0  0.62479  0.30424  0.12393  1.0000
  H   H1440     1.0  0.41297  0.47078  0.40321  1.0000
  H   H1441     1.0  0.54003  0.44408  0.25725  1.0000
  H   H1442     1.0  0.61164  0.45702  0.36306  1.0000
  C   C1190     1.0  0.52332  0.43180  0.29797  1.0000
  C   C1191     1.0  0.51596  0.42254  0.28879  1.0000
  C   C1192     1.0  0.52675  0.40609  0.28290  1.0000
  C   C1193     1.0  0.54486  0.39868  0.28629  1.0000
  C   C1194     1.0  0.55216  0.40794  0.29549  1.0000
  C   C1195     1.0  0.54142  0.42440  0.30130  1.0000
  H   H1443     1.0  0.50191  0.42790  0.28643  1.0000
  H   H1444     1.0  0.52097  0.39894  0.27587  1.0000
  H   H1445     1.0  0.56610  0.40247  0.29808  1.0000
  H   H1446     1.0  0.54722  0.43146  0.30840  1.0000
  H   H1447     1.0  0.55372  0.45528  0.23599  1.0000
  C   C1196     1.0  0.64379  0.25240  0.10105  1.0000
  C   C1197     1.0  0.53076  0.29595  0.35166  1.0000
  N   N79       1.0  0.54932  0.30054  0.34848  1.0000
  H   H1448     1.0  0.35759  0.41129  0.46012  1.0000
  Fe  Fe152     1.0  0.48385  0.47131  0.29754  1.0000
  C   C1198     1.0  0.65240  0.35330  0.37589  1.0000
  H   H1449     1.0  0.60411  0.26299  0.14340  1.0000
  H   H1450     1.0  0.36769  0.41246  0.41542  1.0000
  H   H1451     1.0  0.52209  0.46088  0.21535  1.0000
  C   C1199     1.0  0.63863  0.29957  0.24854  1.0000
  C   C1200     1.0  0.62999  0.31230  0.23468  1.0000
  C   C1201     1.0  0.41258  0.46183  0.39434  1.0000
  C   C1202     1.0  0.62823  0.25389  0.45445  1.0000
  H   H1452     1.0  0.37690  0.42810  0.42225  1.0000
  H   H1453     1.0  0.61923  0.32413  0.23828  1.0000
  C   C1203     1.0  0.60459  0.46005  0.39122  1.0000
  H   H1454     1.0  0.60115  0.24359  0.12361  1.0000
  H   H1455     1.0  0.57724  0.27100  0.47812  1.0000
  S   S315      1.0  0.41484  0.47328  0.32190  1.0000
  C   C1204     1.0  0.54627  0.36005  0.32996  1.0000
  C   C1205     1.0  0.53951  0.33150  0.32741  1.0000
  C   C1206     1.0  0.64237  0.38692  0.36684  1.0000
  C   C1207     1.0  0.61362  0.24919  0.12050  1.0000
  C   C1208     1.0  0.64087  0.36814  0.34648  1.0000
  H   H1456     1.0  0.56294  0.32428  0.36251  1.0000
  H   H1457     1.0  0.55709  0.27673  0.37028  1.0000
  H   H1458     1.0  0.55705  0.29588  0.32017  1.0000
  N   N80       1.0  0.38054  0.43177  0.39218  1.0000
  H   H1459     1.0  0.62651  0.23623  0.09675  1.0000
  C   C1209     1.0  0.62931  0.26793  0.16114  1.0000
  H   H1460     1.0  0.43611  0.44798  0.35379  1.0000
  C   C1210     1.0  0.60181  0.46490  0.37284  1.0000
  C   C1211     1.0  0.61558  0.26012  0.13186  1.0000
  C   C1212     1.0  0.53856  0.35073  0.32132  1.0000
  H   H1461     1.0  0.52028  0.30364  0.36191  1.0000
  C   C1213     1.0  0.42643  0.46002  0.37825  1.0000
  S   S316      1.0  0.33837  0.44317  0.43685  1.0000
  H   H1462     1.0  0.50440  0.45002  0.24847  1.0000
  H   H1463     1.0  0.43763  0.46754  0.37450  1.0000
  H   H1464     1.0  0.64733  0.35565  0.34010  1.0000
  C   C1214     1.0  0.55568  0.33099  0.35122  1.0000
  C   C1215     1.0  0.41098  0.43948  0.37100  1.0000
  H   H1465     1.0  0.56487  0.27604  0.33747  1.0000
  C   C1216     1.0  0.63761  0.25815  0.43578  1.0000
  C   C1217     1.0  0.34359  0.41540  0.46796  1.0000
  H   H1466     1.0  0.63318  0.27426  0.17095  1.0000
  H   H1467     1.0  0.61456  0.40179  0.29679  1.0000
  H   H1468     1.0  0.53235  0.35844  0.30940  1.0000
  C   C1218     1.0  0.39785  0.45256  0.39881  1.0000
  H   H1469     1.0  0.41104  0.43158  0.36102  1.0000
  C   C1219     1.0  0.42565  0.44884  0.36666  1.0000
  H   H1470     1.0  0.64042  0.38049  0.33462  1.0000
  C   C1220     1.0  0.55488  0.35019  0.34481  1.0000
  C   C1221     1.0  0.62153  0.29637  0.13865  1.0000
  H   H1471     1.0  0.60666  0.29525  0.14180  1.0000
  H   H1472     1.0  0.50703  0.45885  0.26723  1.0000
  C   C1222     1.0  0.53429  0.47987  0.26370  1.0000
  H   H1473     1.0  0.61628  0.44911  0.39491  1.0000
  C   C1223     1.0  0.52263  0.47310  0.22058  1.0000
  C   C1224     1.0  0.62609  0.40474  0.30050  1.0000
  C   C1225     1.0  0.63393  0.24562  0.30501  1.0000
  H   H1474     1.0  0.38222  0.47036  0.35104  1.0000
  C   C1226     1.0  0.64497  0.32304  0.39367  1.0000
  H   H1475     1.0  0.36084  0.45564  0.40141  1.0000
  C   C1227     1.0  0.56232  0.29159  0.33338  1.0000
  C   C1228     1.0  0.38782  0.48157  0.35228  1.0000
  C   C1229     1.0  0.55635  0.29211  0.36605  1.0000
  C   C1230     1.0  0.63746  0.42190  0.31656  1.0000
  C   C1231     1.0  0.33128  0.43101  0.46000  1.0000
  C   C1232     1.0  0.64604  0.26313  0.11246  1.0000
  H   H1476     1.0  0.61410  0.26842  0.16616  1.0000
  H   H1477     1.0  0.39446  0.40836  0.37897  1.0000
  H   H1478     1.0  0.62272  0.30496  0.14803  1.0000
  C   C1233     1.0  0.65352  0.28074  0.13795  1.0000
  C   C1234     1.0  0.59364  0.29171  0.46906  1.0000
  H   H1479     1.0  0.53905  0.44027  0.23565  1.0000
  H   H1480     1.0  0.63658  0.25296  0.16306  1.0000
  C   C1235     1.0  0.65255  0.28428  0.24370  1.0000
  C   C1236     1.0  0.63212  0.26694  0.12854  1.0000
  H   H1481     1.0  0.62607  0.36757  0.35334  1.0000
  N   N81       1.0  0.52434  0.46785  0.24053  1.0000
  H   H1482     1.0  0.62763  0.23496  0.33424  1.0000
  C   C1237     1.0  0.64439  0.39622  0.29337  1.0000
  H   H1483     1.0  0.64089  0.39933  0.35511  1.0000
  H   H1484     1.0  0.65049  0.38996  0.37554  1.0000
  C   C1238     1.0  0.59702  0.47426  0.33501  1.0000
  C   C1239     1.0  0.50686  0.46235  0.25207  1.0000
  N   N82       1.0  0.63423  0.27777  0.14129  1.0000
  C   C1240     1.0  0.62779  0.24517  0.10524  1.0000
  N   N83       1.0  0.65150  0.36947  0.35984  1.0000
  S   S317      1.0  0.64917  0.47463  0.39489  1.0000
  H   H1485     1.0  0.59549  0.46631  0.41873  1.0000
  H   H1486     1.0  0.59426  0.47903  0.32057  1.0000
  C   C1241     1.0  0.59283  0.46968  0.40472  1.0000
  H   H1487     1.0  0.65376  0.27040  0.47482  1.0000
  H   H1488     1.0  0.59321  0.25563  0.53663  1.0000
  C   C1242     1.0  0.53112  0.32283  0.57924  1.0000
  C   C1243     1.0  0.45497  0.31425  0.61720  1.0000
  H   H1489     1.0  0.39977  0.32670  0.57329  1.0000
  H   H1490     1.0  0.53762  0.33082  0.58521  1.0000
  C   C1244     1.0  0.35088  0.25394  0.60312  1.0000
  H   H1491     1.0  0.40200  0.34472  0.58290  1.0000
  C   C1245     1.0  0.37150  0.45656  0.59471  1.0000
  H   H1492     1.0  0.44146  0.47084  0.53674  1.0000
  H   H1493     1.0  0.39685  0.24024  0.58520  1.0000
  Fe  Fe153     1.0  0.44863  0.24181  0.55370  1.0000
  H   H1494     1.0  0.44562  0.45929  0.56965  1.0000
  H   H1495     1.0  0.45056  0.29681  0.60186  1.0000
  N   N84       1.0  0.33644  0.45066  0.51537  1.0000
  H   H1496     1.0  0.36134  0.47393  0.50024  1.0000
  Fe  Fe154     1.0  0.43298  0.41265  0.60868  1.0000
  S   S318      1.0  0.45870  0.42473  0.59839  1.0000
  S   S319      1.0  0.42803  0.39898  0.58782  1.0000
  Fe  Fe155     1.0  0.42469  0.42336  0.64663  1.0000
  S   S320      1.0  0.44997  0.43582  0.63917  1.0000
  S   S321      1.0  0.40524  0.42438  0.67486  1.0000
  Fe  Fe156     1.0  0.44137  0.44850  0.61166  1.0000
  C   C1246     1.0  0.44110  0.47408  0.56435  1.0000
  Fe  Fe157     1.0  0.46474  0.41059  0.62680  1.0000
  S   S322      1.0  0.49452  0.39666  0.62922  1.0000
  S   S323      1.0  0.41503  0.43765  0.61986  1.0000
  S   S324      1.0  0.44010  0.39684  0.63635  1.0000
  Fe  Fe158     1.0  0.36784  0.35240  0.54270  1.0000
  S   S325      1.0  0.35871  0.34656  0.57387  1.0000
  S   S326      1.0  0.39791  0.34113  0.53069  1.0000
  H   H1497     1.0  0.37902  0.44880  0.60618  1.0000
  C   C1247     1.0  0.43951  0.44651  0.69311  1.0000
  H   H1498     1.0  0.34062  0.26663  0.60526  1.0000
  S   S327      1.0  0.63654  0.28643  0.52402  1.0000
  S   S328      1.0  0.35620  0.38329  0.53915  1.0000
  S   S329      1.0  0.34281  0.34568  0.53745  1.0000
  Fe  Fe159     1.0  0.58157  0.25949  0.65008  1.0000
  S   S330      1.0  0.57810  0.28960  0.65127  1.0000
  H   H1499     1.0  0.42561  0.45328  0.69935  1.0000
  Fe  Fe160     1.0  0.56498  0.26987  0.61485  1.0000
  S   S331      1.0  0.56061  0.30059  0.61301  1.0000
  S   S332      1.0  0.55887  0.26053  0.59159  1.0000
  Fe  Fe161     1.0  0.58881  0.29363  0.62004  1.0000
  S   S333      1.0  0.61186  0.30838  0.60328  1.0000
  Fe  Fe162     1.0  0.54998  0.29381  0.64408  1.0000
  S   S334      1.0  0.52128  0.30916  0.65648  1.0000
  S   S335      1.0  0.59411  0.26339  0.61939  1.0000
  S   S336      1.0  0.55259  0.26317  0.64555  1.0000
  H   H1500     1.0  0.40008  0.32225  0.59781  1.0000
  S   S337      1.0  0.41957  0.25280  0.54828  1.0000
  S   S338      1.0  0.47018  0.25869  0.54964  1.0000
  C   C1248     1.0  0.43460  0.33383  0.56077  1.0000
  C   C1249     1.0  0.53540  0.25954  0.59457  1.0000
  C   C1250     1.0  0.50345  0.26327  0.61252  1.0000
  C   C1251     1.0  0.52241  0.26277  0.61098  1.0000
  C   C1252     1.0  0.63590  0.24334  0.58565  1.0000
  H   H1501     1.0  0.37045  0.46878  0.71560  1.0000
  C   C1253     1.0  0.40365  0.31660  0.53509  1.0000
  C   C1254     1.0  0.42206  0.30744  0.52902  1.0000
  C   C1255     1.0  0.42706  0.28785  0.53315  1.0000
  C   C1256     1.0  0.41358  0.27734  0.54305  1.0000
  C   C1257     1.0  0.39513  0.28650  0.54891  1.0000
  C   C1258     1.0  0.39019  0.30610  0.54511  1.0000
  H   H1502     1.0  0.43247  0.31551  0.52111  1.0000
  H   H1503     1.0  0.44123  0.28087  0.52822  1.0000
  H   H1504     1.0  0.38468  0.27846  0.55655  1.0000
  H   H1505     1.0  0.37596  0.31308  0.54987  1.0000
  C   C1259     1.0  0.50160  0.37218  0.63598  1.0000
  C   C1260     1.0  0.48864  0.36078  0.64455  1.0000
  C   C1261     1.0  0.49485  0.34147  0.65085  1.0000
  C   C1262     1.0  0.51401  0.33339  0.64820  1.0000
  C   C1263     1.0  0.52694  0.34470  0.63905  1.0000
  C   C1264     1.0  0.52074  0.36407  0.63322  1.0000
  H   H1506     1.0  0.47388  0.36684  0.64658  1.0000
  H   H1507     1.0  0.48479  0.33274  0.65779  1.0000
  H   H1508     1.0  0.54173  0.33859  0.63692  1.0000
  H   H1509     1.0  0.53084  0.37282  0.62658  1.0000
  C   C1265     1.0  0.40507  0.39814  0.58832  1.0000
  C   C1266     1.0  0.39000  0.40592  0.60111  1.0000
  C   C1267     1.0  0.37176  0.40511  0.60102  1.0000
  C   C1268     1.0  0.36864  0.39624  0.58838  1.0000
  C   C1269     1.0  0.38377  0.38826  0.57577  1.0000
  C   C1270     1.0  0.40191  0.38948  0.57555  1.0000
  H   H1510     1.0  0.39238  0.41241  0.61115  1.0000
  C   C1271     1.0  0.38267  0.23871  0.59167  1.0000
  H   H1511     1.0  0.38145  0.38146  0.56594  1.0000
  H   H1512     1.0  0.41353  0.38366  0.56547  1.0000
  S   S339      1.0  0.43991  0.47910  0.59943  1.0000
  C   C1272     1.0  0.61343  0.28909  0.55781  1.0000
  C   C1273     1.0  0.60786  0.29389  0.57539  1.0000
  C   C1274     1.0  0.61829  0.30354  0.58068  1.0000
  C   C1275     1.0  0.63412  0.30883  0.56805  1.0000
  H   H1513     1.0  0.39707  0.47221  0.59811  1.0000
  H   H1514     1.0  0.60542  0.28133  0.55402  1.0000
  H   H1515     1.0  0.59541  0.29011  0.58480  1.0000
  C   C1276     1.0  0.63616  0.23358  0.70319  1.0000
  Fe  Fe163     1.0  0.34482  0.37681  0.57003  1.0000
  C   C1277     1.0  0.51053  0.25686  0.58142  1.0000
  H   H1516     1.0  0.35067  0.28613  0.55081  1.0000
  H   H1517     1.0  0.50523  0.31390  0.56686  1.0000
  H   H1518     1.0  0.59758  0.28465  0.52055  1.0000
  C   C1278     1.0  0.44713  0.31099  0.60388  1.0000
  H   H1519     1.0  0.45744  0.33465  0.63109  1.0000
  C   C1279     1.0  0.58538  0.27558  0.50193  1.0000
  N   N85       1.0  0.51165  0.32196  0.58939  1.0000
  H   H1520     1.0  0.47869  0.33586  0.57505  1.0000
  H   H1521     1.0  0.37221  0.25581  0.54727  1.0000
  C   C1280     1.0  0.39806  0.44675  0.68060  1.0000
  C   C1281     1.0  0.36588  0.46211  0.51081  1.0000
  H   H1522     1.0  0.42403  0.30127  0.56707  1.0000
  C   C1282     1.0  0.37894  0.43262  0.53827  1.0000
  H   H1523     1.0  0.41010  0.45939  0.55996  1.0000
  H   H1524     1.0  0.64412  0.27149  0.66376  1.0000
  C   C1283     1.0  0.43090  0.30300  0.57763  1.0000
  H   H1525     1.0  0.42315  0.35556  0.59058  1.0000
  H   H1526     1.0  0.43081  0.34911  0.56036  1.0000
  C   C1284     1.0  0.59581  0.28620  0.50648  1.0000
  H   H1527     1.0  0.46036  0.36765  0.57151  1.0000
  C   C1285     1.0  0.55616  0.26525  0.51610  1.0000
  H   H1528     1.0  0.38404  0.42115  0.54892  1.0000
  C   C1286     1.0  0.61146  0.25029  0.68610  1.0000
  C   C1287     1.0  0.62342  0.25002  0.69759  1.0000
  H   H1529     1.0  0.35906  0.46625  0.60101  1.0000
  H   H1530     1.0  0.54885  0.25489  0.52689  1.0000
  H   H1531     1.0  0.60138  0.26290  0.68219  1.0000
  H   H1532     1.0  0.62252  0.26248  0.70249  1.0000
  H   H1533     1.0  0.33138  0.23583  0.61559  1.0000
  C   C1288     1.0  0.43973  0.34678  0.61114  1.0000
  H   H1534     1.0  0.50602  0.25480  0.56984  1.0000
  C   C1289     1.0  0.43185  0.34366  0.59779  1.0000
  C   C1290     1.0  0.35051  0.24002  0.55837  1.0000
  H   H1535     1.0  0.57128  0.24879  0.54569  1.0000
  C   C1291     1.0  0.47277  0.36409  0.57732  1.0000
  N   N86       1.0  0.57641  0.26110  0.51598  1.0000
  C   C1292     1.0  0.61212  0.23404  0.68030  1.0000
  C   C1293     1.0  0.38022  0.46691  0.70259  1.0000
  C   C1294     1.0  0.34526  0.27342  0.55472  1.0000
  C   C1295     1.0  0.63959  0.30422  0.55027  1.0000
  Fe  Fe164     1.0  0.33016  0.37632  0.53677  1.0000
  C   C1296     1.0  0.33782  0.40500  0.48608  1.0000
  H   H1536     1.0  0.40347  0.44424  0.53119  1.0000
  N   N87       1.0  0.38362  0.46681  0.57871  1.0000
  H   H1537     1.0  0.37337  0.26838  0.59053  1.0000
  H   H1538     1.0  0.33604  0.42128  0.52202  1.0000
  C   C1297     1.0  0.60490  0.29905  0.49263  1.0000
  C   C1298     1.0  0.58506  0.24260  0.51100  1.0000
  H   H1539     1.0  0.62980  0.25688  0.64656  1.0000
  H   H1540     1.0  0.34716  0.46896  0.57451  1.0000
  H   H1541     1.0  0.34735  0.39298  0.49213  1.0000
  H   H1542     1.0  0.46927  0.39189  0.58132  1.0000
  H   H1543     1.0  0.55337  0.26479  0.50254  1.0000
  C   C1299     1.0  0.45248  0.45730  0.68276  1.0000
  H   H1544     1.0  0.63569  0.26176  0.62144  1.0000
  C   C1300     1.0  0.37409  0.47764  0.56324  1.0000
  H   H1545     1.0  0.54926  0.27936  0.51905  1.0000
  C   C1301     1.0  0.49751  0.26020  0.59778  1.0000
  C   C1302     1.0  0.33912  0.45188  0.49495  1.0000
  H   H1546     1.0  0.46386  0.30277  0.62484  1.0000
  H   H1547     1.0  0.44863  0.47239  0.68101  1.0000
  H   H1548     1.0  0.41563  0.45996  0.65612  1.0000
  H   H1549     1.0  0.64622  0.29859  0.61594  1.0000
  S   S340      1.0  0.59644  0.23321  0.66721  1.0000
  H   H1550     1.0  0.43693  0.36075  0.61385  1.0000
  C   C1303     1.0  0.32715  0.43475  0.52528  1.0000
  C   C1304     1.0  0.38986  0.44563  0.52835  1.0000
  H   H1551     1.0  0.57183  0.27302  0.54024  1.0000
  C   C1305     1.0  0.50551  0.30880  0.58200  1.0000
  H   H1552     1.0  0.39549  0.44255  0.56650  1.0000
  C   C1306     1.0  0.38327  0.46044  0.51476  1.0000
  S   S341      1.0  0.32466  0.31491  0.58737  1.0000
  C   C1307     1.0  0.50412  0.35531  0.59308  1.0000
  C   C1308     1.0  0.36152  0.43412  0.53442  1.0000
  H   H1553     1.0  0.49694  0.38420  0.59543  1.0000
  H   H1554     1.0  0.34427  0.46451  0.48624  1.0000
  C   C1309     1.0  0.52942  0.25651  0.57983  1.0000
  C   C1310     1.0  0.45131  0.33212  0.62080  1.0000
  C   C1311     1.0  0.62932  0.29416  0.54525  1.0000
  H   H1555     1.0  0.53171  0.32957  0.56418  1.0000
  H   H1556     1.0  0.62324  0.28000  0.63373  1.0000
  C   C1312     1.0  0.51160  0.31404  0.60952  1.0000
  N   N88       1.0  0.46659  0.39721  0.68895  1.0000
  C   C1313     1.0  0.45665  0.39225  0.67719  1.0000
  C   C1314     1.0  0.48686  0.38937  0.68315  1.0000
  C   C1315     1.0  0.46046  0.38794  0.70878  1.0000
  C   C1316     1.0  0.46209  0.41781  0.68687  1.0000
  C   C1317     1.0  0.44403  0.42713  0.69482  1.0000
  C   C1318     1.0  0.47497  0.42926  0.67620  1.0000
  S   S342      1.0  0.34580  0.39563  0.58815  1.0000
  C   C1319     1.0  0.63464  0.26726  0.63399  1.0000
  H   H1557     1.0  0.36679  0.44588  0.59044  1.0000
  H   H1558     1.0  0.46159  0.39828  0.66215  1.0000
  H   H1559     1.0  0.45905  0.37685  0.67868  1.0000
  H   H1560     1.0  0.44129  0.39770  0.68070  1.0000
  H   H1561     1.0  0.49522  0.39331  0.69099  1.0000
  H   H1562     1.0  0.49215  0.39410  0.66787  1.0000
  H   H1563     1.0  0.48996  0.37382  0.68550  1.0000
  H   H1564     1.0  0.44501  0.39045  0.71338  1.0000
  H   H1565     1.0  0.46525  0.37246  0.71105  1.0000
  H   H1566     1.0  0.46602  0.39297  0.71835  1.0000
  H   H1567     1.0  0.43298  0.41965  0.70196  1.0000
  H   H1568     1.0  0.48871  0.42361  0.66883  1.0000
  C   C1320     1.0  0.39992  0.45284  0.57160  1.0000
  C   C1321     1.0  0.58446  0.27888  0.48279  1.0000
  H   H1569     1.0  0.53935  0.25408  0.56708  1.0000
  H   H1570     1.0  0.63973  0.29394  0.64893  1.0000
  H   H1571     1.0  0.51784  0.32210  0.61563  1.0000
  C   C1322     1.0  0.48350  0.34586  0.57944  1.0000
  Fe  Fe165     1.0  0.47160  0.24501  0.57937  1.0000
  H   H1572     1.0  0.64213  0.31646  0.57200  1.0000
  C   C1323     1.0  0.49328  0.37346  0.59088  1.0000
  C   C1324     1.0  0.40638  0.32940  0.58358  1.0000
  H   H1573     1.0  0.42556  0.29392  0.59112  1.0000
  C   C1325     1.0  0.35459  0.44880  0.52024  1.0000
  H   H1574     1.0  0.48002  0.45722  0.66576  1.0000
  H   H1575     1.0  0.64446  0.25495  0.55676  1.0000
  C   C1326     1.0  0.49971  0.34098  0.58722  1.0000
  H   H1576     1.0  0.49346  0.26577  0.62524  1.0000
  H   H1577     1.0  0.45008  0.32964  0.55705  1.0000
  C   C1327     1.0  0.43522  0.32566  0.59377  1.0000
  N   N89       1.0  0.42698  0.32285  0.57927  1.0000
  H   H1578     1.0  0.54036  0.30861  0.57997  1.0000
  H   H1579     1.0  0.51522  0.29494  0.58313  1.0000
  H   H1580     1.0  0.44610  0.29739  0.57301  1.0000
  H   H1581     1.0  0.51596  0.35259  0.59953  1.0000
  H   H1582     1.0  0.40777  0.44468  0.58268  1.0000
  H   H1583     1.0  0.42901  0.33181  0.54940  1.0000
  C   C1328     1.0  0.39018  0.47966  0.58613  1.0000
  C   C1329     1.0  0.40575  0.46175  0.66905  1.0000
  H   H1584     1.0  0.37908  0.43794  0.70630  1.0000
  H   H1585     1.0  0.49721  0.31383  0.61794  1.0000
  H   H1586     1.0  0.58297  0.24205  0.49716  1.0000
  H   H1587     1.0  0.51997  0.29951  0.61187  1.0000
  C   C1330     1.0  0.47769  0.37783  0.58297  1.0000
  H   H1588     1.0  0.49155  0.30615  0.58999  1.0000
  H   H1589     1.0  0.36007  0.41110  0.61094  1.0000
  S   S343      1.0  0.64979  0.23321  0.71892  1.0000
  C   C1331     1.0  0.38516  0.44944  0.69732  1.0000
  H   H1590     1.0  0.62118  0.24826  0.58532  1.0000
  H   H1591     1.0  0.35385  0.42349  0.54268  1.0000
  C   C1332     1.0  0.34569  0.23667  0.60872  1.0000
  C   C1333     1.0  0.47013  0.44871  0.67424  1.0000
  C   C1334     1.0  0.57832  0.25964  0.53542  1.0000
  C   C1335     1.0  0.35739  0.25637  0.55281  1.0000
  C   C1336     1.0  0.36936  0.25492  0.59475  1.0000
  H   H1592     1.0  0.52691  0.26500  0.62246  1.0000
  H   H1593     1.0  0.61314  0.30667  0.49637  1.0000
  H   H1594     1.0  0.34916  0.43938  0.49056  1.0000
  H   H1595     1.0  0.62656  0.25555  0.48287  1.0000
  Fe  Fe166     1.0  0.33268  0.34171  0.56878  1.0000
  H   H1596     1.0  0.39167  0.47072  0.50721  1.0000
  S   S344      1.0  0.47383  0.26078  0.59969  1.0000
  H   H1597     1.0  0.60042  0.23928  0.51003  1.0000
  C   C1337     1.0  0.40121  0.47901  0.67455  1.0000
  H   H1598     1.0  0.32907  0.48069  0.51245  1.0000
  C   C1338     1.0  0.35540  0.47742  0.56331  1.0000
  H   H1599     1.0  0.32578  0.45281  0.49097  1.0000
  C   C1339     1.0  0.64985  0.28024  0.65023  1.0000
  S   S345      1.0  0.51878  0.23565  0.52316  1.0000
  C   C1340     1.0  0.64937  0.24711  0.56933  1.0000
  H   H1600     1.0  0.65182  0.30827  0.54059  1.0000
  C   C1341     1.0  0.64128  0.23334  0.60232  1.0000
  H   H1601     1.0  0.65248  0.24078  0.66292  1.0000
  C   C1342     1.0  0.33145  0.24067  0.56562  1.0000
  N   N90       1.0  0.65260  0.27148  0.63404  1.0000
  C   C1343     1.0  0.38848  0.48168  0.69134  1.0000
  C   C1344     1.0  0.43873  0.48063  0.54576  1.0000
  H   H1602     1.0  0.55401  0.23299  0.49799  1.0000
  C   C1345     1.0  0.32356  0.46795  0.52022  1.0000
  Fe  Fe167     1.0  0.49092  0.23287  0.54263  1.0000
  C   C1346     1.0  0.32614  0.27427  0.56177  1.0000
  H   H1603     1.0  0.32357  0.43347  0.54075  1.0000
  C   C1347     1.0  0.33877  0.71785  0.00054  1.0000
  H   H1604     1.0  0.61712  0.71209  0.10338  1.0000
  C   C1348     1.0  0.43758  0.51048  0.39927  1.0000
  H   H1605     1.0  0.33110  0.54409  0.45919  1.0000
  Fe  Fe168     1.0  0.62620  0.66547  0.10892  1.0000
  S   S346      1.0  0.59884  0.68279  0.10174  1.0000
  C   C1349     1.0  0.33828  0.53143  0.32048  1.0000
  N   N91       1.0  0.56427  0.67114  0.98181  1.0000
  C   C1350     1.0  0.32533  0.64178  0.14323  1.0000
  C   C1351     1.0  0.40241  0.51055  0.35525  1.0000
  H   H1606     1.0  0.46928  0.54202  0.47481  1.0000
  C   C1352     1.0  0.60389  0.51236  0.41230  1.0000
  C   C1353     1.0  0.46149  0.51582  0.36416  1.0000
  H   H1607     1.0  0.51505  0.50657  0.22664  1.0000
  S   S347      1.0  0.64264  0.62833  0.32212  1.0000
  H   H1608     1.0  0.41199  0.61734  0.22325  1.0000
  C   C1354     1.0  0.63458  0.71686  0.05550  1.0000
  C   C1355     1.0  0.40541  0.55154  0.43082  1.0000
  S   S348      1.0  0.52156  0.71394  0.02306  1.0000
  H   H1609     1.0  0.40082  0.59761  0.19833  1.0000
  H   H1610     1.0  0.60747  0.66778  0.03992  1.0000
  C   C1356     1.0  0.42589  0.53992  0.19857  1.0000
  H   H1611     1.0  0.45602  0.52003  0.40938  1.0000
  H   H1612     1.0  0.40509  0.57478  0.21224  1.0000
  Fe  Fe169     1.0  0.55168  0.71499  0.01982  1.0000
  S   S349      1.0  0.57501  0.68999  0.02538  1.0000
  Fe  Fe170     1.0  0.65307  0.66638  0.25499  1.0000
  C   C1357     1.0  0.61196  0.71946  0.02818  1.0000
  H   H1613     1.0  0.53155  0.52419  0.26771  1.0000
  C   C1358     1.0  0.32256  0.57412  0.13648  1.0000
  C   C1359     1.0  0.52308  0.53931  0.44987  1.0000
  H   H1614     1.0  0.45003  0.53711  0.17612  1.0000
  C   C1360     1.0  0.53066  0.51294  0.26182  1.0000
  Fe  Fe171     1.0  0.35457  0.50544  0.40939  1.0000
  S   S350      1.0  0.37917  0.51523  0.38871  1.0000
  H   H1615     1.0  0.35215  0.52554  0.36135  1.0000
  Fe  Fe172     1.0  0.56078  0.55223  0.37527  1.0000
  S   S351      1.0  0.57257  0.55653  0.34430  1.0000
  S   S352      1.0  0.57477  0.53666  0.39925  1.0000
  Fe  Fe173     1.0  0.52120  0.57206  0.37114  1.0000
  S   S353      1.0  0.52968  0.57871  0.33973  1.0000
  S   S354      1.0  0.49035  0.57614  0.38463  1.0000
  Fe  Fe174     1.0  0.54623  0.54940  0.34254  1.0000
  S   S355      1.0  0.54531  0.52870  0.32635  1.0000
  Fe  Fe175     1.0  0.55520  0.58566  0.34376  1.0000
  S   S356      1.0  0.56518  0.61069  0.32352  1.0000
  S   S357      1.0  0.53631  0.54217  0.37358  1.0000
  S   S358      1.0  0.54504  0.58194  0.37510  1.0000
  S   S359      1.0  0.37105  0.59322  0.16795  1.0000
  C   C1361     1.0  0.33723  0.63437  0.10416  1.0000
  S   S360      1.0  0.44047  0.51115  0.28748  1.0000
  H   H1616     1.0  0.61727  0.66494  0.06966  1.0000
  H   H1617     1.0  0.57130  0.64238  0.19397  1.0000
  C   C1362     1.0  0.43167  0.52423  0.22987  1.0000
  Fe  Fe176     1.0  0.46379  0.51139  0.30039  1.0000
  S   S361      1.0  0.46634  0.53666  0.30897  1.0000
  H   H1618     1.0  0.33549  0.66531  0.21136  1.0000
  H   H1619     1.0  0.32436  0.65742  0.24415  1.0000
  S   S362      1.0  0.35954  0.55214  0.18407  1.0000
  C   C1363     1.0  0.34277  0.54291  0.46540  1.0000
  C   C1364     1.0  0.57526  0.48919  0.38163  1.0000
  H   H1620     1.0  0.43558  0.61557  0.21007  1.0000
  H   H1621     1.0  0.62693  0.70571  0.06096  1.0000
  Fe  Fe177     1.0  0.37725  0.71666  0.19727  1.0000
  S   S363      1.0  0.39364  0.68809  0.19237  1.0000
  H   H1622     1.0  0.32429  0.55104  0.28783  1.0000
  Fe  Fe178     1.0  0.33628  0.50385  0.45071  1.0000
  S   S364      1.0  0.35167  0.72167  0.21985  1.0000
  H   H1623     1.0  0.33270  0.69025  0.00857  1.0000
  Fe  Fe179     1.0  0.35283  0.60184  0.19402  1.0000
  C   C1365     1.0  0.53691  0.52313  0.44907  1.0000
  S   S365      1.0  0.65287  0.66040  0.08762  1.0000
  H   H1624     1.0  0.40787  0.52199  0.35616  1.0000
  H   H1625     1.0  0.44395  0.57090  0.34891  1.0000
  S   S366      1.0  0.34215  0.50563  0.47770  1.0000
  H   H1626     1.0  0.44218  0.50614  0.35464  1.0000
  N   N92       1.0  0.48358  0.52674  0.37645  1.0000
  C   C1366     1.0  0.38001  0.67165  0.19497  1.0000
  C   C1367     1.0  0.36112  0.67506  0.20352  1.0000
  C   C1368     1.0  0.35021  0.66220  0.20520  1.0000
  C   C1369     1.0  0.35805  0.64575  0.19842  1.0000
  C   C1370     1.0  0.37705  0.64206  0.19003  1.0000
  C   C1371     1.0  0.38802  0.65504  0.18831  1.0000
  H   H1627     1.0  0.35484  0.68768  0.20877  1.0000
  H   H1628     1.0  0.37456  0.55022  0.40617  1.0000
  H   H1629     1.0  0.38314  0.62950  0.18453  1.0000
  H   H1630     1.0  0.40261  0.65246  0.18149  1.0000
  C   C1372     1.0  0.45372  0.51712  0.39706  1.0000
  C   C1373     1.0  0.53600  0.49444  0.27081  1.0000
  H   H1631     1.0  0.63866  0.53951  0.35822  1.0000
  C   C1374     1.0  0.59631  0.52069  0.39640  1.0000
  C   C1375     1.0  0.60546  0.51540  0.37929  1.0000
  C   C1376     1.0  0.62186  0.50123  0.37839  1.0000
  H   H1632     1.0  0.47823  0.54535  0.35051  1.0000
  H   H1633     1.0  0.59966  0.52190  0.36697  1.0000
  H   H1634     1.0  0.54569  0.49441  0.46203  1.0000
  H   H1635     1.0  0.56653  0.64191  0.98212  1.0000
  C   C1377     1.0  0.52404  0.53153  0.31974  1.0000
  C   C1378     1.0  0.51126  0.54865  0.31864  1.0000
  C   C1379     1.0  0.49388  0.55034  0.31448  1.0000
  C   C1380     1.0  0.48903  0.53482  0.31179  1.0000
  C   C1381     1.0  0.50199  0.51778  0.31241  1.0000
  C   C1382     1.0  0.51954  0.51621  0.31619  1.0000
  H   H1636     1.0  0.51474  0.56065  0.32090  1.0000
  H   H1637     1.0  0.48400  0.56360  0.31381  1.0000
  H   H1638     1.0  0.49837  0.50569  0.31040  1.0000
  H   H1639     1.0  0.52936  0.50292  0.31694  1.0000
  C   C1383     1.0  0.38754  0.50482  0.36911  1.0000
  C   C1384     1.0  0.52351  0.51694  0.24572  1.0000
  C   C1385     1.0  0.53480  0.50693  0.46267  1.0000
  C   C1386     1.0  0.46631  0.51984  0.37938  1.0000
  C   C1387     1.0  0.34415  0.66487  0.13344  1.0000
  H   H1640     1.0  0.33204  0.62431  0.08232  1.0000
  H   H1641     1.0  0.54259  0.65976  0.00317  1.0000
  C   C1388     1.0  0.46943  0.58049  0.44628  1.0000
  C   C1389     1.0  0.48749  0.58295  0.43691  1.0000
  C   C1390     1.0  0.49425  0.58123  0.41812  1.0000
  C   C1391     1.0  0.48276  0.57756  0.40843  1.0000
  C   C1392     1.0  0.46463  0.57526  0.41772  1.0000
  C   C1393     1.0  0.45803  0.57657  0.43663  1.0000
  H   H1642     1.0  0.49632  0.58618  0.44422  1.0000
  H   H1643     1.0  0.50818  0.58320  0.41101  1.0000
  H   H1644     1.0  0.45566  0.57259  0.41023  1.0000
  H   H1645     1.0  0.44400  0.57496  0.44362  1.0000
  H   H1646     1.0  0.49919  0.51316  0.35347  1.0000
  S   S367      1.0  0.42391  0.55285  0.47786  1.0000
  H   H1647     1.0  0.35707  0.61880  0.13231  1.0000
  H   H1648     1.0  0.62868  0.49677  0.36536  1.0000
  S   S368      1.0  0.35794  0.48370  0.43537  1.0000
  H   H1649     1.0  0.33417  0.68692  0.17728  1.0000
  Fe  Fe180     1.0  0.46278  0.49647  0.26711  1.0000
  H   H1650     1.0  0.32717  0.72247  0.01126  1.0000
  H   H1651     1.0  0.34297  0.57232  0.45677  1.0000
  C   C1394     1.0  0.45692  0.52255  0.20269  1.0000
  N   N93       1.0  0.42334  0.59190  0.21292  1.0000
  H   H1652     1.0  0.45533  0.59103  0.22386  1.0000
  H   H1653     1.0  0.47142  0.51768  0.19653  1.0000
  C   C1395     1.0  0.63573  0.72891  0.10406  1.0000
  H   H1654     1.0  0.54385  0.68290  0.00362  1.0000
  C   C1396     1.0  0.40489  0.58959  0.21177  1.0000
  S   S369      1.0  0.33504  0.52653  0.42508  1.0000
  S   S370      1.0  0.46172  0.58196  0.47012  1.0000
  H   H1655     1.0  0.46525  0.72671  0.12729  1.0000
  C   C1397     1.0  0.45257  0.57221  0.25031  1.0000
  H   H1656     1.0  0.43966  0.57012  0.19847  1.0000
  H   H1657     1.0  0.33625  0.71299  0.18999  1.0000
  Fe  Fe181     1.0  0.34800  0.58004  0.16719  1.0000
  H   H1658     1.0  0.51323  0.51822  0.36595  1.0000
  C   C1398     1.0  0.49992  0.51375  0.36776  1.0000
  C   C1399     1.0  0.58622  0.61584  0.32434  1.0000
  C   C1400     1.0  0.59760  0.60429  0.33652  1.0000
  C   C1401     1.0  0.61471  0.60846  0.33612  1.0000
  C   C1402     1.0  0.62073  0.62385  0.32320  1.0000
  C   C1403     1.0  0.60932  0.63541  0.31112  1.0000
  C   C1404     1.0  0.59198  0.63161  0.31194  1.0000
  H   H1659     1.0  0.59315  0.59224  0.34629  1.0000
  H   H1660     1.0  0.62332  0.59968  0.34575  1.0000
  H   H1661     1.0  0.61366  0.64757  0.30148  1.0000
  H   H1662     1.0  0.58299  0.64085  0.30287  1.0000
  H   H1663     1.0  0.34484  0.52984  0.30630  1.0000
  C   C1405     1.0  0.42199  0.55660  0.36492  1.0000
  H   H1664     1.0  0.42661  0.52058  0.24485  1.0000
  C   C1406     1.0  0.59222  0.68320  0.08096  1.0000
  C   C1407     1.0  0.57485  0.69409  0.07787  1.0000
  C   C1408     1.0  0.56931  0.69568  0.06115  1.0000
  C   C1409     1.0  0.58114  0.68653  0.04723  1.0000
  C   C1410     1.0  0.59830  0.67510  0.05052  1.0000
  C   C1411     1.0  0.60391  0.67353  0.06731  1.0000
  H   H1665     1.0  0.56560  0.70134  0.08850  1.0000
  H   H1666     1.0  0.55569  0.70371  0.05926  1.0000
  H   H1667     1.0  0.47005  0.51799  0.35015  1.0000
  N   N94       1.0  0.39524  0.55871  0.41522  1.0000
  C   C1412     1.0  0.33397  0.63625  0.08637  1.0000
  H   H1668     1.0  0.32295  0.52666  0.29252  1.0000
  C   C1413     1.0  0.35081  0.52557  0.47522  1.0000
  H   H1669     1.0  0.50054  0.53381  0.39131  1.0000
  S   S371      1.0  0.32916  0.59068  0.19197  1.0000
  H   H1670     1.0  0.36511  0.52240  0.32844  1.0000
  H   H1671     1.0  0.56413  0.50101  0.37848  1.0000
  C   C1414     1.0  0.33907  0.64986  0.11024  1.0000
  C   C1415     1.0  0.32380  0.53449  0.35784  1.0000
  C   C1416     1.0  0.45059  0.51785  0.22210  1.0000
  C   C1417     1.0  0.43403  0.57661  0.37670  1.0000
  C   C1418     1.0  0.42145  0.57335  0.39384  1.0000
  S   S372      1.0  0.63104  0.63637  0.12669  1.0000
  C   C1419     1.0  0.44643  0.58240  0.23395  1.0000
  H   H1672     1.0  0.33160  0.67632  0.13216  1.0000
  H   H1673     1.0  0.48905  0.51511  0.40425  1.0000
  C   C1420     1.0  0.52162  0.50246  0.23854  1.0000
  H   H1674     1.0  0.57608  0.51528  0.34852  1.0000
  H   H1675     1.0  0.43261  0.59193  0.18328  1.0000
  C   C1421     1.0  0.41881  0.56909  0.24449  1.0000
  C   C1422     1.0  0.42512  0.55895  0.26077  1.0000
  H   H1676     1.0  0.61314  0.70603  0.03853  1.0000
  C   C1423     1.0  0.33767  0.66732  0.09725  1.0000
  C   C1424     1.0  0.44541  0.50912  0.36655  1.0000
  C   C1425     1.0  0.58648  0.50534  0.34050  1.0000
  H   H1677     1.0  0.39216  0.53122  0.41504  1.0000
  C   C1426     1.0  0.65152  0.53972  0.34768  1.0000
  S   S373      1.0  0.64577  0.63599  0.17283  1.0000
  C   C1427     1.0  0.62029  0.49860  0.41134  1.0000
  C   C1428     1.0  0.36440  0.55743  0.47231  1.0000
  H   H1678     1.0  0.37506  0.58302  0.40600  1.0000
  C   C1429     1.0  0.48746  0.52867  0.39402  1.0000
  Fe  Fe182     1.0  0.38091  0.56620  0.18738  1.0000
  H   H1679     1.0  0.32757  0.70914  0.26083  1.0000
  Fe  Fe183     1.0  0.34217  0.56398  0.20897  1.0000
  H   H1680     1.0  0.42240  0.50534  0.33005  1.0000
  H   H1681     1.0  0.47640  0.53931  0.40065  1.0000
  C   C1430     1.0  0.43727  0.58555  0.19677  1.0000
  H   H1682     1.0  0.36170  0.63171  0.14650  1.0000
  C   C1431     1.0  0.44193  0.56053  0.26370  1.0000
  Fe  Fe184     1.0  0.64523  0.64788  0.14232  1.0000
  S   S374      1.0  0.63788  0.67736  0.12662  1.0000
  H   H1683     1.0  0.42817  0.50842  0.41283  1.0000
  C   C1432     1.0  0.64035  0.67111  0.21530  1.0000
  H   H1684     1.0  0.56947  0.49216  0.41027  1.0000
  H   H1685     1.0  0.54090  0.49135  0.28374  1.0000
  H   H1686     1.0  0.40583  0.56691  0.24306  1.0000
  H   H1687     1.0  0.32651  0.64060  0.15789  1.0000
  C   C1433     1.0  0.65312  0.64261  0.20339  1.0000
  H   H1688     1.0  0.41238  0.56198  0.43252  1.0000
  C   C1434     1.0  0.33240  0.65359  0.07409  1.0000
  H   H1689     1.0  0.44361  0.58574  0.37458  1.0000
  C   C1435     1.0  0.34294  0.52877  0.35165  1.0000
  H   H1690     1.0  0.41704  0.54959  0.27111  1.0000
  H   H1691     1.0  0.33789  0.62072  0.11328  1.0000
  S   S375      1.0  0.63593  0.68301  0.23364  1.0000
  S   S376      1.0  0.46722  0.50387  0.23547  1.0000
  H   H1692     1.0  0.39359  0.59452  0.22327  1.0000
  H   H1693     1.0  0.46574  0.57320  0.25263  1.0000
  H   H1694     1.0  0.51878  0.53136  0.23911  1.0000
  C   C1436     1.0  0.63248  0.67930  0.19945  1.0000
  S   S377      1.0  0.48611  0.49921  0.27855  1.0000
  H   H1695     1.0  0.39581  0.54803  0.44456  1.0000
  C   C1437     1.0  0.32299  0.71221  0.18791  1.0000
  C   C1438     1.0  0.43345  0.50650  0.38406  1.0000
  C   C1439     1.0  0.34181  0.69918  0.99917  1.0000
  H   H1696     1.0  0.62438  0.71808  0.01647  1.0000
  C   C1440     1.0  0.50713  0.53936  0.46426  1.0000
  H   H1697     1.0  0.58555  0.64651  0.98824  1.0000
  H   H1698     1.0  0.50107  0.49929  0.37638  1.0000
  H   H1699     1.0  0.59603  0.72329  0.06378  1.0000
  C   C1441     1.0  0.57777  0.68263  0.98075  1.0000
  H   H1700     1.0  0.49687  0.55228  0.46438  1.0000
  C   C1442     1.0  0.40351  0.48643  0.33914  1.0000
  C   C1443     1.0  0.41927  0.53519  0.21807  1.0000
  H   H1701     1.0  0.57061  0.69615  0.98500  1.0000
  H   H1702     1.0  0.39001  0.58726  0.41861  1.0000
  C   C1444     1.0  0.35017  0.52713  0.33306  1.0000
  C   C1445     1.0  0.40870  0.56155  0.39706  1.0000
  H   H1703     1.0  0.58474  0.51035  0.32571  1.0000
  N   N95       1.0  0.60119  0.62770  0.25500  1.0000
  C   C1446     1.0  0.60201  0.64549  0.25913  1.0000
  C   C1447     1.0  0.59091  0.61693  0.27223  1.0000
  C   C1448     1.0  0.62049  0.61651  0.25083  1.0000
  C   C1449     1.0  0.59250  0.63187  0.23859  1.0000
  C   C1450     1.0  0.57504  0.62760  0.23971  1.0000
  C   C1451     1.0  0.60150  0.64067  0.22075  1.0000
  C   C1452     1.0  0.56754  0.63140  0.22375  1.0000
  C   C1453     1.0  0.59400  0.64425  0.20486  1.0000
  C   C1454     1.0  0.57707  0.63957  0.20634  1.0000
  H   H1704     1.0  0.58782  0.65445  0.26212  1.0000
  H   H1705     1.0  0.60830  0.64301  0.27150  1.0000
  H   H1706     1.0  0.61061  0.65384  0.24729  1.0000
  H   H1707     1.0  0.57682  0.62514  0.27745  1.0000
  H   H1708     1.0  0.59831  0.61306  0.28402  1.0000
  H   H1709     1.0  0.58938  0.60356  0.26994  1.0000
  H   H1710     1.0  0.62997  0.62447  0.23968  1.0000
  H   H1711     1.0  0.62700  0.61208  0.26331  1.0000
  H   H1712     1.0  0.62062  0.60371  0.24619  1.0000
  H   H1713     1.0  0.56688  0.62136  0.25275  1.0000
  H   H1714     1.0  0.61445  0.64489  0.21893  1.0000
  H   H1715     1.0  0.55426  0.62796  0.22487  1.0000
  H   H1716     1.0  0.60145  0.65063  0.19132  1.0000
  H   H1717     1.0  0.64344  0.71772  0.28042  1.0000
  H   H1718     1.0  0.60062  0.50664  0.34092  1.0000
  S   S378      1.0  0.41215  0.55505  0.18272  1.0000
  H   H1719     1.0  0.33530  0.57496  0.24584  1.0000
  S   S379      1.0  0.33512  0.58820  0.14151  1.0000
  C   C1455     1.0  0.48199  0.54536  0.36368  1.0000
  H   H1720     1.0  0.54933  0.52325  0.43792  1.0000
  H   H1721     1.0  0.34593  0.66269  0.14811  1.0000
  C   C1456     1.0  0.56476  0.48490  0.34790  1.0000
  H   H1722     1.0  0.41697  0.62059  0.19818  1.0000
  C   C1457     1.0  0.40931  0.55326  0.38201  1.0000
  C   C1458     1.0  0.41056  0.50121  0.34041  1.0000
  C   C1459     1.0  0.42197  0.61217  0.21106  1.0000
  C   C1460     1.0  0.34944  0.55887  0.46410  1.0000
  H   H1723     1.0  0.37112  0.63601  0.12164  1.0000
  C   C1461     1.0  0.55239  0.66911  0.00094  1.0000
  C   C1462     1.0  0.38352  0.54525  0.41677  1.0000
  H   H1724     1.0  0.59695  0.51646  0.42551  1.0000
  C   C1463     1.0  0.38252  0.57684  0.41776  1.0000
  N   N96       1.0  0.34178  0.64756  0.12946  1.0000
  C   C1464     1.0  0.50442  0.52313  0.47829  1.0000
  N   N97       1.0  0.58399  0.48582  0.34804  1.0000
  H   H1725     1.0  0.46793  0.72841  0.00162  1.0000
  H   H1726     1.0  0.40011  0.54420  0.38299  1.0000
  C   C1465     1.0  0.42931  0.58122  0.23055  1.0000
  S   S380      1.0  0.36419  0.57599  0.21354  1.0000
  H   H1727     1.0  0.45103  0.58896  0.19514  1.0000
  H   H1728     1.0  0.32920  0.65511  0.06057  1.0000
  C   C1466     1.0  0.43427  0.56828  0.36225  1.0000
  H   H1729     1.0  0.42225  0.55016  0.35361  1.0000
  C   C1467     1.0  0.35864  0.63290  0.13257  1.0000
  C   C1468     1.0  0.44475  0.53353  0.19109  1.0000
  H   H1730     1.0  0.49532  0.55038  0.35971  1.0000
  S   S381      1.0  0.34323  0.63071  0.20033  1.0000
  H   H1731     1.0  0.42163  0.58037  0.40450  1.0000
  H   H1732     1.0  0.41617  0.53870  0.42867  1.0000
  H   H1733     1.0  0.47113  0.55602  0.37037  1.0000
  H   H1734     1.0  0.55396  0.49490  0.35554  1.0000
  H   H1735     1.0  0.40471  0.53999  0.22403  1.0000
  H   H1736     1.0  0.37379  0.54316  0.43070  1.0000
  H   H1737     1.0  0.44683  0.55254  0.27630  1.0000
  H   H1738     1.0  0.35664  0.66972  0.12394  1.0000
  H   H1739     1.0  0.62416  0.69338  0.19811  1.0000
  C   C1469     1.0  0.62918  0.49276  0.39455  1.0000
  H   H1740     1.0  0.52476  0.55193  0.43928  1.0000
  H   H1741     1.0  0.37181  0.57527  0.43101  1.0000
  C   C1470     1.0  0.64500  0.65055  0.18776  1.0000
  H   H1742     1.0  0.36829  0.48637  0.37791  1.0000
  C   C1471     1.0  0.63499  0.66910  0.18554  1.0000
  C   C1472     1.0  0.51880  0.50681  0.47709  1.0000
  H   H1743     1.0  0.62851  0.67526  0.17358  1.0000
  H   H1744     1.0  0.56092  0.66328  0.01192  1.0000
  S   S382      1.0  0.33208  0.49485  0.40379  1.0000
  S   S383      1.0  0.37328  0.57730  0.46981  1.0000
  H   H1745     1.0  0.50084  0.70238  0.98799  1.0000
  H   H1746     1.0  0.64598  0.71660  0.10825  1.0000
  H   H1747     1.0  0.33869  0.67995  0.10058  1.0000
  S   S384      1.0  0.32174  0.55030  0.23201  1.0000
  H   H1748     1.0  0.32895  0.55038  0.15847  1.0000
  H   H1749     1.0  0.64600  0.56940  0.33996  1.0000
  S   S385      1.0  0.65089  0.63682  0.26882  1.0000
  H   H1750     1.0  0.33664  0.72781  0.13081  1.0000
  C   C1473     1.0  0.57814  0.48416  0.39996  1.0000
  C   C1474     1.0  0.33431  0.66907  0.07949  1.0000
  H   H1751     1.0  0.58737  0.67562  0.99061  1.0000
  H   H1752     1.0  0.56226  0.48861  0.33337  1.0000
  H   H1753     1.0  0.32298  0.69013  0.24347  1.0000
  H   H1754     1.0  0.62592  0.49222  0.42381  1.0000
  C   C1475     1.0  0.61937  0.72615  0.10103  1.0000
  H   H1755     1.0  0.47166  0.51754  0.47627  1.0000
  C   C1476     1.0  0.37995  0.49061  0.36741  1.0000
  H   H1756     1.0  0.59934  0.72076  0.02266  1.0000
  C   C1477     1.0  0.32180  0.69737  0.18087  1.0000
  C   C1478     1.0  0.65140  0.71415  0.06107  1.0000
  C   C1479     1.0  0.32169  0.55610  0.14702  1.0000
  H   H1757     1.0  0.32361  0.62795  0.14236  1.0000
  H   H1758     1.0  0.64841  0.58986  0.31169  1.0000
  H   H1759     1.0  0.33267  0.68261  0.07003  1.0000
  H   H1760     1.0  0.42083  0.50157  0.38579  1.0000
  S   S386      1.0  0.46281  0.48392  0.32039  1.0000
  C   C1480     1.0  0.35639  0.69200  0.98568  1.0000
  C   C1481     1.0  0.65108  0.65292  0.21693  1.0000
  H   H1761     1.0  0.35863  0.67757  0.98455  1.0000
  C   C1482     1.0  0.57533  0.65241  0.97890  1.0000
  C   C1483     1.0  0.35042  0.72992  0.98827  1.0000
  H   H1762     1.0  0.65086  0.71221  0.24888  1.0000
  Fe  Fe185     1.0  0.44143  0.48238  0.30562  1.0000
  H   H1763     1.0  0.50938  0.48333  0.21854  1.0000
  C   C1484     1.0  0.52727  0.48338  0.24717  1.0000
  H   H1764     1.0  0.46331  0.73174  0.02520  1.0000
  Fe  Fe186     1.0  0.41200  0.73056  0.91973  1.0000
  S   S387      1.0  0.34525  0.64988  0.62251  1.0000
  C   C1485     1.0  0.33867  0.70324  0.66057  1.0000
  H   H1765     1.0  0.34849  0.66571  0.53259  1.0000
  C   C1486     1.0  0.49437  0.70835  0.97601  1.0000
  C   C1487     1.0  0.32368  0.59286  0.69265  1.0000
  Fe  Fe187     1.0  0.34120  0.66723  0.59425  1.0000
  S   S388      1.0  0.36416  0.66468  0.56843  1.0000
  H   H1766     1.0  0.51918  0.70070  0.93206  1.0000
  C   C1488     1.0  0.37464  0.50007  0.53304  1.0000
  C   C1489     1.0  0.47794  0.72334  0.94460  1.0000
  H   H1767     1.0  0.35511  0.68932  0.73417  1.0000
  Fe  Fe188     1.0  0.33803  0.62164  0.83153  1.0000
  Fe  Fe189     1.0  0.35575  0.64229  0.79430  1.0000
  S   S389      1.0  0.38457  0.62918  0.79872  1.0000
  C   C1490     1.0  0.55093  0.69816  0.95753  1.0000
  N   N98       1.0  0.48718  0.52365  0.49315  1.0000
  S   S390      1.0  0.36557  0.60655  0.83951  1.0000
  H   H1768     1.0  0.32649  0.65358  0.74021  1.0000
  Fe  Fe190     1.0  0.37387  0.63464  0.82807  1.0000
  S   S391      1.0  0.39570  0.64531  0.83618  1.0000
  Fe  Fe191     1.0  0.37420  0.60256  0.80978  1.0000
  S   S392      1.0  0.39077  0.57682  0.79882  1.0000
  C   C1491     1.0  0.36809  0.70341  0.97355  1.0000
  S   S393      1.0  0.34630  0.61536  0.80286  1.0000
  Fe  Fe192     1.0  0.33427  0.55278  0.72161  1.0000
  S   S394      1.0  0.36073  0.53776  0.73105  1.0000
  H   H1769     1.0  0.58327  0.65314  0.96415  1.0000
  H   H1770     1.0  0.42800  0.70713  0.85644  1.0000
  C   C1492     1.0  0.52898  0.67655  0.95211  1.0000
  Fe  Fe193     1.0  0.34213  0.52537  0.75695  1.0000
  S   S395      1.0  0.34024  0.52844  0.78631  1.0000
  H   H1771     1.0  0.40140  0.55162  0.63282  1.0000
  H   H1772     1.0  0.39291  0.60470  0.61850  1.0000
  Fe  Fe194     1.0  0.41822  0.69255  0.90903  1.0000
  C   C1493     1.0  0.33444  0.62710  0.52992  1.0000
  S   S396      1.0  0.40029  0.67320  0.90744  1.0000
  Fe  Fe195     1.0  0.44719  0.70193  0.92576  1.0000
  H   H1773     1.0  0.40016  0.56899  0.60215  1.0000
  S   S397      1.0  0.46618  0.69088  0.94701  1.0000
  H   H1774     1.0  0.39376  0.52371  0.65550  1.0000
  C   C1494     1.0  0.37252  0.56677  0.63332  1.0000
  H   H1775     1.0  0.41333  0.55739  0.84953  1.0000
  H   H1776     1.0  0.34196  0.57545  0.63768  1.0000
  S   S398      1.0  0.41664  0.70107  0.93603  1.0000
  S   S399      1.0  0.44934  0.69053  0.90015  1.0000
  Fe  Fe196     1.0  0.40360  0.57595  0.52153  1.0000
  S   S400      1.0  0.43278  0.55866  0.51628  1.0000
  S   S401      1.0  0.38754  0.58411  0.54904  1.0000
  H   H1777     1.0  0.38356  0.59336  0.64193  1.0000
  H   H1778     1.0  0.42797  0.60990  0.85858  1.0000
  Fe  Fe197     1.0  0.42024  0.53905  0.50830  1.0000
  S   S402      1.0  0.42896  0.50771  0.51595  1.0000
  H   H1779     1.0  0.33300  0.55427  0.81033  1.0000
  S   S403      1.0  0.39097  0.55488  0.51588  1.0000
  C   C1495     1.0  0.43266  0.49977  0.53893  1.0000
  C   C1496     1.0  0.42912  0.51236  0.55063  1.0000
  C   C1497     1.0  0.43184  0.50588  0.56905  1.0000
  H   H1780     1.0  0.38275  0.60911  0.90601  1.0000
  H   H1781     1.0  0.37195  0.58582  0.89621  1.0000
  H   H1782     1.0  0.42405  0.52709  0.54564  1.0000
  H   H1783     1.0  0.42904  0.51568  0.57808  1.0000
  C   C1498     1.0  0.39054  0.60372  0.89361  1.0000
  H   H1784     1.0  0.32186  0.63233  0.65862  1.0000
  C   C1499     1.0  0.47675  0.70516  0.95450  1.0000
  C   C1500     1.0  0.32186  0.65897  0.54649  1.0000
  C   C1501     1.0  0.38994  0.59112  0.62742  1.0000
  N   N99       1.0  0.42082  0.58434  0.84288  1.0000
  H   H1785     1.0  0.47332  0.50672  0.51799  1.0000
  C   C1502     1.0  0.35379  0.56469  0.64112  1.0000
  C   C1503     1.0  0.34578  0.64033  0.52668  1.0000
  H   H1786     1.0  0.39083  0.59234  0.59131  1.0000
  H   H1787     1.0  0.53818  0.72003  0.93717  1.0000
  S   S404      1.0  0.41091  0.72220  0.89389  1.0000
  H   H1788     1.0  0.48315  0.55269  0.49464  1.0000
  H   H1789     1.0  0.40244  0.69024  0.82772  1.0000
  H   H1790     1.0  0.40373  0.58145  0.62766  1.0000
  C   C1504     1.0  0.36524  0.72204  0.97482  1.0000
  C   C1505     1.0  0.48655  0.50576  0.50710  1.0000
  H   H1791     1.0  0.35976  0.63875  0.51822  1.0000
  C   C1506     1.0  0.39628  0.65334  0.85609  1.0000
  C   C1507     1.0  0.41268  0.65838  0.85655  1.0000
  C   C1508     1.0  0.41401  0.66477  0.87198  1.0000
  C   C1509     1.0  0.39896  0.66607  0.88728  1.0000
  C   C1510     1.0  0.38263  0.66080  0.88694  1.0000
  C   C1511     1.0  0.38122  0.65463  0.87139  1.0000
  H   H1792     1.0  0.42452  0.65722  0.84492  1.0000
  H   H1793     1.0  0.42681  0.66831  0.87225  1.0000
  H   H1794     1.0  0.37097  0.66153  0.89878  1.0000
  H   H1795     1.0  0.36855  0.65068  0.87134  1.0000
  C   C1512     1.0  0.37660  0.56360  0.79515  1.0000
  C   C1513     1.0  0.35812  0.56462  0.80507  1.0000
  C   C1514     1.0  0.34706  0.55386  0.80216  1.0000
  C   C1515     1.0  0.35418  0.54248  0.78891  1.0000
  C   C1516     1.0  0.37252  0.54180  0.77863  1.0000
  C   C1517     1.0  0.38382  0.55205  0.78203  1.0000
  H   H1796     1.0  0.35248  0.57326  0.81542  1.0000
  C   C1518     1.0  0.43770  0.48675  0.57599  1.0000
  H   H1797     1.0  0.37822  0.53280  0.76861  1.0000
  H   H1798     1.0  0.39817  0.55099  0.77447  1.0000
  H   H1799     1.0  0.34934  0.50836  0.52250  1.0000
  Fe  Fe198     1.0  0.32878  0.67558  0.63364  1.0000
  H   H1800     1.0  0.44128  0.56392  0.85654  1.0000
  C   C1519     1.0  0.34247  0.72296  0.67962  1.0000
  C   C1520     1.0  0.39269  0.71389  0.85298  1.0000
  C   C1521     1.0  0.40327  0.70252  0.81661  1.0000
  C   C1522     1.0  0.34045  0.59322  0.53659  1.0000
  S   S405      1.0  0.34534  0.65005  0.82251  1.0000
  C   C1523     1.0  0.36256  0.71677  0.75931  1.0000
  C   C1524     1.0  0.36040  0.71123  0.74392  1.0000
  C   C1525     1.0  0.35726  0.69339  0.74597  1.0000
  C   C1526     1.0  0.35678  0.68095  0.76330  1.0000
  C   C1527     1.0  0.35990  0.68616  0.77843  1.0000
  C   C1528     1.0  0.36262  0.70416  0.77649  1.0000
  H   H1801     1.0  0.36129  0.72064  0.73041  1.0000
  C   C1529     1.0  0.33946  0.65602  0.53484  1.0000
  H   H1802     1.0  0.35977  0.67653  0.79177  1.0000
  H   H1803     1.0  0.36421  0.70845  0.78842  1.0000
  C   C1530     1.0  0.37015  0.64268  0.56215  1.0000
  C   C1531     1.0  0.38511  0.63888  0.54718  1.0000
  C   C1532     1.0  0.39027  0.62116  0.54244  1.0000
  C   C1533     1.0  0.38053  0.60718  0.55277  1.0000
  C   C1534     1.0  0.36524  0.61121  0.56732  1.0000
  C   C1535     1.0  0.36004  0.62887  0.57196  1.0000
  H   H1804     1.0  0.39291  0.64956  0.53945  1.0000
  H   H1805     1.0  0.40213  0.61818  0.53122  1.0000
  H   H1806     1.0  0.35744  0.60057  0.57516  1.0000
  H   H1807     1.0  0.34826  0.63176  0.58322  1.0000
  H   H1808     1.0  0.40589  0.60817  0.82639  1.0000
  H   H1809     1.0  0.37470  0.73030  0.96501  1.0000
  H   H1810     1.0  0.49807  0.53634  0.50913  1.0000
  C   C1536     1.0  0.48536  0.53837  0.50354  1.0000
  H   H1811     1.0  0.42776  0.61114  0.82813  1.0000
  H   H1812     1.0  0.44859  0.57036  0.83145  1.0000
  H   H1813     1.0  0.48696  0.49418  0.50042  1.0000
  Fe  Fe199     1.0  0.35874  0.51450  0.71866  1.0000
  C   C1537     1.0  0.38701  0.57972  0.60161  1.0000
  C   C1538     1.0  0.38684  0.55134  0.63854  1.0000
  C   C1539     1.0  0.34475  0.71597  0.64438  1.0000
  H   H1814     1.0  0.34592  0.71325  0.63073  1.0000
  S   S406      1.0  0.38449  0.50321  0.69823  1.0000
  C   C1540     1.0  0.42048  0.60069  0.82697  1.0000
  C   C1541     1.0  0.52853  0.69473  0.94175  1.0000
  C   C1542     1.0  0.41617  0.60385  0.86665  1.0000
  C   C1543     1.0  0.42619  0.70744  0.84220  1.0000
  H   H1815     1.0  0.34905  0.59294  0.54654  1.0000
  H   H1816     1.0  0.42109  0.56608  0.82502  1.0000
  H   H1817     1.0  0.39781  0.48978  0.54622  1.0000
  H   H1818     1.0  0.33283  0.69711  0.69077  1.0000
  H   H1819     1.0  0.42705  0.59660  0.81323  1.0000
  H   H1820     1.0  0.33542  0.54725  0.65997  1.0000
  C   C1544     1.0  0.34979  0.54845  0.65389  1.0000
  C   C1545     1.0  0.38265  0.53520  0.65133  1.0000
  S   S407      1.0  0.34254  0.50039  0.74590  1.0000
  S   S408      1.0  0.33340  0.53080  0.70701  1.0000
  H   H1821     1.0  0.38860  0.57408  0.86820  1.0000
  C   C1546     1.0  0.36085  0.59941  0.61769  1.0000
  H   H1822     1.0  0.39271  0.69889  0.85474  1.0000
  N   N100      1.0  0.34059  0.61031  0.52152  1.0000
  C   C1547     1.0  0.53932  0.70557  0.94460  1.0000
  H   H1823     1.0  0.37024  0.60744  0.51789  1.0000
  H   H1824     1.0  0.37802  0.57432  0.59570  1.0000
  H   H1825     1.0  0.37902  0.72215  0.84980  1.0000
  H   H1826     1.0  0.37841  0.49076  0.59105  1.0000
  C   C1548     1.0  0.54047  0.66902  0.96515  1.0000
  C   C1549     1.0  0.41308  0.57034  0.83840  1.0000
  C   C1550     1.0  0.40116  0.70135  0.79918  1.0000
  C   C1551     1.0  0.48490  0.69780  0.97032  1.0000
  H   H1827     1.0  0.36077  0.62069  0.49756  1.0000
  Fe  Fe200     1.0  0.44165  0.72083  0.88636  1.0000
  C   C1552     1.0  0.41039  0.59055  0.86049  1.0000
  C   C1553     1.0  0.32465  0.61128  0.68360  1.0000
  C   C1554     1.0  0.40642  0.61020  0.88302  1.0000
  H   H1828     1.0  0.37937  0.69782  0.96297  1.0000
  H   H1829     1.0  0.58657  0.68543  0.96641  1.0000
  N   N101      1.0  0.40847  0.72000  0.83822  1.0000
  C   C1555     1.0  0.36418  0.53379  0.65905  1.0000
  H   H1830     1.0  0.41086  0.62071  0.88720  1.0000
  C   C1556     1.0  0.38449  0.59063  0.88804  1.0000
  C   C1557     1.0  0.35970  0.60860  0.50962  1.0000
  C   C1558     1.0  0.44050  0.57578  0.84422  1.0000
  H   H1831     1.0  0.39851  0.57609  0.83637  1.0000
  H   H1832     1.0  0.36107  0.52127  0.66911  1.0000
  N   N102      1.0  0.37734  0.58399  0.62026  1.0000
  S   S409      1.0  0.35112  0.65938  0.76627  1.0000
  S   S410      1.0  0.40637  0.59305  0.49205  1.0000
  C   C1559     1.0  0.39425  0.58400  0.87180  1.0000
  C   C1560     1.0  0.55217  0.67944  0.96795  1.0000
  H   H1833     1.0  0.39843  0.68862  0.79743  1.0000
  H   H1834     1.0  0.32620  0.59218  0.54489  1.0000
  C   C1561     1.0  0.36576  0.52412  0.48339  1.0000
  H   H1835     1.0  0.35119  0.59576  0.61108  1.0000
  H   H1836     1.0  0.38215  0.50890  0.52134  1.0000
  N   N103      1.0  0.37180  0.59905  0.73900  1.0000
  C   C1562     1.0  0.35535  0.59890  0.75472  1.0000
  C   C1563     1.0  0.37540  0.58165  0.73189  1.0000
  C   C1564     1.0  0.38834  0.59842  0.74634  1.0000
  C   C1565     1.0  0.36809  0.61632  0.72458  1.0000
  C   C1566     1.0  0.36363  0.61637  0.70744  1.0000
  C   C1567     1.0  0.36796  0.63395  0.72785  1.0000
  C   C1568     1.0  0.36013  0.63299  0.69417  1.0000
  C   C1569     1.0  0.36440  0.65045  0.71453  1.0000
  C   C1570     1.0  0.36056  0.64997  0.69768  1.0000
  H   H1837     1.0  0.34267  0.59937  0.74975  1.0000
  H   H1838     1.0  0.35736  0.58609  0.76589  1.0000
  H   H1839     1.0  0.35250  0.61109  0.76139  1.0000
  H   H1840     1.0  0.36277  0.57987  0.72833  1.0000
  H   H1841     1.0  0.37924  0.56890  0.74261  1.0000
  H   H1842     1.0  0.38698  0.58144  0.71931  1.0000
  H   H1843     1.0  0.38566  0.60888  0.75516  1.0000
  H   H1844     1.0  0.39259  0.58476  0.75572  1.0000
  H   H1845     1.0  0.40054  0.60079  0.73471  1.0000
  H   H1846     1.0  0.36263  0.60378  0.70397  1.0000
  H   H1847     1.0  0.37041  0.63520  0.74085  1.0000
  H   H1848     1.0  0.35697  0.63277  0.68107  1.0000
  H   H1849     1.0  0.36458  0.66369  0.71735  1.0000
  H   H1850     1.0  0.35782  0.66279  0.68733  1.0000
  H   H1851     1.0  0.43848  0.71208  0.83198  1.0000
  H   H1852     1.0  0.35287  0.60322  0.63127  1.0000
  H   H1853     1.0  0.44792  0.58594  0.84572  1.0000
  H   H1854     1.0  0.39325  0.71539  0.86706  1.0000
  H   H1855     1.0  0.32867  0.62009  0.69030  1.0000
  H   H1856     1.0  0.36497  0.61235  0.60838  1.0000
  H   H1857     1.0  0.51992  0.66849  0.95035  1.0000
  C   C1571     1.0  0.37265  0.54001  0.48183  1.0000
  H   H1858     1.0  0.42693  0.69282  0.84148  1.0000
  H   H1859     1.0  0.45754  0.52838  0.49521  1.0000
  H   H1860     1.0  0.34188  0.72529  0.69324  1.0000
  Fe  Fe201     1.0  0.39573  0.57065  0.48620  1.0000
  H   H1861     1.0  0.38447  0.53868  0.48782  1.0000
  S   S411      1.0  0.33017  0.58397  0.71421  1.0000
  C   C1572     1.0  0.49591  0.72637  0.96579  1.0000
  C   C1573     1.0  0.35622  0.49979  0.53370  1.0000
  H   H1862     1.0  0.55851  0.70755  0.95932  1.0000
  C   C1574     1.0  0.47076  0.52809  0.48445  1.0000
  H   H1863     1.0  0.34631  0.58025  0.53089  1.0000
  C   C1575     1.0  0.33745  0.70689  0.67817  1.0000
  C   C1576     1.0  0.40644  0.71908  0.81955  1.0000
  S   S412      1.0  0.33294  0.68236  0.65965  1.0000
  S   S413      1.0  0.44223  0.73202  0.91080  1.0000
  Fe  Fe202     1.0  0.43446  0.57377  0.48615  1.0000
  H   H1864     1.0  0.48412  0.68372  0.97803  1.0000
  H   H1865     1.0  0.47186  0.72917  0.93237  1.0000
  H   H1866     1.0  0.49820  0.50179  0.51466  1.0000
  H   H1867     1.0  0.36391  0.59587  0.50352  1.0000
  H   H1868     1.0  0.40069  0.48673  0.57553  1.0000
  H   H1869     1.0  0.40780  0.49025  0.66581  1.0000
  C   C1577     1.0  0.34666  0.48844  0.54875  1.0000
  C   C1578     1.0  0.38350  0.48908  0.54747  1.0000
  H   H1870     1.0  0.47317  0.53841  0.51558  1.0000
  S   S414      1.0  0.32686  0.69371  0.60508  1.0000
  C   C1579     1.0  0.32771  0.61091  0.50956  1.0000
  H   H1871     1.0  0.40073  0.71552  0.77059  1.0000
  H   H1872     1.0  0.37224  0.51065  0.49065  1.0000
  C   C1580     1.0  0.40253  0.71643  0.78406  1.0000
  H   H1873     1.0  0.33240  0.59884  0.50239  1.0000
  H   H1874     1.0  0.32696  0.62394  0.49848  1.0000
  H   H1875     1.0  0.53980  0.65508  0.97326  1.0000
  H   H1876     1.0  0.33232  0.48833  0.54924  1.0000
  H   H1877     1.0  0.51808  0.49381  0.48715  1.0000
  C   C1581     1.0  0.34992  0.73200  0.64584  1.0000
  Fe  Fe203     1.0  0.61083  0.91527  0.12865  1.0000
  S   S415      1.0  0.59166  0.92235  0.15517  1.0000
  S   S416      1.0  0.63379  0.88967  0.12666  1.0000
  Fe  Fe204     1.0  0.58916  0.94669  0.10357  1.0000
  S   S417      1.0  0.56811  0.95632  0.12800  1.0000
  Fe  Fe205     1.0  0.59314  0.95227  0.14073  1.0000
  H   H1878     1.0  0.34674  0.76517  0.14207  1.0000
  Fe  Fe206     1.0  0.56858  0.92574  0.14008  1.0000
  S   S418      1.0  0.54343  0.91223  0.15342  1.0000
  S   S419      1.0  0.61405  0.94470  0.11516  1.0000
  S   S420      1.0  0.58776  0.91658  0.11479  1.0000
  S   S421      1.0  0.38503  0.83553  0.00729  1.0000
  S   S422      1.0  0.64162  0.80554  0.02343  1.0000
  S   S423      1.0  0.62963  0.87778  0.04904  1.0000
  Fe  Fe207     1.0  0.35495  0.83791  0.00737  1.0000
  Fe  Fe208     1.0  0.37804  0.81945  0.03684  1.0000
  S   S424      1.0  0.38510  0.79178  0.02853  1.0000
  S   S425      1.0  0.38667  0.82078  0.06276  1.0000
  H   H1879     1.0  0.52804  0.84151  0.12240  1.0000
  Fe  Fe209     1.0  0.35486  0.79690  0.02764  1.0000
  C   C1582     1.0  0.55252  0.97544  0.19182  1.0000
  S   S426      1.0  0.34733  0.82378  0.03784  1.0000
  S   S427      1.0  0.55842  0.78229  0.99874  1.0000
  H   H1880     1.0  0.63859  0.95086  0.19572  1.0000
  Fe  Fe210     1.0  0.48914  0.85937  0.11068  1.0000
  S   S428      1.0  0.49482  0.84508  0.08664  1.0000
  S   S429      1.0  0.50932  0.87909  0.10353  1.0000
  Fe  Fe211     1.0  0.45911  0.83719  0.13279  1.0000
  S   S430      1.0  0.46289  0.82129  0.11058  1.0000
  S   S431      1.0  0.43987  0.82797  0.16025  1.0000
  Fe  Fe212     1.0  0.49348  0.81870  0.10806  1.0000
  S   S432      1.0  0.51652  0.79381  0.10246  1.0000
  Fe  Fe213     1.0  0.46391  0.84879  0.09063  1.0000
  S   S433      1.0  0.45336  0.85594  0.06370  1.0000
  S   S434      1.0  0.48985  0.83237  0.13204  1.0000
  S   S435      1.0  0.45785  0.86548  0.11300  1.0000
  H   H1881     1.0  0.42546  0.76278  0.99992  1.0000
  C   C1583     1.0  0.63065  0.97327  0.00294  1.0000
  H   H1882     1.0  0.59641  0.81585  0.01549  1.0000
  S   S436      1.0  0.51447  0.75985  0.01023  1.0000
  H   H1883     1.0  0.37229  0.93972  0.00101  1.0000
  H   H1884     1.0  0.53678  0.82494  0.08955  1.0000
  H   H1885     1.0  0.32803  0.80556  0.23395  1.0000
  C   C1584     1.0  0.49205  0.78236  0.08932  1.0000
  C   C1585     1.0  0.51014  0.77878  0.09226  1.0000
  C   C1586     1.0  0.52321  0.76335  0.08662  1.0000
  C   C1587     1.0  0.51815  0.75182  0.07782  1.0000
  H   H1886     1.0  0.53727  0.76041  0.08889  1.0000
  C   C1588     1.0  0.35030  0.89112  0.05729  1.0000
  C   C1589     1.0  0.40534  0.83060  0.06251  1.0000
  C   C1590     1.0  0.41447  0.84094  0.04608  1.0000
  C   C1591     1.0  0.42907  0.84883  0.04664  1.0000
  C   C1592     1.0  0.43479  0.84619  0.06353  1.0000
  C   C1593     1.0  0.42568  0.83581  0.07989  1.0000
  C   C1594     1.0  0.41093  0.82818  0.07940  1.0000
  H   H1887     1.0  0.41020  0.84301  0.03301  1.0000
  H   H1888     1.0  0.43593  0.85705  0.03400  1.0000
  H   H1889     1.0  0.42975  0.83394  0.09302  1.0000
  H   H1890     1.0  0.40376  0.82046  0.09222  1.0000
  S   S437      1.0  0.58828  0.95809  0.07299  1.0000
  H   H1891     1.0  0.44309  0.80525  0.04968  1.0000
  C   C1595     1.0  0.56934  0.78739  0.04681  1.0000
  C   C1596     1.0  0.56242  0.78162  0.03426  1.0000
  C   C1597     1.0  0.56731  0.78861  0.01495  1.0000
  C   C1598     1.0  0.57944  0.80110  0.00830  1.0000
  H   H1892     1.0  0.56529  0.78215  0.06174  1.0000
  H   H1893     1.0  0.55321  0.77189  0.03960  1.0000
  C   C1599     1.0  0.44921  0.74896  0.09719  1.0000
  Fe  Fe214     1.0  0.38900  0.80821  0.99898  1.0000
  H   H1894     1.0  0.39179  0.79070  0.21207  1.0000
  H   H1895     1.0  0.53859  0.96112  0.22806  1.0000
  C   C1600     1.0  0.62036  0.96176  0.17598  1.0000
  C   C1601     1.0  0.63097  0.96336  0.18803  1.0000
  H   H1896     1.0  0.59883  0.77122  0.08579  1.0000
  C   C1602     1.0  0.48682  0.77062  0.08110  1.0000
  H   H1897     1.0  0.61998  0.94812  0.17439  1.0000
  H   H1898     1.0  0.37566  0.77612  0.22519  1.0000
  C   C1603     1.0  0.53415  0.90266  0.13966  1.0000
  C   C1604     1.0  0.53939  0.90652  0.12011  1.0000
  C   C1605     1.0  0.53169  0.89903  0.10946  1.0000
  C   C1606     1.0  0.51861  0.88765  0.11809  1.0000
  C   C1607     1.0  0.51343  0.88360  0.13767  1.0000
  C   C1608     1.0  0.52114  0.89113  0.14839  1.0000
  H   H1899     1.0  0.54914  0.91555  0.11320  1.0000
  H   H1900     1.0  0.53579  0.90217  0.09441  1.0000
  H   H1901     1.0  0.50332  0.87491  0.14455  1.0000
  H   H1902     1.0  0.51692  0.88811  0.16352  1.0000
  C   C1609     1.0  0.63328  0.88016  0.07003  1.0000
  C   C1610     1.0  0.62952  0.89820  0.07321  1.0000
  C   C1611     1.0  0.63054  0.90098  0.09037  1.0000
  C   C1612     1.0  0.63515  0.88570  0.10456  1.0000
  C   C1613     1.0  0.63965  0.86753  0.10122  1.0000
  C   C1614     1.0  0.63874  0.86474  0.08385  1.0000
  H   H1903     1.0  0.62521  0.91005  0.06257  1.0000
  H   H1904     1.0  0.62735  0.91504  0.09274  1.0000
  H   H1905     1.0  0.64312  0.85567  0.11224  1.0000
  H   H1906     1.0  0.48208  0.79436  0.09306  1.0000
  Fe  Fe215     1.0  0.61652  0.81833  0.04290  1.0000
  N   N104      1.0  0.50681  0.81353  0.03323  1.0000
  C   C1615     1.0  0.51412  0.79324  0.03928  1.0000
  C   C1616     1.0  0.52281  0.82289  0.02469  1.0000
  C   C1617     1.0  0.49642  0.82083  0.05034  1.0000
  C   C1618     1.0  0.49528  0.81648  0.01927  1.0000
  C   C1619     1.0  0.50295  0.80922  0.00273  1.0000
  C   C1620     1.0  0.47631  0.82619  0.02168  1.0000
  H   H1907     1.0  0.60407  0.76562  0.02758  1.0000
  C   C1621     1.0  0.46563  0.82786  0.00859  1.0000
  C   C1622     1.0  0.63349  0.95356  0.00505  1.0000
  H   H1908     1.0  0.52432  0.78711  0.02786  1.0000
  H   H1909     1.0  0.52153  0.79024  0.05097  1.0000
  H   H1910     1.0  0.50267  0.78543  0.04407  1.0000
  H   H1911     1.0  0.53208  0.81724  0.01247  1.0000
  H   H1912     1.0  0.53180  0.82091  0.03485  1.0000
  H   H1913     1.0  0.51791  0.83817  0.01972  1.0000
  H   H1914     1.0  0.48416  0.81433  0.05753  1.0000
  H   H1915     1.0  0.50531  0.81778  0.06082  1.0000
  H   H1916     1.0  0.49142  0.83629  0.04709  1.0000
  C   C1623     1.0  0.59385  0.85389  0.09163  1.0000
  H   H1917     1.0  0.46935  0.83256  0.03360  1.0000
  S   S438      1.0  0.39024  0.73805  0.20218  1.0000
  C   C1624     1.0  0.49994  0.75555  0.07494  1.0000
  H   H1918     1.0  0.38487  0.82352  0.21232  1.0000
  H   H1919     1.0  0.61845  0.75331  0.00955  1.0000
  H   H1920     1.0  0.58362  0.94882  0.18259  1.0000
  C   C1625     1.0  0.56508  0.80866  0.10769  1.0000
  H   H1921     1.0  0.62924  0.91032  0.98996  1.0000
  H   H1922     1.0  0.63620  0.92656  0.02396  1.0000
  N   N105      1.0  0.55390  0.82806  0.10671  1.0000
  C   C1626     1.0  0.40827  0.78894  0.17293  1.0000
  C   C1627     1.0  0.32273  0.74628  0.06202  1.0000
  C   C1628     1.0  0.63402  0.94157  0.02260  1.0000
  C   C1629     1.0  0.49211  0.81082  0.98984  1.0000
  Fe  Fe216     1.0  0.33963  0.74322  0.19733  1.0000
  C   C1630     1.0  0.57325  0.86413  0.11893  1.0000
  H   H1923     1.0  0.52825  0.73989  0.07356  1.0000
  H   H1924     1.0  0.57154  0.80394  0.12019  1.0000
  H   H1925     1.0  0.53824  0.84861  0.08796  1.0000
  H   H1926     1.0  0.38409  0.88165  0.03688  1.0000
  H   H1927     1.0  0.47273  0.77371  0.07898  1.0000
  C   C1631     1.0  0.42537  0.76706  0.07989  1.0000
  C   C1632     1.0  0.59444  0.73613  0.05257  1.0000
  H   H1928     1.0  0.59865  0.87359  0.10489  1.0000
  H   H1929     1.0  0.64306  0.77524  0.11570  1.0000
  H   H1930     1.0  0.32617  0.76592  0.23539  1.0000
  C   C1633     1.0  0.42026  0.79983  0.17387  1.0000
  S   S439      1.0  0.35820  0.74874  0.25236  1.0000
  H   H1931     1.0  0.38379  0.81818  0.23690  1.0000
  C   C1634     1.0  0.58173  0.79963  0.04007  1.0000
  H   H1932     1.0  0.44045  0.74300  0.15898  1.0000
  H   H1933     1.0  0.37781  0.87100  0.02153  1.0000
  S   S440      1.0  0.54585  0.73783  0.03550  1.0000
  H   H1934     1.0  0.34410  0.85980  0.05218  1.0000
  N   N106      1.0  0.35428  0.88528  0.03916  1.0000
  H   H1935     1.0  0.40403  0.78702  0.09344  1.0000
  C   C1635     1.0  0.33784  0.90648  0.01341  1.0000
  S   S441      1.0  0.38541  0.77968  0.15546  1.0000
  C   C1636     1.0  0.36169  0.78234  0.09601  1.0000
  C   C1637     1.0  0.46096  0.78102  0.03994  1.0000
  Fe  Fe217     1.0  0.36305  0.74483  0.22276  1.0000
  H   H1936     1.0  0.32558  0.76568  0.09378  1.0000
  H   H1937     1.0  0.42023  0.80871  0.03033  1.0000
  H   H1938     1.0  0.51741  0.80203  0.99972  1.0000
  H   H1939     1.0  0.56324  0.98154  0.18041  1.0000
  C   C1638     1.0  0.37528  0.82070  0.22620  1.0000
  S   S442      1.0  0.63254  0.82125  0.06266  1.0000
  C   C1639     1.0  0.40460  0.80792  0.14243  1.0000
  Fe  Fe218     1.0  0.37521  0.75818  0.18051  1.0000
  S   S443      1.0  0.49367  0.74264  0.06234  1.0000
  C   C1640     1.0  0.60594  0.74137  0.09490  1.0000
  C   C1641     1.0  0.32445  0.76498  0.05493  1.0000
  C   C1642     1.0  0.33632  0.92233  0.99894  1.0000
  H   H1940     1.0  0.33771  0.74820  0.29067  1.0000
  C   C1643     1.0  0.33321  0.81627  0.18692  1.0000
  H   H1941     1.0  0.58614  0.83416  0.08127  1.0000
  C   C1644     1.0  0.58219  0.84220  0.09211  1.0000
  H   H1942     1.0  0.54892  0.85313  0.13040  1.0000
  H   H1943     1.0  0.57645  0.80725  0.09511  1.0000
  H   H1944     1.0  0.34985  0.78126  0.07355  1.0000
  C   C1645     1.0  0.44160  0.75339  0.08123  1.0000
  H   H1945     1.0  0.54250  0.82337  0.13649  1.0000
  C   C1646     1.0  0.56142  0.85255  0.11950  1.0000
  C   C1647     1.0  0.60904  0.75942  0.09119  1.0000
  H   H1946     1.0  0.55633  0.79864  0.10849  1.0000
  C   C1648     1.0  0.56576  0.84091  0.10626  1.0000
  C   C1649     1.0  0.58685  0.80640  0.02079  1.0000
  H   H1947     1.0  0.52959  0.81740  0.12313  1.0000
  C   C1650     1.0  0.63837  0.74778  0.03780  1.0000
  H   H1948     1.0  0.32674  0.87942  0.04478  1.0000
  C   C1651     1.0  0.32161  0.76448  0.25030  1.0000
  C   C1652     1.0  0.60997  0.97779  0.16638  1.0000
  H   H1949     1.0  0.47115  0.77971  0.04806  1.0000
  C   C1653     1.0  0.45159  0.77171  0.13234  1.0000
  C   C1654     1.0  0.54632  0.83390  0.08943  1.0000
  H   H1950     1.0  0.45047  0.77862  0.98118  1.0000
  H   H1951     1.0  0.46194  0.73839  0.09710  1.0000
  S   S444      1.0  0.61624  0.84734  0.02589  1.0000
  H   H1952     1.0  0.47594  0.75705  0.02922  1.0000
  C   C1655     1.0  0.41700  0.81843  0.14312  1.0000
  C   C1656     1.0  0.35613  0.80070  0.24819  1.0000
  C   C1657     1.0  0.36411  0.91479  0.01932  1.0000
  C   C1658     1.0  0.32797  0.75449  0.28147  1.0000
  Fe  Fe219     1.0  0.54500  0.75723  0.00782  1.0000
  C   C1659     1.0  0.35200  0.90209  0.02393  1.0000
  C   C1660     1.0  0.47344  0.82003  0.99283  1.0000
  S   S445      1.0  0.33789  0.86410  0.99249  1.0000
  H   H1953     1.0  0.42025  0.82985  0.13160  1.0000
  H   H1954     1.0  0.34982  0.78829  0.25107  1.0000
  H   H1955     1.0  0.36240  0.76821  0.99368  1.0000
  C   C1661     1.0  0.42478  0.81451  0.15889  1.0000
  H   H1956     1.0  0.45113  0.83514  0.01080  1.0000
  C   C1662     1.0  0.35478  0.80895  0.21450  1.0000
  H   H1957     1.0  0.32508  0.81873  0.17638  1.0000
  H   H1958     1.0  0.53553  0.94866  0.21220  1.0000
  H   H1959     1.0  0.39845  0.81123  0.13027  1.0000
  S   S446      1.0  0.34444  0.76974  0.03763  1.0000
  C   C1663     1.0  0.33435  0.75633  0.26201  1.0000
  C   C1664     1.0  0.57799  0.98026  0.21109  1.0000
  C   C1665     1.0  0.53784  0.82763  0.12294  1.0000
  H   H1960     1.0  0.55751  0.83284  0.07664  1.0000
  H   H1961     1.0  0.42634  0.79670  0.18605  1.0000
  C   C1666     1.0  0.46361  0.76804  0.02886  1.0000
  C   C1667     1.0  0.54600  0.95115  0.21866  1.0000
  H   H1962     1.0  0.37074  0.78109  0.12105  1.0000
  N   N107      1.0  0.57251  0.91386  0.05658  1.0000
  C   C1668     1.0  0.58682  0.91892  0.03956  1.0000
  C   C1669     1.0  0.55874  0.93134  0.05975  1.0000
  C   C1670     1.0  0.58165  0.90663  0.07284  1.0000
  C   C1671     1.0  0.56407  0.89923  0.05440  1.0000
  C   C1672     1.0  0.57551  0.88208  0.05026  1.0000
  C   C1673     1.0  0.54447  0.90122  0.05681  1.0000
  C   C1674     1.0  0.56784  0.86800  0.04832  1.0000
  C   C1675     1.0  0.53695  0.88697  0.05506  1.0000
  C   C1676     1.0  0.54862  0.87051  0.05059  1.0000
  H   H1963     1.0  0.58080  0.92350  0.02678  1.0000
  H   H1964     1.0  0.59288  0.93041  0.04059  1.0000
  H   H1965     1.0  0.59888  0.90709  0.03729  1.0000
  H   H1966     1.0  0.55120  0.93748  0.04806  1.0000
  H   H1967     1.0  0.56560  0.94221  0.06073  1.0000
  H   H1968     1.0  0.54845  0.92895  0.07324  1.0000
  H   H1969     1.0  0.59318  0.89433  0.07089  1.0000
  H   H1970     1.0  0.58791  0.91735  0.07516  1.0000
  H   H1971     1.0  0.57155  0.90229  0.08593  1.0000
  H   H1972     1.0  0.59050  0.87936  0.04865  1.0000
  H   H1973     1.0  0.53452  0.91346  0.06052  1.0000
  H   H1974     1.0  0.57684  0.85499  0.04520  1.0000
  H   H1975     1.0  0.36444  0.83372  0.22753  1.0000
  H   H1976     1.0  0.55123  0.93757  0.22762  1.0000
  C   C1677     1.0  0.60670  0.75277  0.02199  1.0000
  S   S447      1.0  0.35940  0.81141  0.99728  1.0000
  C   C1678     1.0  0.34171  0.87257  0.04099  1.0000
  H   H1977     1.0  0.36007  0.89967  0.05747  1.0000
  H   H1978     1.0  0.43842  0.78212  0.13522  1.0000
  Fe  Fe220     1.0  0.63484  0.84912  0.04357  1.0000
  C   C1679     1.0  0.34878  0.93418  0.99445  1.0000
  H   H1979     1.0  0.54300  0.97220  0.18473  1.0000
  C   C1680     1.0  0.34672  0.76874  0.12726  1.0000
  C   C1681     1.0  0.33134  0.75594  0.00373  1.0000
  C   C1682     1.0  0.33538  0.80882  0.21956  1.0000
  H   H1980     1.0  0.57602  0.93045  0.20102  1.0000
  C   C1683     1.0  0.44525  0.79547  0.04073  1.0000
  C   C1684     1.0  0.36067  0.77772  0.11529  1.0000
  H   H1981     1.0  0.59399  0.75359  0.01683  1.0000
  H   H1982     1.0  0.38970  0.78300  0.23678  1.0000
  C   C1685     1.0  0.46709  0.73862  0.01019  1.0000
  H   H1983     1.0  0.46080  0.77853  0.11983  1.0000
  S   S448      1.0  0.34940  0.76682  0.20140  1.0000
  C   C1686     1.0  0.36258  0.93048  0.00468  1.0000
  C   C1687     1.0  0.40027  0.79312  0.15729  1.0000
  C   C1688     1.0  0.58443  0.94725  0.22525  1.0000
  C   C1689     1.0  0.42410  0.77199  0.11055  1.0000
  S   S449      1.0  0.59508  0.97668  0.15221  1.0000
  Fe  Fe221     1.0  0.51599  0.73833  0.03678  1.0000
  H   H1984     1.0  0.36535  0.79737  0.25839  1.0000
  N   N108      1.0  0.36659  0.80465  0.22847  1.0000
  C   C1690     1.0  0.63183  0.94879  0.03837  1.0000
  H   H1985     1.0  0.42523  0.78734  0.00972  1.0000
  N   N109      1.0  0.56125  0.95853  0.20422  1.0000
  H   H1986     1.0  0.43779  0.73988  0.99840  1.0000
  C   C1691     1.0  0.63166  0.98097  0.19037  1.0000
  C   C1692     1.0  0.63886  0.74714  0.10155  1.0000
  S   S450      1.0  0.59083  0.80610  0.05593  1.0000
  H   H1987     1.0  0.35881  0.81902  0.16675  1.0000
  H   H1988     1.0  0.37245  0.78934  0.08675  1.0000
  C   C1693     1.0  0.36279  0.81303  0.19505  1.0000
  C   C1694     1.0  0.46040  0.76554  0.98587  1.0000
  C   C1695     1.0  0.43242  0.79739  0.02987  1.0000
  H   H1989     1.0  0.40525  0.77732  0.18426  1.0000
  C   C1696     1.0  0.44078  0.75835  0.11231  1.0000
  C   C1697     1.0  0.58951  0.86465  0.10516  1.0000
  H   H1990     1.0  0.32587  0.92506  0.99063  1.0000
  H   H1991     1.0  0.56205  0.94242  0.18417  1.0000
  H   H1992     1.0  0.37548  0.86080  0.04612  1.0000
  C   C1698     1.0  0.38159  0.78796  0.22548  1.0000
  H   H1993     1.0  0.32808  0.89763  0.01560  1.0000
  N   N110      1.0  0.44852  0.75427  0.12934  1.0000
  C   C1699     1.0  0.37373  0.87429  0.03573  1.0000
  H   H1994     1.0  0.37745  0.81327  0.19012  1.0000
  H   H1995     1.0  0.35164  0.87882  0.06915  1.0000
  H   H1996     1.0  0.56970  0.87284  0.12922  1.0000
  H   H1997     1.0  0.63348  0.87591  0.99889  1.0000
  H   H1998     1.0  0.63410  0.76121  0.02903  1.0000
  H   H1999     1.0  0.34403  0.86771  0.02772  1.0000
  H   H2000     1.0  0.58333  0.80653  0.99339  1.0000
  C   C1700     1.0  0.62869  0.98006  0.01930  1.0000
  C   C1701     1.0  0.46665  0.74059  0.12844  1.0000
  C   C1702     1.0  0.45062  0.76940  0.01784  1.0000
  N   N111      1.0  0.61059  0.73557  0.03651  1.0000
  H   H2001     1.0  0.34485  0.81284  0.25160  1.0000
  H   H2002     1.0  0.60632  0.85459  0.08070  1.0000
  C   C1703     1.0  0.59722  0.95023  0.23391  1.0000
  H   H2003     1.0  0.58119  0.73727  0.04826  1.0000
  C   C1704     1.0  0.41663  0.77633  0.09453  1.0000
  H   H2004     1.0  0.33588  0.89966  0.06026  1.0000
  N   N112      1.0  0.45341  0.75628  0.00539  1.0000
  C   C1705     1.0  0.62526  0.76236  0.09440  1.0000
  C   C1706     1.0  0.63601  0.90202  0.97944  1.0000
  H   H2005     1.0  0.59265  0.74835  0.05889  1.0000
  H   H2006     1.0  0.33362  0.73521  0.05698  1.0000
  C   C1707     1.0  0.57112  0.94444  0.19258  1.0000
  H   H2007     1.0  0.41664  0.77938  0.12162  1.0000
  H   H2008     1.0  0.64180  0.85074  0.08134  1.0000
  H   H2009     1.0  0.45816  0.76910  0.14457  1.0000
  C   C1708     1.0  0.43560  0.75101  0.00636  1.0000
  C   C1709     1.0  0.57450  0.96216  0.21345  1.0000
  C   C1710     1.0  0.43510  0.74652  0.14585  1.0000
  H   H2010     1.0  0.34799  0.94601  0.98269  1.0000
  H   H2011     1.0  0.62682  0.77668  0.09108  1.0000
  C   C1711     1.0  0.34890  0.77785  0.08861  1.0000
  C   C1712     1.0  0.43522  0.78480  0.01833  1.0000
  H   H2012     1.0  0.32969  0.77091  0.00409  1.0000
  H   H2013     1.0  0.52191  0.88859  0.05758  1.0000
  H   H2014     1.0  0.37501  0.91258  0.02687  1.0000
  S   S451      1.0  0.36405  0.73639  0.17426  1.0000
  H   H2015     1.0  0.54270  0.85953  0.04923  1.0000
  H   H2016     1.0  0.47228  0.73814  0.14126  1.0000
  C   C1713     1.0  0.33487  0.76891  0.10047  1.0000
  H   H2017     1.0  0.60505  0.93860  0.24244  1.0000
  H   H2018     1.0  0.58261  0.93311  0.22763  1.0000
  Fe  Fe222     1.0  0.64294  0.83521  0.00806  1.0000
  H   H2019     1.0  0.47746  0.74566  0.11636  1.0000
  H   H2020     1.0  0.37267  0.87529  0.98957  1.0000
  H   H2021     1.0  0.64607  0.74170  0.13551  1.0000
  C   C1714     1.0  0.60035  0.96811  0.23125  1.0000
  H   H2022     1.0  0.42880  0.74585  0.02112  1.0000
  H   H2023     1.0  0.41956  0.77057  0.06746  1.0000
  H   H2024     1.0  0.59318  0.73908  0.09289  1.0000
  H   H2025     1.0  0.61071  0.97035  0.23745  1.0000
  C   C1715     1.0  0.35217  0.81651  0.18152  1.0000
  H   H2026     1.0  0.63540  0.94701  0.99339  1.0000
  H   H2027     1.0  0.63206  0.93962  0.05201  1.0000
  C   C1716     1.0  0.33319  0.76432  0.12023  1.0000
  C   C1717     1.0  0.62923  0.96796  0.03671  1.0000
  C   C1718     1.0  0.62786  0.73351  0.04314  1.0000
  C   C1719     1.0  0.63838  0.88247  0.98453  1.0000
  H   H2028     1.0  0.46504  0.82119  0.98285  1.0000
  H   H2029     1.0  0.47401  0.76930  0.98436  1.0000
  H   H2030     1.0  0.42155  0.75656  0.14832  1.0000
  H   H2031     1.0  0.48153  0.74097  0.00716  1.0000
  Fe  Fe223     1.0  0.52249  0.73544  0.99602  1.0000
  H   H2032     1.0  0.62725  0.97349  0.04912  1.0000
  S   S452      1.0  0.55327  0.73445  0.99152  1.0000
  H   H2033     1.0  0.36765  0.74444  0.00599  1.0000
  H   H2034     1.0  0.33325  0.74788  0.01795  1.0000
  C   C1720     1.0  0.32775  0.73561  0.14172  1.0000
  H   H2035     1.0  0.44856  0.74631  0.06974  1.0000
  H   H2036     1.0  0.33671  0.73591  0.15107  1.0000
  C   C1721     1.0  0.36433  0.75343  0.99256  1.0000
  C   C1722     1.0  0.32483  0.81250  0.20589  1.0000
  H   H2037     1.0  0.43202  0.73363  0.14400  1.0000
  N   N113      1.0  0.34744  0.74987  0.98894  1.0000
  S   S453      1.0  0.64389  0.98219  0.20699  1.0000
  H   H2038     1.0  0.37683  0.75080  0.98122  1.0000
  C   C1723     1.0  0.36530  0.88508  0.97941  1.0000
  H   H2039     1.0  0.50393  0.98062  0.89718  1.0000
  C   C1724     1.0  0.44204  0.94016  0.90020  1.0000
  H   H2040     1.0  0.35590  0.75903  0.95891  1.0000
  Fe  Fe224     1.0  0.35143  0.75726  0.73320  1.0000
  S   S454      1.0  0.36927  0.76980  0.70671  1.0000
  Fe  Fe225     1.0  0.34877  0.79642  0.71116  1.0000
  S   S455      1.0  0.35753  0.82324  0.70955  1.0000
  Fe  Fe226     1.0  0.34889  0.76494  0.69241  1.0000
  S   S456      1.0  0.35632  0.75542  0.66478  1.0000
  S   S457      1.0  0.36695  0.97802  0.89965  1.0000
  H   H2041     1.0  0.61938  0.89796  0.93903  1.0000
  Fe  Fe227     1.0  0.40851  0.87308  0.78550  1.0000
  S   S458      1.0  0.43052  0.86679  0.76015  1.0000
  S   S459      1.0  0.38973  0.90140  0.78652  1.0000
  Fe  Fe228     1.0  0.42096  0.83543  0.80969  1.0000
  S   S460      1.0  0.44421  0.82638  0.78657  1.0000
  S   S461      1.0  0.41413  0.81868  0.83905  1.0000
  Fe  Fe229     1.0  0.44961  0.85532  0.78066  1.0000
  S   S462      1.0  0.47848  0.86171  0.77431  1.0000
  Fe  Fe230     1.0  0.42281  0.83849  0.76849  1.0000
  S   S463      1.0  0.42171  0.81838  0.75133  1.0000
  S   S464      1.0  0.42811  0.86331  0.80529  1.0000
  S   S465      1.0  0.39920  0.84586  0.79223  1.0000
  Fe  Fe231     1.0  0.37207  0.93629  0.87717  1.0000
  S   S466      1.0  0.39292  0.93759  0.89259  1.0000
  S   S467      1.0  0.37594  0.90831  0.87021  1.0000
  H   H2042     1.0  0.38597  0.78083  0.76562  1.0000
  H   H2043     1.0  0.35904  0.81264  0.65607  1.0000
  C   C1725     1.0  0.36653  0.78522  0.83218  1.0000
  C   C1726     1.0  0.37202  0.77727  0.77102  1.0000
  Fe  Fe232     1.0  0.36787  0.94768  0.91364  1.0000
  S   S468      1.0  0.37096  0.93459  0.94363  1.0000
  S   S469      1.0  0.37215  0.96520  0.85950  1.0000
  S   S470      1.0  0.34695  0.94493  0.89898  1.0000
  Fe  Fe233     1.0  0.54693  0.92752  0.84444  1.0000
  S   S471      1.0  0.55862  0.90811  0.82432  1.0000
  S   S472      1.0  0.55307  0.92430  0.87283  1.0000
  Fe  Fe234     1.0  0.52892  0.91335  0.82059  1.0000
  S   S473      1.0  0.51034  0.89231  0.82744  1.0000
  S   S474      1.0  0.51742  0.93117  0.84218  1.0000
  H   H2044     1.0  0.36565  0.88176  0.90698  1.0000
  C   C1727     1.0  0.47421  0.80179  0.84900  1.0000
  H   H2045     1.0  0.45294  0.93228  0.87351  1.0000
  C   C1728     1.0  0.36926  0.81294  0.66410  1.0000
  H   H2046     1.0  0.40265  0.77971  0.64489  1.0000
  C   C1729     1.0  0.41412  0.76054  0.94726  1.0000
  C   C1730     1.0  0.41928  0.77067  0.95744  1.0000
  H   H2047     1.0  0.42361  0.74814  0.94333  1.0000
  H   H2048     1.0  0.43464  0.80236  0.70035  1.0000
  C   C1731     1.0  0.57499  0.92897  0.87074  1.0000
  C   C1732     1.0  0.57946  0.93268  0.88606  1.0000
  C   C1733     1.0  0.36276  0.91396  0.95551  1.0000
  C   C1734     1.0  0.41221  0.82348  0.88893  1.0000
  C   C1735     1.0  0.60504  0.93416  0.85178  1.0000
  C   C1736     1.0  0.35578  0.80924  0.77119  1.0000
  C   C1737     1.0  0.40675  0.78628  0.96330  1.0000
  C   C1738     1.0  0.34610  0.91109  0.95331  1.0000
  H   H2049     1.0  0.41569  0.80316  0.91432  1.0000
  H   H2050     1.0  0.64323  0.97346  0.80150  1.0000
  C   C1739     1.0  0.42470  0.79482  0.84323  1.0000
  C   C1740     1.0  0.42014  0.78389  0.86115  1.0000
  C   C1741     1.0  0.42882  0.76499  0.86516  1.0000
  C   C1742     1.0  0.44202  0.75686  0.85123  1.0000
  C   C1743     1.0  0.44624  0.76761  0.83313  1.0000
  C   C1744     1.0  0.43753  0.78657  0.82912  1.0000
  H   H2051     1.0  0.40986  0.78999  0.87202  1.0000
  C   C1745     1.0  0.44490  0.94859  0.91318  1.0000
  H   H2052     1.0  0.44082  0.79473  0.81516  1.0000
  C   C1746     1.0  0.48642  0.87145  0.78886  1.0000
  C   C1747     1.0  0.50273  0.87867  0.78174  1.0000
  C   C1748     1.0  0.50986  0.88587  0.79313  1.0000
  C   C1749     1.0  0.50096  0.88544  0.81190  1.0000
  C   C1750     1.0  0.48455  0.87841  0.81897  1.0000
  C   C1751     1.0  0.47715  0.87171  0.80745  1.0000
  H   H2053     1.0  0.50999  0.87855  0.76737  1.0000
  H   H2054     1.0  0.52258  0.89112  0.78757  1.0000
  H   H2055     1.0  0.47753  0.87818  0.83346  1.0000
  H   H2056     1.0  0.46435  0.86670  0.81301  1.0000
  C   C1752     1.0  0.38232  0.90364  0.80998  1.0000
  C   C1753     1.0  0.38415  0.88767  0.82422  1.0000
  C   C1754     1.0  0.38146  0.88936  0.84276  1.0000
  C   C1755     1.0  0.37699  0.90703  0.84716  1.0000
  C   C1756     1.0  0.37422  0.92309  0.83310  1.0000
  C   C1757     1.0  0.37666  0.92136  0.81450  1.0000
  H   H2057     1.0  0.38799  0.87394  0.82092  1.0000
  H   H2058     1.0  0.38326  0.87691  0.85362  1.0000
  H   H2059     1.0  0.37048  0.93676  0.83651  1.0000
  H   H2060     1.0  0.37491  0.93374  0.80352  1.0000
  C   C1758     1.0  0.37507  0.82186  0.72156  1.0000
  C   C1759     1.0  0.37687  0.83796  0.72623  1.0000
  C   C1760     1.0  0.39087  0.83714  0.73566  1.0000
  C   C1761     1.0  0.40351  0.82030  0.73999  1.0000
  C   C1762     1.0  0.40185  0.80431  0.73506  1.0000
  C   C1763     1.0  0.38749  0.80497  0.72623  1.0000
  H   H2061     1.0  0.36733  0.85110  0.72263  1.0000
  H   H2062     1.0  0.39208  0.84959  0.73930  1.0000
  H   H2063     1.0  0.41173  0.79130  0.73812  1.0000
  H   H2064     1.0  0.38643  0.79254  0.72250  1.0000
  C   C1764     1.0  0.41424  0.81954  0.68458  1.0000
  H   H2065     1.0  0.37027  0.84106  0.94714  1.0000
  C   C1765     1.0  0.37571  0.88133  0.91552  1.0000
  H   H2066     1.0  0.38792  0.87351  0.94621  1.0000
  H   H2067     1.0  0.37866  0.78745  0.64341  1.0000
  C   C1766     1.0  0.38320  0.79130  0.82809  1.0000
  H   H2068     1.0  0.61138  0.87102  0.89965  1.0000
  H   H2069     1.0  0.58832  0.95630  0.80800  1.0000
  C   C1767     1.0  0.59421  0.96446  0.79481  1.0000
  H   H2070     1.0  0.33847  0.92123  0.94347  1.0000
  H   H2071     1.0  0.60465  0.96582  0.74802  1.0000
  S   S475      1.0  0.63067  0.94484  0.86357  1.0000
  H   H2072     1.0  0.60199  0.86492  0.94337  1.0000
  H   H2073     1.0  0.62535  0.86303  0.94538  1.0000
  C   C1768     1.0  0.47443  0.95515  0.89258  1.0000
  C   C1769     1.0  0.48754  0.73381  0.95016  1.0000
  C   C1770     1.0  0.47131  0.94596  0.87992  1.0000
  H   H2074     1.0  0.34939  0.80999  0.75925  1.0000
  C   C1771     1.0  0.45523  0.93881  0.88362  1.0000
  H   H2075     1.0  0.39345  0.83345  0.66872  1.0000
  H   H2076     1.0  0.36889  0.81438  0.76484  1.0000
  C   C1772     1.0  0.38446  0.79576  0.79495  1.0000
  C   C1773     1.0  0.46078  0.95608  0.90949  1.0000
  H   H2077     1.0  0.37095  0.78703  0.94380  1.0000
  C   C1774     1.0  0.49467  0.97392  0.86900  1.0000
  H   H2078     1.0  0.60526  0.89594  0.89638  1.0000
  H   H2079     1.0  0.38430  0.77652  0.66559  1.0000
  C   C1775     1.0  0.35864  0.78445  0.81771  1.0000
  H   H2080     1.0  0.35702  0.85301  0.92939  1.0000
  H   H2081     1.0  0.50627  0.81379  0.83502  1.0000
  H   H2082     1.0  0.37982  0.80448  0.96226  1.0000
  H   H2083     1.0  0.59134  0.88214  0.91475  1.0000
  C   C1776     1.0  0.47672  0.93449  0.81001  1.0000
  H   H2084     1.0  0.34241  0.76932  0.79707  1.0000
  H   H2085     1.0  0.35763  0.86444  0.94713  1.0000
  C   C1777     1.0  0.40884  0.73906  0.83969  1.0000
  H   H2086     1.0  0.54789  0.97049  0.76890  1.0000
  C   C1778     1.0  0.64215  0.91085  0.96084  1.0000
  H   H2087     1.0  0.39963  0.82503  0.93490  1.0000
  C   C1779     1.0  0.41019  0.81762  0.90830  1.0000
  C   C1780     1.0  0.39527  0.85459  0.89278  1.0000
  S   S476      1.0  0.41306  0.79854  0.97654  1.0000
  H   H2088     1.0  0.47758  0.79497  0.81364  1.0000
  H   H2089     1.0  0.39190  0.80023  0.78078  1.0000
  C   C1781     1.0  0.33875  0.89562  0.96457  1.0000
  H   H2090     1.0  0.40514  0.80130  0.80639  1.0000
  H   H2091     1.0  0.38511  0.90315  0.97053  1.0000
  S   S477      1.0  0.33005  0.79315  0.69406  1.0000
  C   C1782     1.0  0.61654  0.86460  0.93513  1.0000
  H   H2092     1.0  0.38904  0.79230  0.83932  1.0000
  H   H2093     1.0  0.36667  0.77767  0.75852  1.0000
  H   H2094     1.0  0.49826  0.80484  0.97748  1.0000
  H   H2095     1.0  0.61490  0.93470  0.83846  1.0000
  C   C1783     1.0  0.60597  0.88275  0.90723  1.0000
  C   C1784     1.0  0.46318  0.82706  0.82481  1.0000
  H   H2096     1.0  0.58448  0.92677  0.84178  1.0000
  C   C1785     1.0  0.38432  0.78224  0.94786  1.0000
  C   C1786     1.0  0.49124  0.97456  0.90119  1.0000
  C   C1787     1.0  0.37235  0.90087  0.96857  1.0000
  Fe  Fe235     1.0  0.63665  0.95606  0.88552  1.0000
  H   H2097     1.0  0.36515  0.80505  0.67859  1.0000
  C   C1788     1.0  0.65260  0.86680  0.91191  1.0000
  H   H2098     1.0  0.40913  0.81155  0.63057  1.0000
  H   H2099     1.0  0.50067  0.79180  0.81807  1.0000
  C   C1789     1.0  0.58781  0.92970  0.85363  1.0000
  H   H2100     1.0  0.59248  0.97361  0.84404  1.0000
  Fe  Fe236     1.0  0.39044  0.96748  0.87747  1.0000
  C   C1790     1.0  0.39662  0.76634  0.94243  1.0000
  C   C1791     1.0  0.40083  0.83023  0.91999  1.0000
  H   H2101     1.0  0.39902  0.84963  0.94684  1.0000
  C   C1792     1.0  0.50776  0.94663  0.89004  1.0000
  H   H2102     1.0  0.39611  0.74936  0.83634  1.0000
  H   H2103     1.0  0.47749  0.95225  0.82764  1.0000
  H   H2104     1.0  0.34638  0.81940  0.77964  1.0000
  H   H2105     1.0  0.38736  0.88780  0.90615  1.0000
  C   C1793     1.0  0.39297  0.84910  0.91261  1.0000
  Fe  Fe237     1.0  0.64246  0.95102  0.92476  1.0000
  C   C1794     1.0  0.38929  0.79207  0.95844  1.0000
  H   H2106     1.0  0.43441  0.94989  0.92593  1.0000
  C   C1795     1.0  0.42567  0.80273  0.69116  1.0000
  C   C1796     1.0  0.40476  0.84188  0.88121  1.0000
  C   C1797     1.0  0.39494  0.86314  0.93719  1.0000
  H   H2107     1.0  0.36820  0.89074  0.92545  1.0000
  S   S478      1.0  0.64848  0.84708  0.97681  1.0000
  C   C1798     1.0  0.65366  0.88034  0.95259  1.0000
  S   S479      1.0  0.58434  0.94148  0.77784  1.0000
  H   H2108     1.0  0.45706  0.83709  0.83428  1.0000
  H   H2109     1.0  0.59613  0.89786  0.93801  1.0000
  N   N114      1.0  0.43348  0.92243  0.80313  1.0000
  C   C1799     1.0  0.42626  0.90808  0.81889  1.0000
  C   C1800     1.0  0.41750  0.93705  0.79734  1.0000
  C   C1801     1.0  0.44308  0.91338  0.78692  1.0000
  C   C1802     1.0  0.44576  0.93069  0.80946  1.0000
  C   C1803     1.0  0.46551  0.92680  0.80341  1.0000
  C   C1804     1.0  0.43810  0.94223  0.82288  1.0000
  C   C1805     1.0  0.44944  0.95002  0.82920  1.0000
  H   H2110     1.0  0.41747  0.91415  0.83105  1.0000
  H   H2111     1.0  0.41744  0.90103  0.81465  1.0000
  H   H2112     1.0  0.43788  0.89711  0.82392  1.0000
  H   H2113     1.0  0.40738  0.94227  0.80937  1.0000
  H   H2114     1.0  0.40924  0.93162  0.79057  1.0000
  H   H2115     1.0  0.42240  0.94918  0.78709  1.0000
  H   H2116     1.0  0.45403  0.90094  0.79057  1.0000
  H   H2117     1.0  0.43326  0.90806  0.78196  1.0000
  H   H2118     1.0  0.44950  0.92330  0.77481  1.0000
  H   H2119     1.0  0.47272  0.91764  0.79378  1.0000
  H   H2120     1.0  0.42329  0.94519  0.82877  1.0000
  C   C1806     1.0  0.64690  0.87155  0.97106  1.0000
  H   H2121     1.0  0.48118  0.77434  0.84128  1.0000
  H   H2122     1.0  0.38545  0.81771  0.62732  1.0000
  C   C1807     1.0  0.47578  0.78213  0.85232  1.0000
  H   H2123     1.0  0.33014  0.79338  0.79735  1.0000
  C   C1808     1.0  0.34091  0.78399  0.78890  1.0000
  S   S480      1.0  0.55114  0.95339  0.82292  1.0000
  H   H2124     1.0  0.45631  0.76130  0.82226  1.0000
  H   H2125     1.0  0.50944  0.93733  0.88029  1.0000
  C   C1809     1.0  0.48785  0.80227  0.81520  1.0000
  C   C1810     1.0  0.59512  0.95946  0.77803  1.0000
  H   H2126     1.0  0.40613  0.84623  0.86611  1.0000
  S   S481      1.0  0.63797  0.93550  0.95500  1.0000
  Fe  Fe238     1.0  0.56058  0.93472  0.80226  1.0000
  H   H2127     1.0  0.37402  0.76254  0.77899  1.0000
  H   H2128     1.0  0.47084  0.75690  0.87238  1.0000
  N   N115      1.0  0.47977  0.81330  0.83013  1.0000
  H   H2129     1.0  0.48866  0.74772  0.94214  1.0000
  H   H2130     1.0  0.60968  0.91159  0.91932  1.0000
  H   H2131     1.0  0.36730  0.82772  0.66510  1.0000
  C   C1811     1.0  0.36623  0.85478  0.93778  1.0000
  N   N116      1.0  0.61799  0.88173  0.92021  1.0000
  H   H2132     1.0  0.33522  0.78423  0.77667  1.0000
  C   C1812     1.0  0.60937  0.93830  0.86690  1.0000
  H   H2133     1.0  0.48828  0.83388  0.83947  1.0000
  H   H2134     1.0  0.52111  0.95145  0.88677  1.0000
  H   H2135     1.0  0.49189  0.81139  0.80122  1.0000
  H   H2136     1.0  0.49884  0.83182  0.81599  1.0000
  H   H2137     1.0  0.49178  0.93108  0.80543  1.0000
  H   H2138     1.0  0.40793  0.86752  0.92832  1.0000
  H   H2139     1.0  0.46173  0.96295  0.91992  1.0000
  H   H2140     1.0  0.35953  0.78138  0.84669  1.0000
  H   H2141     1.0  0.59989  0.94072  0.89579  1.0000
  S   S482      1.0  0.53191  0.93814  0.79671  1.0000
  N   N117      1.0  0.35903  0.79006  0.78284  1.0000
  H   H2142     1.0  0.43382  0.77327  0.69187  1.0000
  H   H2143     1.0  0.50616  0.93777  0.90443  1.0000
  H   H2144     1.0  0.48123  0.94425  0.86701  1.0000
  C   C1813     1.0  0.36730  0.78995  0.79856  1.0000
  H   H2145     1.0  0.38975  0.86859  0.88583  1.0000
  H   H2146     1.0  0.41943  0.81374  0.87983  1.0000
  S   S483      1.0  0.65138  0.97846  0.91822  1.0000
  C   C1814     1.0  0.49388  0.82358  0.83023  1.0000
  H   H2147     1.0  0.45204  0.81990  0.82524  1.0000
  C   C1815     1.0  0.61050  0.89799  0.92947  1.0000
  H   H2148     1.0  0.61986  0.96973  0.97203  1.0000
  C   C1816     1.0  0.46871  0.94622  0.82271  1.0000
  Fe  Fe239     1.0  0.34855  0.97423  0.88254  1.0000
  H   H2149     1.0  0.56951  0.93217  0.89930  1.0000
  H   H2150     1.0  0.62076  0.85178  0.92920  1.0000
  C   C1817     1.0  0.42510  0.78637  0.68644  1.0000
  C   C1818     1.0  0.34825  0.88261  0.97774  1.0000
  H   H2151     1.0  0.42537  0.75683  0.87915  1.0000
  H   H2152     1.0  0.65115  0.85404  0.92219  1.0000
  S   S484      1.0  0.61720  0.96299  0.91186  1.0000
  N   N118      1.0  0.38264  0.86198  0.92541  1.0000
  C   C1819     1.0  0.46645  0.81034  0.86474  1.0000
  C   C1820     1.0  0.46058  0.79989  0.88262  1.0000
  C   C1821     1.0  0.46986  0.77184  0.87025  1.0000
  C   C1822     1.0  0.46219  0.78069  0.88534  1.0000
  H   H2153     1.0  0.46465  0.82524  0.86328  1.0000
  H   H2154     1.0  0.45457  0.80675  0.89439  1.0000
  C   C1823     1.0  0.63730  0.88213  0.90941  1.0000
  N   N119      1.0  0.38870  0.80478  0.65562  1.0000
  C   C1824     1.0  0.38870  0.78632  0.65226  1.0000
  H   H2155     1.0  0.46659  0.83544  0.81033  1.0000
  C   C1825     1.0  0.39438  0.81692  0.63716  1.0000
  C   C1826     1.0  0.40136  0.80372  0.66797  1.0000
  C   C1827     1.0  0.41318  0.78674  0.67500  1.0000
  C   C1828     1.0  0.40227  0.82009  0.67315  1.0000
  S   S485      1.0  0.50822  0.74021  0.97165  1.0000
  H   H2156     1.0  0.40392  0.98007  0.90408  1.0000
  H   H2157     1.0  0.42947  0.93485  0.90295  1.0000
  H   H2158     1.0  0.45736  0.77262  0.89913  1.0000
  C   C1829     1.0  0.59660  0.93753  0.88409  1.0000
  H   H2159     1.0  0.49845  0.96545  0.85810  1.0000
  H   H2160     1.0  0.34562  0.77978  0.82190  1.0000
  N   N120      1.0  0.49164  0.96253  0.88837  1.0000
  H   H2161     1.0  0.44324  0.95899  0.83928  1.0000
  H   H2162     1.0  0.39326  0.83151  0.63834  1.0000
  Fe  Fe240     1.0  0.52267  0.95530  0.81871  1.0000
  H   H2163     1.0  0.57238  0.96867  0.86157  1.0000
  H   H2164     1.0  0.41334  0.77352  0.67206  1.0000
  S   S486      1.0  0.33301  0.74977  0.71875  1.0000
  H   H2165     1.0  0.41426  0.83213  0.68884  1.0000
  H   H2166     1.0  0.33156  0.75920  0.96727  1.0000
  C   C1830     1.0  0.39223  0.79640  0.80952  1.0000
  H   H2167     1.0  0.43287  0.76617  0.96103  1.0000
  H   H2168     1.0  0.64490  0.96744  0.96632  1.0000
  C   C1831     1.0  0.40811  0.73412  0.80371  1.0000
  H   H2169     1.0  0.63024  0.91009  0.89240  1.0000
  S   S487      1.0  0.38952  0.75374  0.93015  1.0000
  H   H2170     1.0  0.35497  0.74157  0.63325  1.0000
  C   C1832     1.0  0.57829  0.98007  0.85106  1.0000
  H   H2171     1.0  0.49068  0.96665  0.91590  1.0000
  S   S488      1.0  0.33183  0.78394  0.73838  1.0000
  S   S489      1.0  0.36402  0.73977  0.75737  1.0000
  H   H2172     1.0  0.32551  0.89388  0.96324  1.0000
  C   C1833     1.0  0.60376  0.96968  0.76106  1.0000
  H   H2173     1.0  0.56005  0.97930  0.78070  1.0000
  H   H2174     1.0  0.65254  0.96288  0.83218  1.0000
  H   H2175     1.0  0.42143  0.74392  0.83037  1.0000
  C   C1834     1.0  0.34890  0.73555  0.66346  1.0000
  H   H2176     1.0  0.53581  0.97972  0.78946  1.0000
  C   C1835     1.0  0.64116  0.89807  0.89545  1.0000
  H   H2177     1.0  0.34143  0.77690  0.97071  1.0000
  C   C1836     1.0  0.63128  0.97742  0.96912  1.0000
  H   H2178     1.0  0.41097  0.74711  0.80439  1.0000
  C   C1837     1.0  0.34392  0.76176  0.97070  1.0000
  H   H2179     1.0  0.40965  0.73945  0.85406  1.0000
  S   S490      1.0  0.45314  0.73327  0.85641  1.0000
  H   H2180     1.0  0.40761  0.74421  0.77431  1.0000
  C   C1838     1.0  0.65124  0.89995  0.94743  1.0000
  C   C1839     1.0  0.65299  0.97985  0.80455  1.0000
  C   C1840     1.0  0.60115  0.97993  0.79461  1.0000
  H   H2181     1.0  0.60522  0.98026  0.86719  1.0000
  H   H2182     1.0  0.58560  0.97719  0.88546  1.0000
  H   H2183     1.0  0.46261  0.75629  0.97589  1.0000
  C   C1841     1.0  0.40621  0.73268  0.78627  1.0000
  C   C1842     1.0  0.54662  0.98175  0.77640  1.0000
  S   S491      1.0  0.50118  0.98212  0.81617  1.0000
  H   H2184     1.0  0.50632  0.98131  0.86603  1.0000
  S   S492      1.0  0.41493  0.98159  0.86407  1.0000
  H   H2185     1.0  0.94283  0.98487  0.44918  1.0000
  C   C1843     1.0  0.89859  0.08420  0.30651  1.0000
  H   H2186     1.0  0.76009  0.23052  0.13922  1.0000
  H   H2187     1.0  0.74363  0.05875  0.15508  1.0000
  Fe  Fe241     1.0  0.96994  0.04910  0.44028  1.0000
  S   S493      1.0  0.95535  0.02503  0.45155  1.0000
  H   H2188     1.0  0.70430  0.20996  0.25973  1.0000
  Fe  Fe242     1.0  0.94349  0.06829  0.41299  1.0000
  S   S494      1.0  0.92702  0.04573  0.42292  1.0000
  S   S495      1.0  0.93750  0.09253  0.38884  1.0000
  Fe  Fe243     1.0  0.92913  0.04695  0.45142  1.0000
  H   H2189     1.0  0.69536  0.02262  0.24220  1.0000
  Fe  Fe244     1.0  0.95482  0.02617  0.42187  1.0000
  H   H2190     1.0  0.73353  0.04230  0.24840  1.0000
  S   S496      1.0  0.94345  0.07122  0.44201  1.0000
  S   S497      1.0  0.97153  0.04848  0.41021  1.0000
  Fe  Fe245     1.0  0.83059  0.14527  0.30740  1.0000
  S   S498      1.0  0.85110  0.15780  0.28324  1.0000
  S   S499      1.0  0.80098  0.15548  0.30336  1.0000
  Fe  Fe246     1.0  0.86143  0.12153  0.32823  1.0000
  S   S500      1.0  0.88409  0.13190  0.30533  1.0000
  S   S501      1.0  0.86794  0.09923  0.35359  1.0000
  Fe  Fe247     1.0  0.86472  0.16002  0.30507  1.0000
  S   S502      1.0  0.87599  0.18448  0.30526  1.0000
  Fe  Fe248     1.0  0.86796  0.12853  0.28598  1.0000
  S   S503      1.0  0.87911  0.11405  0.26182  1.0000
  S   S504      1.0  0.84280  0.14994  0.32934  1.0000
  S   S505      1.0  0.84674  0.11577  0.30882  1.0000
  S   S506      1.0  0.80383  0.08669  0.19780  1.0000
  S   S507      1.0  0.84752  0.05508  0.17270  1.0000
  Fe  Fe249     1.0  0.81006  0.08697  0.22488  1.0000
  S   S508      1.0  0.80927  0.11413  0.23177  1.0000
  Fe  Fe250     1.0  0.82956  0.18942  0.08882  1.0000
  S   S509      1.0  0.84438  0.17913  0.11268  1.0000
  S   S510      1.0  0.83394  0.21677  0.06888  1.0000
  Fe  Fe251     1.0  0.80375  0.16136  0.10535  1.0000
  S   S511      1.0  0.81620  0.14984  0.13086  1.0000
  S   S512      1.0  0.78048  0.14715  0.10749  1.0000
  Fe  Fe252     1.0  0.81569  0.17945  0.13060  1.0000
  S   S513      1.0  0.80585  0.19141  0.15658  1.0000
  Fe  Fe253     1.0  0.84345  0.15060  0.11052  1.0000
  S   S514      1.0  0.86796  0.12676  0.11356  1.0000
  S   S515      1.0  0.80069  0.19100  0.10706  1.0000
  S   S516      1.0  0.83125  0.16050  0.08468  1.0000
  C   C1844     1.0  0.77133  0.15329  0.21048  1.0000
  H   H2191     1.0  0.77484  0.10201  0.16573  1.0000
  H   H2192     1.0  0.75745  0.10276  0.23285  1.0000
  H   H2193     1.0  0.88316  0.06401  0.33726  1.0000
  H   H2194     1.0  0.76335  0.19535  0.18056  1.0000
  H   H2195     1.0  0.71440  0.10019  0.37531  1.0000
  C   C1845     1.0  0.78520  0.10572  0.15260  1.0000
  C   C1846     1.0  0.76054  0.11603  0.22328  1.0000
  C   C1847     1.0  0.74619  0.06123  0.20284  1.0000
  C   C1848     1.0  0.86469  0.01798  0.46156  1.0000
  Fe  Fe254     1.0  0.81256  0.04538  0.23953  1.0000
  C   C1849     1.0  0.81931  0.20742  0.15532  1.0000
  C   C1850     1.0  0.83081  0.21385  0.13834  1.0000
  S   S517      1.0  0.66750  0.02498  0.18187  1.0000
  C   C1851     1.0  0.78038  0.23154  0.08350  1.0000
  C   C1852     1.0  0.67853  0.21688  0.42449  1.0000
  H   H2196     1.0  0.81721  0.17130  0.23693  1.0000
  H   H2197     1.0  0.82973  0.21094  0.12554  1.0000
  C   C1853     1.0  0.84869  0.00075  0.39937  1.0000
  C   C1854     1.0  0.70042  0.19996  0.25435  1.0000
  C   C1855     1.0  0.71257  0.99304  0.26363  1.0000
  C   C1856     1.0  0.76647  0.15485  0.09065  1.0000
  C   C1857     1.0  0.76773  0.17111  0.07675  1.0000
  C   C1858     1.0  0.75554  0.17712  0.06416  1.0000
  C   C1859     1.0  0.74204  0.16697  0.06557  1.0000
  C   C1860     1.0  0.74113  0.15058  0.07928  1.0000
  C   C1861     1.0  0.75321  0.14462  0.09180  1.0000
  H   H2198     1.0  0.77799  0.17906  0.07576  1.0000
  H   H2199     1.0  0.75642  0.18970  0.05344  1.0000
  H   H2200     1.0  0.73114  0.14237  0.08021  1.0000
  H   H2201     1.0  0.75206  0.13215  0.10255  1.0000
  C   C1862     1.0  0.85353  0.07516  0.15677  1.0000
  C   C1863     1.0  0.86656  0.07326  0.14006  1.0000
  C   C1864     1.0  0.87110  0.08915  0.12691  1.0000
  C   C1865     1.0  0.86222  0.10701  0.13018  1.0000
  C   C1866     1.0  0.84919  0.10892  0.14688  1.0000
  C   C1867     1.0  0.84511  0.09303  0.16030  1.0000
  H   H2202     1.0  0.87321  0.05948  0.13729  1.0000
  H   H2203     1.0  0.88130  0.08760  0.11407  1.0000
  H   H2204     1.0  0.84262  0.12262  0.14966  1.0000
  H   H2205     1.0  0.83563  0.09466  0.17338  1.0000
  S   S518      1.0  0.75588  0.07728  0.20825  1.0000
  C   C1868     1.0  0.82908  0.11426  0.23925  1.0000
  C   C1869     1.0  0.84643  0.10298  0.23337  1.0000
  C   C1870     1.0  0.86197  0.10309  0.24004  1.0000
  C   C1871     1.0  0.86005  0.11428  0.25277  1.0000
  C   C1872     1.0  0.84267  0.12553  0.25851  1.0000
  C   C1873     1.0  0.82730  0.12571  0.25160  1.0000
  H   H2206     1.0  0.84797  0.09439  0.22349  1.0000
  H   H2207     1.0  0.87540  0.09438  0.23552  1.0000
  H   H2208     1.0  0.84086  0.13391  0.26856  1.0000
  H   H2209     1.0  0.81385  0.13426  0.25637  1.0000
  C   C1874     1.0  0.87682  0.20255  0.28507  1.0000
  H   H2210     1.0  0.85900  0.22165  0.24556  1.0000
  C   C1875     1.0  0.87198  0.00985  0.47763  1.0000
  H   H2211     1.0  0.70589  0.20138  0.14415  1.0000
  C   C1876     1.0  0.89864  0.99881  0.40757  1.0000
  C   C1877     1.0  0.88834  0.21501  0.28263  1.0000
  H   H2212     1.0  0.97768  0.08135  0.46285  1.0000
  C   C1878     1.0  0.90261  0.00788  0.41934  1.0000
  C   C1879     1.0  0.66631  0.06928  0.98028  1.0000
  H   H2213     1.0  0.89654  0.21329  0.29291  1.0000
  C   C1880     1.0  0.78623  0.13936  0.31154  1.0000
  C   C1881     1.0  0.76903  0.14404  0.30617  1.0000
  C   C1882     1.0  0.75715  0.13133  0.31201  1.0000
  C   C1883     1.0  0.76235  0.11383  0.32335  1.0000
  C   C1884     1.0  0.77939  0.10925  0.32910  1.0000
  C   C1885     1.0  0.79135  0.12199  0.32318  1.0000
  H   H2214     1.0  0.76480  0.15757  0.29750  1.0000
  H   H2215     1.0  0.73481  0.07481  0.12470  1.0000
  H   H2216     1.0  0.78330  0.09591  0.33821  1.0000
  H   H2217     1.0  0.80443  0.11847  0.32772  1.0000
  C   C1886     1.0  0.91878  0.09344  0.37845  1.0000
  C   C1887     1.0  0.91690  0.10574  0.36123  1.0000
  C   C1888     1.0  0.90160  0.10740  0.35321  1.0000
  C   C1889     1.0  0.88797  0.09687  0.36246  1.0000
  C   C1890     1.0  0.89006  0.08431  0.37943  1.0000
  C   C1891     1.0  0.90532  0.08264  0.38739  1.0000
  H   H2218     1.0  0.92729  0.11404  0.35414  1.0000
  H   H2219     1.0  0.90031  0.11688  0.33997  1.0000
  H   H2220     1.0  0.87961  0.07610  0.38670  1.0000
  H   H2221     1.0  0.90621  0.07349  0.40080  1.0000
  S   S519      1.0  0.96075  0.99970  0.41125  1.0000
  C   C1892     1.0  0.94036  0.01981  0.38471  1.0000
  C   C1893     1.0  0.93043  0.02160  0.37091  1.0000
  H   H2222     1.0  0.79651  0.10991  0.15634  1.0000
  S   S520      1.0  0.67133  0.17254  0.05961  1.0000
  H   H2223     1.0  0.94133  0.03215  0.38864  1.0000
  H   H2224     1.0  0.92355  0.03533  0.36456  1.0000
  H   H2225     1.0  0.72036  0.08102  0.20018  1.0000
  C   C1894     1.0  0.76356  0.20873  0.22131  1.0000
  C   C1895     1.0  0.88283  0.04199  0.45408  1.0000
  S   S521      1.0  0.88532  0.98786  0.33303  1.0000
  C   C1896     1.0  0.88955  0.22956  0.26681  1.0000
  H   H2226     1.0  0.66979  0.20004  0.41030  1.0000
  C   C1897     1.0  0.72981  0.03638  0.19387  1.0000
  C   C1898     1.0  0.87483  0.99677  0.27621  1.0000
  C   C1899     1.0  0.72680  0.12283  0.14636  1.0000
  H   H2227     1.0  0.73439  0.10174  0.16990  1.0000
  C   C1900     1.0  0.83857  0.01343  0.26978  1.0000
  S   S522      1.0  0.65598  0.03879  0.26162  1.0000
  H   H2228     1.0  0.67169  0.07350  0.10003  1.0000
  C   C1901     1.0  0.89035  0.21164  0.05796  1.0000
  C   C1902     1.0  0.87240  0.20763  0.06477  1.0000
  C   C1903     1.0  0.85665  0.22152  0.06145  1.0000
  H   H2229     1.0  0.72506  0.11288  0.13932  1.0000
  H   H2230     1.0  0.76621  0.04255  0.24461  1.0000
  H   H2231     1.0  0.90249  0.20070  0.06019  1.0000
  H   H2232     1.0  0.87080  0.19365  0.07216  1.0000
  H   H2233     1.0  0.91804  0.13363  0.40998  1.0000
  C   C1904     1.0  0.69314  0.16969  0.25882  1.0000
  H   H2234     1.0  0.80245  0.10945  0.11750  1.0000
  H   H2235     1.0  0.75168  0.09840  0.10314  1.0000
  H   H2236     1.0  0.71787  0.19547  0.11305  1.0000
  C   C1905     1.0  0.66122  0.14349  0.17390  1.0000
  H   H2237     1.0  0.86890  0.04553  0.37306  1.0000
  H   H2238     1.0  0.70020  0.21749  0.22700  1.0000
  H   H2239     1.0  0.79253  0.19399  0.27685  1.0000
  C   C1906     1.0  0.72396  0.14185  0.13795  1.0000
  C   C1907     1.0  0.73411  0.12932  0.17278  1.0000
  H   H2240     1.0  0.68091  0.08900  0.19481  1.0000
  H   H2241     1.0  0.73316  0.15779  0.17211  1.0000
  C   C1908     1.0  0.66680  0.21950  0.13357  1.0000
  H   H2242     1.0  0.82871  0.17634  0.25243  1.0000
  S   S523      1.0  0.69692  0.09904  0.26919  1.0000
  C   C1909     1.0  0.83242  0.22338  0.17097  1.0000
  H   H2243     1.0  0.78901  0.21758  0.21522  1.0000
  H   H2244     1.0  0.70569  0.17685  0.11986  1.0000
  H   H2245     1.0  0.71100  0.01611  0.28648  1.0000
  H   H2246     1.0  0.86105  0.98483  0.30389  1.0000
  H   H2247     1.0  0.73799  0.12434  0.18629  1.0000
  H   H2248     1.0  0.88426  0.01048  0.24768  1.0000
  C   C1910     1.0  0.91050  0.99756  0.43462  1.0000
  H   H2249     1.0  0.78458  0.08010  0.30520  1.0000
  C   C1911     1.0  0.73134  0.14840  0.16451  1.0000
  N   N121      1.0  0.67301  0.20581  0.44360  1.0000
  H   H2250     1.0  0.72003  0.14559  0.12450  1.0000
  H   H2251     1.0  0.77760  0.10580  0.11098  1.0000
  C   C1912     1.0  0.74642  0.07780  0.12837  1.0000
  N   N122      1.0  0.79272  0.08994  0.14280  1.0000
  H   H2252     1.0  0.88624  0.08902  0.29983  1.0000
  C   C1913     1.0  0.72002  0.05466  0.19472  1.0000
  Fe  Fe255     1.0  0.82611  0.06060  0.19848  1.0000
  H   H2253     1.0  0.77802  0.11825  0.14360  1.0000
  H   H2254     1.0  0.87490  0.01908  0.35729  1.0000
  C   C1914     1.0  0.65634  0.08567  0.16189  1.0000
  H   H2255     1.0  0.79354  0.07065  0.16968  1.0000
  N   N123      1.0  0.81420  0.07337  0.29343  1.0000
  C   C1915     1.0  0.81662  0.09181  0.29441  1.0000
  C   C1916     1.0  0.81046  0.07469  0.27482  1.0000
  C   C1917     1.0  0.79731  0.06920  0.30767  1.0000
  C   C1918     1.0  0.83146  0.05919  0.29602  1.0000
  C   C1919     1.0  0.83200  0.04358  0.31136  1.0000
  C   C1920     1.0  0.84849  0.06076  0.28286  1.0000
  C   C1921     1.0  0.84857  0.03036  0.31313  1.0000
  C   C1922     1.0  0.86485  0.04732  0.28463  1.0000
  C   C1923     1.0  0.86492  0.03217  0.29974  1.0000
  H   H2256     1.0  0.82864  0.09625  0.28371  1.0000
  Fe  Fe256     1.0  0.72087  0.11057  0.32001  1.0000
  H   H2257     1.0  0.81915  0.09149  0.30833  1.0000
  H   H2258     1.0  0.82150  0.07962  0.26306  1.0000
  H   H2259     1.0  0.79720  0.08475  0.27261  1.0000
  H   H2260     1.0  0.80950  0.06078  0.27327  1.0000
  H   H2261     1.0  0.79865  0.06885  0.32205  1.0000
  H   H2262     1.0  0.66432  0.17623  0.20406  1.0000
  H   H2263     1.0  0.79442  0.05566  0.30732  1.0000
  H   H2264     1.0  0.81976  0.04106  0.32197  1.0000
  H   H2265     1.0  0.84924  0.07227  0.27087  1.0000
  H   H2266     1.0  0.84860  0.01827  0.32462  1.0000
  H   H2267     1.0  0.87742  0.04843  0.27395  1.0000
  H   H2268     1.0  0.71456  0.08634  0.35958  1.0000
  N   N124      1.0  0.80379  0.19665  0.24698  1.0000
  H   H2269     1.0  0.68485  0.11998  0.42861  1.0000
  H   H2270     1.0  0.67498  0.06510  0.38718  1.0000
  C   C1924     1.0  0.65612  0.20824  0.13079  1.0000
  C   C1925     1.0  0.78596  0.19723  0.24211  1.0000
  H   H2271     1.0  0.78150  0.21519  0.13149  1.0000
  C   C1926     1.0  0.77325  0.18639  0.25448  1.0000
  C   C1927     1.0  0.93831  0.98804  0.37368  1.0000
  C   C1928     1.0  0.75621  0.18685  0.25037  1.0000
  C   C1929     1.0  0.75144  0.19792  0.23377  1.0000
  C   C1930     1.0  0.86314  0.03324  0.38022  1.0000
  H   H2272     1.0  0.66530  0.07645  0.12380  1.0000
  C   C1931     1.0  0.67821  0.09189  0.99781  1.0000
  H   H2273     1.0  0.67877  0.20253  0.08676  1.0000
  C   C1932     1.0  0.65917  0.11622  0.42490  1.0000
  C   C1933     1.0  0.84398  0.22393  0.13786  1.0000
  H   H2274     1.0  0.80789  0.16770  0.26176  1.0000
  C   C1934     1.0  0.67206  0.07491  0.28283  1.0000
  H   H2275     1.0  0.81825  0.99549  0.42884  1.0000
  H   H2276     1.0  0.69977  0.18692  0.44180  1.0000
  H   H2277     1.0  0.77632  0.17769  0.26760  1.0000
  H   H2278     1.0  0.67838  0.10667  0.17440  1.0000
  H   H2279     1.0  0.69136  0.09573  0.01822  1.0000
  H   H2280     1.0  0.73822  0.19829  0.23062  1.0000
  N   N125      1.0  0.88323  0.16020  0.36342  1.0000
  C   C1935     1.0  0.90012  0.15978  0.34807  1.0000
  C   C1936     1.0  0.86816  0.15710  0.35622  1.0000
  C   C1937     1.0  0.87727  0.17914  0.36772  1.0000
  C   C1938     1.0  0.88737  0.14617  0.38039  1.0000
  C   C1939     1.0  0.90205  0.14663  0.38850  1.0000
  C   C1940     1.0  0.87701  0.13194  0.38948  1.0000
  C   C1941     1.0  0.90635  0.13346  0.40441  1.0000
  C   C1942     1.0  0.88129  0.11901  0.40553  1.0000
  C   C1943     1.0  0.89602  0.11965  0.41288  1.0000
  H   H2281     1.0  0.89715  0.16958  0.33483  1.0000
  H   H2282     1.0  0.91165  0.16387  0.35140  1.0000
  H   H2283     1.0  0.90549  0.14560  0.34489  1.0000
  H   H2284     1.0  0.87194  0.14320  0.35230  1.0000
  H   H2285     1.0  0.86545  0.16777  0.34342  1.0000
  H   H2286     1.0  0.85467  0.15815  0.36660  1.0000
  H   H2287     1.0  0.87356  0.19000  0.35534  1.0000
  H   H2288     1.0  0.86481  0.17994  0.37946  1.0000
  H   H2289     1.0  0.88843  0.18318  0.37181  1.0000
  H   H2290     1.0  0.91049  0.15703  0.38243  1.0000
  H   H2291     1.0  0.86584  0.13011  0.38424  1.0000
  C   C1944     1.0  0.74315  0.02896  0.25070  1.0000
  Fe  Fe257     1.0  0.69450  0.22467  0.18996  1.0000
  H   H2292     1.0  0.67808  0.21840  0.37881  1.0000
  N   N126      1.0  0.85390  0.14968  0.17775  1.0000
  C   C1945     1.0  0.85632  0.15863  0.15749  1.0000
  C   C1946     1.0  0.86677  0.13105  0.17933  1.0000
  C   C1947     1.0  0.83441  0.14704  0.18458  1.0000
  C   C1948     1.0  0.85763  0.16082  0.18927  1.0000
  C   C1949     1.0  0.85786  0.15333  0.20852  1.0000
  C   C1950     1.0  0.86075  0.17931  0.18203  1.0000
  C   C1951     1.0  0.86175  0.16335  0.21963  1.0000
  C   C1952     1.0  0.86444  0.18930  0.19331  1.0000
  C   C1953     1.0  0.86507  0.18130  0.21202  1.0000
  H   H2293     1.0  0.87064  0.16134  0.15154  1.0000
  H   H2294     1.0  0.85423  0.14966  0.14901  1.0000
  H   H2295     1.0  0.84598  0.17200  0.15495  1.0000
  H   H2296     1.0  0.88158  0.13247  0.17582  1.0000
  H   H2297     1.0  0.86537  0.12292  0.16964  1.0000
  H   H2298     1.0  0.86410  0.12210  0.19357  1.0000
  H   H2299     1.0  0.82438  0.16077  0.18383  1.0000
  H   H2300     1.0  0.83082  0.13910  0.17605  1.0000
  H   H2301     1.0  0.83184  0.13918  0.19936  1.0000
  H   H2302     1.0  0.85519  0.13957  0.21510  1.0000
  H   H2303     1.0  0.86045  0.18643  0.16768  1.0000
  H   H2304     1.0  0.86247  0.15699  0.23414  1.0000
  H   H2305     1.0  0.86698  0.20332  0.18738  1.0000
  H   H2306     1.0  0.86829  0.18899  0.22058  1.0000
  C   C1954     1.0  0.67438  0.07459  0.15964  1.0000
  H   H2307     1.0  0.66287  0.19643  0.29899  1.0000
  C   C1955     1.0  0.85421  0.01648  0.25560  1.0000
  H   H2308     1.0  0.70280  0.07260  0.14425  1.0000
  H   H2309     1.0  0.72077  0.14247  0.24340  1.0000
  S   S524      1.0  0.80638  0.04130  0.21347  1.0000
  C   C1956     1.0  0.73698  0.01185  0.25564  1.0000
  H   H2310     1.0  0.90591  0.08006  0.27290  1.0000
  H   H2311     1.0  0.70026  0.08108  0.23955  1.0000
  C   C1957     1.0  0.80722  0.09542  0.12603  1.0000
  H   H2312     1.0  0.82000  0.09659  0.12988  1.0000
  C   C1958     1.0  0.77103  0.09503  0.12079  1.0000
  C   C1959     1.0  0.75606  0.09101  0.11616  1.0000
  S   S525      1.0  0.83410  0.06246  0.22432  1.0000
  H   H2313     1.0  0.81162  0.08501  0.11688  1.0000
  H   H2314     1.0  0.80843  0.22356  0.23036  1.0000
  C   C1960     1.0  0.72812  0.06698  0.19935  1.0000
  H   H2315     1.0  0.89484  0.09039  0.31917  1.0000
  C   C1961     1.0  0.77705  0.08553  0.13773  1.0000
  Fe  Fe258     1.0  0.78460  0.06782  0.21482  1.0000
  S   S526      1.0  0.78888  0.07030  0.24215  1.0000
  H   H2316     1.0  0.91030  0.09035  0.29686  1.0000
  H   H2317     1.0  0.81056  0.20805  0.18467  1.0000
  C   C1962     1.0  0.70522  0.09431  0.37020  1.0000
  H   H2318     1.0  0.69139  0.15624  0.26755  1.0000
  C   C1963     1.0  0.66704  0.15310  0.38796  1.0000
  H   H2319     1.0  0.73094  0.19046  0.19183  1.0000
  N   N127      1.0  0.69398  0.08252  0.38545  1.0000
  S   S527      1.0  0.84870  0.00819  0.45625  1.0000
  Fe  Fe259     1.0  0.67022  0.14188  0.06415  1.0000
  H   H2320     1.0  0.76921  0.06556  0.16384  1.0000
  C   C1964     1.0  0.77273  0.22497  0.07221  1.0000
  H   H2321     1.0  0.70639  0.05943  0.19139  1.0000
  C   C1965     1.0  0.80225  0.07376  0.15537  1.0000
  C   C1966     1.0  0.76635  0.07271  0.15023  1.0000
  C   C1967     1.0  0.75142  0.06880  0.14545  1.0000
  H   H2322     1.0  0.80645  0.06095  0.14940  1.0000
  H   H2323     1.0  0.81515  0.07638  0.15757  1.0000
  H   H2324     1.0  0.71311  0.03586  0.23538  1.0000
  C   C1968     1.0  0.68903  0.08149  0.14643  1.0000
  C   C1969     1.0  0.84115  0.00191  0.28718  1.0000
  N   N128      1.0  0.71694  0.01197  0.25825  1.0000
  H   H2325     1.0  0.86445  0.04054  0.43732  1.0000
  H   H2326     1.0  0.82911  0.99942  0.29819  1.0000
  C   C1970     1.0  0.86620  0.20493  0.27167  1.0000
  H   H2327     1.0  0.91371  0.06426  0.24711  1.0000
  H   H2328     1.0  0.69001  0.21412  0.45752  1.0000
  C   C1971     1.0  0.74802  0.03071  0.19709  1.0000
  C   C1972     1.0  0.75621  0.04310  0.20160  1.0000
  C   C1973     1.0  0.68564  0.21890  0.10239  1.0000
  H   H2329     1.0  0.72776  0.11773  0.24689  1.0000
  S   S528      1.0  0.90557  0.04353  0.47620  1.0000
  H   H2330     1.0  0.77021  0.03856  0.20417  1.0000
  H   H2331     1.0  0.70663  0.03724  0.26933  1.0000
  H   H2332     1.0  0.78961  0.01298  0.24960  1.0000
  C   C1974     1.0  0.74307  0.22842  0.09393  1.0000
  C   C1975     1.0  0.88994  0.03382  0.47032  1.0000
  N   N129      1.0  0.90380  0.06348  0.31140  1.0000
  C   C1976     1.0  0.90907  0.06497  0.27632  1.0000
  C   C1977     1.0  0.74225  0.17993  0.19691  1.0000
  C   C1978     1.0  0.76044  0.18277  0.19062  1.0000
  H   H2333     1.0  0.87756  0.02154  0.30073  1.0000
  C   C1979     1.0  0.94819  0.98625  0.38759  1.0000
  N   N130      1.0  0.66374  0.11540  0.20043  1.0000
  H   H2334     1.0  0.74762  0.14419  0.25481  1.0000
  C   C1980     1.0  0.91359  0.05601  0.26123  1.0000
  H   H2335     1.0  0.93243  0.06299  0.31066  1.0000
  C   C1981     1.0  0.78055  0.20852  0.22535  1.0000
  C   C1982     1.0  0.66784  0.11097  0.13854  1.0000
  C   C1983     1.0  0.90863  0.05456  0.29502  1.0000
  H   H2336     1.0  0.87553  0.05961  0.31855  1.0000
  S   S529      1.0  0.72580  0.17506  0.05084  1.0000
  C   C1984     1.0  0.77493  0.16948  0.19745  1.0000
  H   H2337     1.0  0.78904  0.17182  0.19265  1.0000
  H   H2338     1.0  0.78308  0.14344  0.21531  1.0000
  S   S530      1.0  0.89771  0.98649  0.27961  1.0000
  H   H2339     1.0  0.68416  0.05844  0.23589  1.0000
  C   C1985     1.0  0.92930  0.00574  0.36545  1.0000
  C   C1986     1.0  0.91997  0.05843  0.32058  1.0000
  C   C1987     1.0  0.91772  0.03656  0.26426  1.0000
  H   H2340     1.0  0.91686  0.06497  0.33296  1.0000
  Fe  Fe260     1.0  0.91283  0.98310  0.34109  1.0000
  H   H2341     1.0  0.92098  0.02964  0.25259  1.0000
  C   C1988     1.0  0.73846  0.16376  0.20998  1.0000
  H   H2342     1.0  0.72404  0.16255  0.21427  1.0000
  H   H2343     1.0  0.91346  0.98840  0.47152  1.0000
  C   C1989     1.0  0.66824  0.13089  0.98929  1.0000
  H   H2344     1.0  0.79101  0.21761  0.26354  1.0000
  C   C1990     1.0  0.74125  0.18195  0.13597  1.0000
  C   C1991     1.0  0.66665  0.19017  0.33741  1.0000
  C   C1992     1.0  0.88771  0.05687  0.32516  1.0000
  H   H2345     1.0  0.71665  0.07163  0.40028  1.0000
  Fe  Fe261     1.0  0.69041  0.13073  0.09657  1.0000
  C   C1993     1.0  0.91318  0.03478  0.29752  1.0000
  C   C1994     1.0  0.91755  0.02598  0.28236  1.0000
  S   S531      1.0  0.74774  0.09759  0.33005  1.0000
  C   C1995     1.0  0.92111  0.22432  0.09569  1.0000
  C   C1996     1.0  0.75297  0.14989  0.21720  1.0000
  H   H2346     1.0  0.72432  0.13079  0.22430  1.0000
  H   H2347     1.0  0.71565  0.05749  0.38533  1.0000
  H   H2348     1.0  0.75572  0.01662  0.19633  1.0000
  S   S532      1.0  0.70319  0.10714  0.11729  1.0000
  C   C1997     1.0  0.69324  0.19126  0.22884  1.0000
  H   H2349     1.0  0.91340  0.02592  0.31124  1.0000
  H   H2350     1.0  0.92076  0.01083  0.28468  1.0000
  C   C1998     1.0  0.85923  0.99364  0.29043  1.0000
  H   H2351     1.0  0.74392  0.13518  0.30776  1.0000
  C   C1999     1.0  0.70682  0.06677  0.39499  1.0000
  H   H2352     1.0  0.65454  0.09192  0.39557  1.0000
  C   C2000     1.0  0.72974  0.13096  0.23654  1.0000
  N   N131      1.0  0.72385  0.17548  0.13812  1.0000
  S   S533      1.0  0.71939  0.02032  0.18932  1.0000
  H   H2353     1.0  0.66823  0.17880  0.35001  1.0000
  C   C2001     1.0  0.87006  0.03415  0.44980  1.0000
  N   N132      1.0  0.74961  0.13261  0.23109  1.0000
  C   C2002     1.0  0.81970  0.21267  0.17157  1.0000
  C   C2003     1.0  0.76955  0.99561  0.25594  1.0000
  H   H2354     1.0  0.77069  0.13210  0.24584  1.0000
  C   C2004     1.0  0.68972  0.10228  0.40890  1.0000
  H   H2355     1.0  0.89112  0.04167  0.33124  1.0000
  H   H2356     1.0  0.92407  0.04311  0.32583  1.0000
  C   C2005     1.0  0.94908  0.00213  0.39325  1.0000
  H   H2357     1.0  0.98257  0.08069  0.42840  1.0000
  H   H2358     1.0  0.69594  0.10625  0.36281  1.0000
  C   C2006     1.0  0.75562  0.13200  0.24841  1.0000
  C   C2007     1.0  0.84537  0.01626  0.40791  1.0000
  H   H2359     1.0  0.69084  0.02184  0.27626  1.0000
  S   S534      1.0  0.67479  0.13569  0.30315  1.0000
  H   H2360     1.0  0.69306  0.06606  0.36641  1.0000
  C   C2008     1.0  0.71060  0.02145  0.24054  1.0000
  H   H2361     1.0  0.87357  0.10796  0.41191  1.0000
  C   C2009     1.0  0.68178  0.09387  0.39905  1.0000
  C   C2010     1.0  0.68562  0.09951  0.13551  1.0000
  C   C2011     1.0  0.68540  0.08208  0.26791  1.0000
  H   H2362     1.0  0.81687  0.99214  0.39764  1.0000
  H   H2363     1.0  0.67416  0.08564  0.36841  1.0000
  C   C2012     1.0  0.66195  0.09712  0.40279  1.0000
  C   C2013     1.0  0.68353  0.07447  0.37657  1.0000
  H   H2364     1.0  0.74649  0.17883  0.26027  1.0000
  H   H2365     1.0  0.68234  0.07693  0.00203  1.0000
  H   H2366     1.0  0.77581  0.11483  0.22096  1.0000
  H   H2367     1.0  0.74009  0.19694  0.12886  1.0000
  S   S535      1.0  0.67197  0.05100  0.20843  1.0000
  S   S536      1.0  0.69313  0.15951  0.09506  1.0000
  C   C2014     1.0  0.87226  0.00811  0.25878  1.0000
  C   C2015     1.0  0.69060  0.17405  0.24039  1.0000
  H   H2368     1.0  0.69516  0.18153  0.15229  1.0000
  S   S537      1.0  0.70060  0.13188  0.06590  1.0000
  H   H2369     1.0  0.68225  0.13705  0.36712  1.0000
  Fe  Fe262     1.0  0.69982  0.14713  0.30069  1.0000
  C   C2016     1.0  0.69805  0.20425  0.23584  1.0000
  H   H2370     1.0  0.80410  0.10303  0.29202  1.0000
  H   H2371     1.0  0.86253  0.99113  0.37334  1.0000
  H   H2372     1.0  0.67707  0.06048  0.16761  1.0000
  Fe  Fe263     1.0  0.70086  0.16176  0.06410  1.0000
  H   H2373     1.0  0.73033  0.17298  0.10919  1.0000
  H   H2374     1.0  0.85243  0.02505  0.24205  1.0000
  C   C2017     1.0  0.75080  0.99509  0.25812  1.0000
  C   C2018     1.0  0.66174  0.08208  0.10980  1.0000
  C   C2019     1.0  0.86722  0.21975  0.25585  1.0000
  C   C2020     1.0  0.68367  0.10253  0.00718  1.0000
  S   S538      1.0  0.72029  0.12326  0.28993  1.0000
  H   H2375     1.0  0.82889  0.20780  0.23654  1.0000
  H   H2376     1.0  0.75352  0.11903  0.25908  1.0000
  H   H2377     1.0  0.75733  0.11648  0.20965  1.0000
  H   H2378     1.0  0.90912  0.22005  0.10661  1.0000
  S   S539      1.0  0.70198  0.17685  0.28851  1.0000
  S   S540      1.0  0.70250  0.13573  0.33035  1.0000
  Fe  Fe264     1.0  0.68797  0.02488  0.19863  1.0000
  C   C2021     1.0  0.85940  0.00237  0.38074  1.0000
  H   H2379     1.0  0.68124  0.17793  0.45938  1.0000
  Fe  Fe265     1.0  0.67907  0.12220  0.33237  1.0000
  S   S541      1.0  0.67527  0.00583  0.22421  1.0000
  C   C2022     1.0  0.69813  0.18260  0.26576  1.0000
  S   S542      1.0  0.69763  0.09563  0.32431  1.0000
  S   S543      1.0  0.71690  0.22604  0.16399  1.0000
  H   H2380     1.0  0.85704  0.19557  0.27362  1.0000
  C   C2023     1.0  0.76191  0.02929  0.24851  1.0000
  H   H2381     1.0  0.93414  0.21711  0.10088  1.0000
  H   H2382     1.0  0.72851  0.22750  0.09771  1.0000
  H   H2383     1.0  0.66863  0.07956  0.29591  1.0000
  C   C2024     1.0  0.68973  0.07587  0.25107  1.0000
  C   C2025     1.0  0.66864  0.14248  0.37474  1.0000
  H   H2384     1.0  0.69312  0.10781  0.18885  1.0000
  H   H2385     1.0  0.71117  0.18444  0.16447  1.0000
  H   H2386     1.0  0.66395  0.14601  0.98646  1.0000
  C   C2026     1.0  0.79987  0.20322  0.26473  1.0000
  C   C2027     1.0  0.70841  0.18612  0.15034  1.0000
  H   H2387     1.0  0.75967  0.21754  0.20850  1.0000
  C   C2028     1.0  0.71923  0.18028  0.11928  1.0000
  H   H2388     1.0  0.89975  0.10912  0.42487  1.0000
  C   C2029     1.0  0.66704  0.05589  0.26367  1.0000
  Fe  Fe266     1.0  0.69546  0.11041  0.29466  1.0000
  H   H2389     1.0  0.68682  0.16399  0.23503  1.0000
  C   C2030     1.0  0.67541  0.20714  0.09987  1.0000
  H   H2390     1.0  0.68250  0.17918  0.43518  1.0000
  C   C2031     1.0  0.81562  0.20853  0.23246  1.0000
  H   H2391     1.0  0.81951  0.20412  0.21877  1.0000
  C   C2032     1.0  0.70593  0.02222  0.27320  1.0000
  C   C2033     1.0  0.73198  0.11655  0.16364  1.0000
  C   C2034     1.0  0.86647  0.01838  0.37136  1.0000
  S   S544      1.0  0.81572  0.02361  0.26609  1.0000
  C   C2035     1.0  0.72638  0.15525  0.14670  1.0000
  H   H2392     1.0  0.67922  0.11131  0.22194  1.0000
  S   S545      1.0  0.91609  0.00864  0.34864  1.0000
  H   H2393     1.0  0.88694  0.05449  0.44497  1.0000
  C   C2036     1.0  0.89268  0.22961  0.04800  1.0000
  H   H2394     1.0  0.70465  0.10069  0.40660  1.0000
  C   C2037     1.0  0.68143  0.22508  0.11922  1.0000
  H   H2395     1.0  0.91399  0.00532  0.44285  1.0000
  S   S546      1.0  0.66014  0.13903  0.09535  1.0000
  C   C2038     1.0  0.68053  0.06300  0.24893  1.0000
  Fe  Fe267     1.0  0.66382  0.16842  0.09119  1.0000
  H   H2396     1.0  0.67536  0.18423  0.32514  1.0000
  H   H2397     1.0  0.66051  0.22175  0.27160  1.0000
  H   H2398     1.0  0.85017  0.04365  0.40544  1.0000
  S   S547      1.0  0.69144  0.19577  0.20545  1.0000
  H   H2399     1.0  0.71990  0.98475  0.25264  1.0000
  H   H2400     1.0  0.90006  0.02302  0.41630  1.0000
  H   H2401     1.0  0.74490  0.18058  0.14961  1.0000
  H   H2402     1.0  0.68249  0.13007  0.01067  1.0000
  C   C2039     1.0  0.77499  0.22995  0.13228  1.0000
  H   H2403     1.0  0.83735  0.01641  0.42198  1.0000
  C   C2040     1.0  0.85262  0.03216  0.39846  1.0000
  C   C2041     1.0  0.68466  0.18663  0.44507  1.0000
  C   C2042     1.0  0.67853  0.11329  0.42159  1.0000
  C   C2043     1.0  0.77508  0.01266  0.25120  1.0000
  H   H2404     1.0  0.75328  0.17376  0.12735  1.0000
  H   H2405     1.0  0.92134  0.21864  0.08340  1.0000
  C   C2044     1.0  0.67872  0.12195  0.00291  1.0000
  C   C2045     1.0  0.67583  0.21191  0.40871  1.0000
  C   C2046     1.0  0.81484  0.17717  0.24959  1.0000
  H   H2406     1.0  0.71802  0.01364  0.22920  1.0000
  H   H2407     1.0  0.97649  0.08936  0.40579  1.0000
  H   H2408     1.0  0.67287  0.20157  0.33828  1.0000
  H   H2409     1.0  0.71631  0.98523  0.27725  1.0000
  H   H2410     1.0  0.77992  0.98273  0.25793  1.0000
  H   H2411     1.0  0.97838  0.10521  0.41858  1.0000
  H   H2412     1.0  0.65976  0.06512  0.99537  1.0000
  H   H2413     1.0  0.67946  0.15579  0.39027  1.0000
  H   H2414     1.0  0.69887  0.05810  0.40716  1.0000
  C   C2047     1.0  0.68065  0.22228  0.39056  1.0000
  H   H2415     1.0  0.67033  0.20568  0.47284  1.0000
  C   C2048     1.0  0.67517  0.21388  0.45861  1.0000
  C   C2049     1.0  0.67972  0.10428  0.18915  1.0000
  H   H2416     1.0  0.66466  0.09643  0.10516  1.0000
  H   H2417     1.0  0.89322  0.00686  0.39534  1.0000
  H   H2418     1.0  0.69682  0.22324  0.09115  1.0000
  H   H2419     1.0  0.81293  0.20353  0.26860  1.0000
  C   C2050     1.0  0.87901  0.23202  0.25341  1.0000
  C   C2051     1.0  0.66746  0.10059  0.98382  1.0000
  C   C2052     1.0  0.66273  0.12044  0.97981  1.0000
  H   H2420     1.0  0.83949  0.98532  0.43751  1.0000
  C   C2053     1.0  0.98473  0.09125  0.41511  1.0000
  H   H2421     1.0  0.85341  0.22813  0.12479  1.0000
  H   H2422     1.0  0.69736  0.99384  0.26527  1.0000
  C   C2054     1.0  0.66300  0.06178  0.28072  1.0000
  H   H2423     1.0  0.80614  0.22843  0.10533  1.0000
  Fe  Fe268     1.0  0.65822  0.03239  0.23317  1.0000
  C   C2055     1.0  0.66046  0.20195  0.11395  1.0000
  H   H2424     1.0  0.83291  0.22707  0.18361  1.0000
  H   H2425     1.0  0.66672  0.22840  0.45807  1.0000
  C   C2056     1.0  0.66318  0.13559  0.19270  1.0000
  C   C2057     1.0  0.84506  0.22841  0.15425  1.0000
  H   H2426     1.0  0.78137  0.22098  0.05937  1.0000
  H   H2427     1.0  0.66026  0.13498  0.16490  1.0000
  C   C2058     1.0  0.66580  0.10930  0.22025  1.0000
  H   H2428     1.0  0.66563  0.09419  0.22561  1.0000
  H   H2429     1.0  0.65861  0.16822  0.15195  1.0000
  S   S548      1.0  0.66076  0.12193  0.05216  1.0000
  H   H2430     1.0  0.66328  0.22438  0.14651  1.0000
  C   C2059     1.0  0.66029  0.16255  0.16633  1.0000
  C   C2060     1.0  0.66349  0.16701  0.19564  1.0000
  H   H2431     1.0  0.66618  0.14329  0.21769  1.0000
  C   C2061     1.0  0.66130  0.17431  0.17724  1.0000
  C   C2062     1.0  0.66449  0.14794  0.20335  1.0000
  H   H2432     1.0  0.66545  0.12527  0.13096  1.0000
  H   H2433     1.0  0.66041  0.18913  0.17144  1.0000
  C   C2063     1.0  0.75413  0.22335  0.07744  1.0000
  H   H2434     1.0  0.74825  0.21826  0.06863  1.0000
  C   C2064     1.0  0.65456  0.20995  0.30122  1.0000
  H   H2435     1.0  0.65924  0.98619  0.97915  1.0000
  N   N133      1.0  0.84163  0.98349  0.40906  1.0000
  C   C2065     1.0  0.83078  0.98389  0.42846  1.0000
  C   C2066     1.0  0.86144  0.00790  0.69429  1.0000
  S   S549      1.0  0.69822  0.03522  0.75307  1.0000
  C   C2067     1.0  0.73465  0.16816  0.69716  1.0000
  C   C2068     1.0  0.95166  0.04431  0.49262  1.0000
  H   H2436     1.0  0.86783  0.99755  0.48671  1.0000
  C   C2069     1.0  0.79969  0.22749  0.69118  1.0000
  Fe  Fe269     1.0  0.73427  0.08535  0.79684  1.0000
  S   S550      1.0  0.72916  0.09628  0.82274  1.0000
  S   S551      1.0  0.71767  0.10091  0.77511  1.0000
  Fe  Fe270     1.0  0.76459  0.05255  0.80869  1.0000
  S   S552      1.0  0.76205  0.06054  0.83594  1.0000
  S   S553      1.0  0.78642  0.02845  0.79962  1.0000
  Fe  Fe271     1.0  0.73106  0.06606  0.83740  1.0000
  S   S554      1.0  0.70749  0.05888  0.86153  1.0000
  Fe  Fe272     1.0  0.76035  0.08978  0.81859  1.0000
  S   S555      1.0  0.77863  0.11021  0.81374  1.0000
  S   S556      1.0  0.73392  0.05560  0.81152  1.0000
  S   S557      1.0  0.76508  0.08121  0.79134  1.0000
  Fe  Fe273     1.0  0.86682  0.07966  0.67766  1.0000
  S   S558      1.0  0.84925  0.06073  0.69831  1.0000
  S   S559      1.0  0.88633  0.07129  0.65151  1.0000
  Fe  Fe274     1.0  0.84755  0.11315  0.69618  1.0000
  S   S560      1.0  0.82833  0.09693  0.71813  1.0000
  S   S561      1.0  0.83977  0.14338  0.69861  1.0000
  Fe  Fe275     1.0  0.85350  0.07380  0.71973  1.0000
  S   S562      1.0  0.85812  0.05601  0.74760  1.0000
  Fe  Fe276     1.0  0.82560  0.08540  0.69501  1.0000
  S   S563      1.0  0.79787  0.08198  0.69309  1.0000
  S   S564      1.0  0.87342  0.09086  0.69953  1.0000
  S   S565      1.0  0.84255  0.10356  0.67265  1.0000
  Fe  Fe277     1.0  0.75650  0.07840  0.60268  1.0000
  S   S566      1.0  0.75897  0.05960  0.63050  1.0000
  S   S567      1.0  0.74403  0.10862  0.60435  1.0000
  Fe  Fe278     1.0  0.77277  0.04610  0.58210  1.0000
  S   S568      1.0  0.77673  0.02475  0.60837  1.0000
  S   S569      1.0  0.78407  0.04055  0.55272  1.0000
  Fe  Fe279     1.0  0.74819  0.03975  0.62105  1.0000
  S   S570      1.0  0.72936  0.02273  0.64322  1.0000
  Fe  Fe280     1.0  0.78702  0.04625  0.61592  1.0000
  S   S571      1.0  0.81281  0.03914  0.62784  1.0000
  S   S572      1.0  0.74319  0.05958  0.59406  1.0000
  S   S573      1.0  0.78552  0.06664  0.58865  1.0000
  H   H2437     1.0  0.82399  0.15711  0.73637  1.0000
  H   H2438     1.0  0.70908  0.02576  0.80522  1.0000
  H   H2439     1.0  0.89009  0.01139  0.49456  1.0000
  S   S574      1.0  0.91935  0.00526  0.58565  1.0000
  Fe  Fe281     1.0  0.80265  0.20119  0.81908  1.0000
  H   H2440     1.0  0.84938  0.98780  0.54728  1.0000
  H   H2441     1.0  0.97838  0.07075  0.58569  1.0000
  H   H2442     1.0  0.85389  0.02949  0.59396  1.0000
  C   C2070     1.0  0.70638  0.05491  0.70191  1.0000
  H   H2443     1.0  0.70575  0.20822  0.64292  1.0000
  H   H2444     1.0  0.75507  0.12762  0.78333  1.0000
  H   H2445     1.0  0.96994  0.04337  0.51970  1.0000
  C   C2071     1.0  0.76083  0.14774  0.73705  1.0000
  C   C2072     1.0  0.88972  0.15818  0.68893  1.0000
  H   H2446     1.0  0.87619  0.00418  0.69442  1.0000
  S   S575      1.0  0.77556  0.19324  0.82303  1.0000
  H   H2447     1.0  0.78741  0.19475  0.72972  1.0000
  Fe  Fe282     1.0  0.66910  0.04278  0.74825  1.0000
  C   C2073     1.0  0.89975  0.21716  0.60815  1.0000
  H   H2448     1.0  0.67663  0.08773  0.84560  1.0000
  C   C2074     1.0  0.83680  0.01498  0.67741  1.0000
  H   H2449     1.0  0.74984  0.14190  0.73469  1.0000
  H   H2450     1.0  0.66601  0.10923  0.94693  1.0000
  Fe  Fe283     1.0  0.70133  0.18760  0.74896  1.0000
  H   H2451     1.0  0.87909  0.01643  0.56964  1.0000
  H   H2452     1.0  0.67192  0.14940  0.69012  1.0000
  C   C2075     1.0  0.94109  0.04089  0.60915  1.0000
  H   H2453     1.0  0.82395  0.04756  0.58623  1.0000
  C   C2076     1.0  0.78817  0.01813  0.54778  1.0000
  C   C2077     1.0  0.78285  0.00292  0.56141  1.0000
  H   H2454     1.0  0.90662  0.18083  0.64484  1.0000
  H   H2455     1.0  0.69236  0.06322  0.82779  1.0000
  C   C2078     1.0  0.80178  0.99773  0.52530  1.0000
  C   C2079     1.0  0.79735  0.01551  0.52965  1.0000
  H   H2456     1.0  0.77549  0.00485  0.57535  1.0000
  H   H2457     1.0  0.87418  0.04140  0.51002  1.0000
  H   H2458     1.0  0.80900  0.99588  0.51132  1.0000
  H   H2459     1.0  0.80110  0.02728  0.51889  1.0000
  C   C2080     1.0  0.75838  0.12517  0.59603  1.0000
  C   C2081     1.0  0.75118  0.14319  0.59966  1.0000
  C   C2082     1.0  0.78772  0.13438  0.57952  1.0000
  C   C2083     1.0  0.77667  0.12080  0.58589  1.0000
  H   H2460     1.0  0.73696  0.14675  0.60726  1.0000
  H   H2461     1.0  0.78230  0.10704  0.58283  1.0000
  C   C2084     1.0  0.89198  0.04764  0.64955  1.0000
  C   C2085     1.0  0.89361  0.04352  0.63211  1.0000
  C   C2086     1.0  0.90010  0.02508  0.62941  1.0000
  C   C2087     1.0  0.90544  0.01057  0.64400  1.0000
  C   C2088     1.0  0.90359  0.01462  0.66156  1.0000
  C   C2089     1.0  0.89675  0.03308  0.66439  1.0000
  H   H2462     1.0  0.88988  0.05467  0.62059  1.0000
  H   H2463     1.0  0.90094  0.02216  0.61601  1.0000
  C   C2090     1.0  0.80211  0.06952  0.67541  1.0000
  C   C2091     1.0  0.81999  0.06586  0.66419  1.0000
  C   C2092     1.0  0.82339  0.05592  0.65001  1.0000
  C   C2093     1.0  0.80886  0.04987  0.64684  1.0000
  C   C2094     1.0  0.79120  0.05284  0.65860  1.0000
  C   C2095     1.0  0.78775  0.06281  0.67278  1.0000
  H   H2464     1.0  0.83120  0.07092  0.66612  1.0000
  H   H2465     1.0  0.83717  0.05343  0.64115  1.0000
  H   H2466     1.0  0.78033  0.04717  0.65694  1.0000
  H   H2467     1.0  0.77402  0.06533  0.68168  1.0000
  H   H2468     1.0  0.83188  0.02356  0.74411  1.0000
  C   C2096     1.0  0.79657  0.98248  0.53893  1.0000
  C   C2097     1.0  0.87627  0.14774  0.69075  1.0000
  C   C2098     1.0  0.85740  0.15488  0.69758  1.0000
  C   C2099     1.0  0.85214  0.17205  0.70314  1.0000
  C   C2100     1.0  0.85072  0.14467  0.77413  1.0000
  C   C2101     1.0  0.68283  0.11280  0.64102  1.0000
  H   H2469     1.0  0.88045  0.13445  0.68648  1.0000
  H   H2470     1.0  0.83769  0.17753  0.70875  1.0000
  H   H2471     1.0  0.72507  0.05569  0.66680  1.0000
  C   C2102     1.0  0.70511  0.03547  0.86652  1.0000
  C   C2103     1.0  0.71885  0.02206  0.85811  1.0000
  C   C2104     1.0  0.71636  0.00363  0.86173  1.0000
  C   C2105     1.0  0.69991  0.99865  0.87328  1.0000
  C   C2106     1.0  0.68620  0.01204  0.88172  1.0000
  C   C2107     1.0  0.68895  0.03031  0.87862  1.0000
  H   H2472     1.0  0.73153  0.02579  0.84906  1.0000
  H   H2473     1.0  0.80909  0.02287  0.69241  1.0000
  H   H2474     1.0  0.67358  0.00823  0.89078  1.0000
  H   H2475     1.0  0.67845  0.04051  0.88549  1.0000
  C   C2108     1.0  0.80617  0.03668  0.78563  1.0000
  C   C2109     1.0  0.82383  0.02812  0.78952  1.0000
  C   C2110     1.0  0.83969  0.03442  0.77803  1.0000
  C   C2111     1.0  0.83801  0.04891  0.76230  1.0000
  C   C2112     1.0  0.82035  0.05725  0.75828  1.0000
  C   C2113     1.0  0.80444  0.05132  0.77004  1.0000
  H   H2476     1.0  0.82521  0.01670  0.80151  1.0000
  H   H2477     1.0  0.85332  0.02781  0.78115  1.0000
  H   H2478     1.0  0.81887  0.06810  0.74604  1.0000
  H   H2479     1.0  0.79089  0.05762  0.76667  1.0000
  C   C2114     1.0  0.72008  0.15625  0.85333  1.0000
  H   H2480     1.0  0.75970  0.19284  0.76713  1.0000
  C   C2115     1.0  0.76415  0.11886  0.84865  1.0000
  C   C2116     1.0  0.77673  0.12194  0.83147  1.0000
  C   C2117     1.0  0.78746  0.13542  0.82776  1.0000
  H   H2481     1.0  0.73555  0.02686  0.71070  1.0000
  C   C2118     1.0  0.88444  0.01781  0.48212  1.0000
  H   H2482     1.0  0.75600  0.10829  0.85166  1.0000
  H   H2483     1.0  0.79723  0.13790  0.81454  1.0000
  H   H2484     1.0  0.73087  0.03276  0.68017  1.0000
  C   C2119     1.0  0.67348  0.05196  0.67427  1.0000
  C   C2120     1.0  0.68218  0.06123  0.65684  1.0000
  C   C2121     1.0  0.69937  0.05247  0.64710  1.0000
  C   C2122     1.0  0.70760  0.03412  0.65454  1.0000
  C   C2123     1.0  0.69869  0.02473  0.67179  1.0000
  C   C2124     1.0  0.68180  0.03368  0.68173  1.0000
  H   H2485     1.0  0.67560  0.07519  0.65085  1.0000
  H   H2486     1.0  0.70612  0.05977  0.63375  1.0000
  H   H2487     1.0  0.70495  0.01049  0.67755  1.0000
  H   H2488     1.0  0.67504  0.02626  0.69495  1.0000
  C   C2125     1.0  0.70376  0.05391  0.75835  1.0000
  C   C2126     1.0  0.69078  0.07082  0.75896  1.0000
  C   C2127     1.0  0.69553  0.08580  0.76286  1.0000
  C   C2128     1.0  0.71296  0.08357  0.76695  1.0000
  C   C2129     1.0  0.72591  0.06666  0.76642  1.0000
  C   C2130     1.0  0.72137  0.05186  0.76198  1.0000
  H   H2489     1.0  0.67697  0.07232  0.75681  1.0000
  H   H2490     1.0  0.68547  0.09884  0.76345  1.0000
  H   H2491     1.0  0.73946  0.06495  0.76951  1.0000
  H   H2492     1.0  0.73143  0.03878  0.76159  1.0000
  N   N134      1.0  0.72192  0.17038  0.83553  1.0000
  C   C2131     1.0  0.74184  0.16806  0.82596  1.0000
  C   C2132     1.0  0.71610  0.18910  0.84046  1.0000
  H   H2493     1.0  0.74378  0.17829  0.81240  1.0000
  H   H2494     1.0  0.75033  0.17022  0.83475  1.0000
  H   H2495     1.0  0.74801  0.15386  0.82307  1.0000
  H   H2496     1.0  0.93847  0.03275  0.62380  1.0000
  H   H2497     1.0  0.94959  0.05837  0.49572  1.0000
  H   H2498     1.0  0.70144  0.19164  0.84847  1.0000
  H   H2499     1.0  0.72778  0.15826  0.86309  1.0000
  H   H2500     1.0  0.69176  0.19509  0.82095  1.0000
  H   H2501     1.0  0.65655  0.99822  0.77755  1.0000
  C   C2133     1.0  0.70515  0.14755  0.80566  1.0000
  H   H2502     1.0  0.70348  0.04070  0.70439  1.0000
  S   S576      1.0  0.95903  0.03211  0.56144  1.0000
  Fe  Fe284     1.0  0.94968  0.00514  0.57528  1.0000
  H   H2503     1.0  0.72679  0.10602  0.71844  1.0000
  C   C2134     1.0  0.67849  0.99671  0.81245  1.0000
  Fe  Fe285     1.0  0.92746  0.98439  0.61063  1.0000
  C   C2135     1.0  0.74518  0.17528  0.65808  1.0000
  H   H2504     1.0  0.95455  0.06352  0.57783  1.0000
  C   C2136     1.0  0.68568  0.17831  0.80598  1.0000
  C   C2137     1.0  0.71098  0.16764  0.82332  1.0000
  Fe  Fe286     1.0  0.66723  0.20558  0.73085  1.0000
  H   H2505     1.0  0.87065  0.21209  0.60138  1.0000
  C   C2138     1.0  0.78511  0.14635  0.84082  1.0000
  H   H2506     1.0  0.66376  0.13144  0.75519  1.0000
  H   H2507     1.0  0.69821  0.06429  0.69150  1.0000
  C   C2139     1.0  0.67304  0.00224  0.79487  1.0000
  C   C2140     1.0  0.80477  0.03896  0.72538  1.0000
  C   C2141     1.0  0.83708  0.19975  0.75986  1.0000
  H   H2508     1.0  0.74900  0.17814  0.64302  1.0000
  C   C2142     1.0  0.96382  0.05617  0.61259  1.0000
  C   C2143     1.0  0.68170  0.01475  0.83300  1.0000
  C   C2144     1.0  0.84831  0.01090  0.71066  1.0000
  C   C2145     1.0  0.74767  0.20139  0.77441  1.0000
  N   N135      1.0  0.66142  0.08987  0.97353  1.0000
  N   N136      1.0  0.94538  0.05923  0.60788  1.0000
  C   C2146     1.0  0.82298  0.20231  0.77568  1.0000
  N   N137      1.0  0.76759  0.13705  0.75431  1.0000
  H   H2509     1.0  0.94026  0.02161  0.53765  1.0000
  S   S577      1.0  0.65913  0.02542  0.73474  1.0000
  H   H2510     1.0  0.90444  0.22325  0.63861  1.0000
  H   H2511     1.0  0.72234  0.16290  0.65907  1.0000
  H   H2512     1.0  0.92281  0.19305  0.62787  1.0000
  S   S578      1.0  0.69789  0.19786  0.71907  1.0000
  H   H2513     1.0  0.95593  0.04002  0.64086  1.0000
  C   C2147     1.0  0.69495  0.22074  0.64081  1.0000
  H   H2514     1.0  0.91295  0.22168  0.60676  1.0000
  H   H2515     1.0  0.92845  0.04247  0.60362  1.0000
  H   H2516     1.0  0.68795  0.03147  0.79683  1.0000
  C   C2148     1.0  0.84892  0.99132  0.61146  1.0000
  H   H2517     1.0  0.67715  0.00463  0.84600  1.0000
  S   S579      1.0  0.85863  0.22962  0.67902  1.0000
  N   N138      1.0  0.66793  0.08412  0.82185  1.0000
  C   C2149     1.0  0.76974  0.21835  0.70163  1.0000
  C   C2150     1.0  0.73298  0.04727  0.67775  1.0000
  C   C2151     1.0  0.73681  0.04152  0.70924  1.0000
  C   C2152     1.0  0.72969  0.07384  0.69256  1.0000
  C   C2153     1.0  0.73580  0.08483  0.67463  1.0000
  C   C2154     1.0  0.72622  0.08216  0.70826  1.0000
  C   C2155     1.0  0.73888  0.10268  0.67273  1.0000
  C   C2156     1.0  0.72938  0.10001  0.70621  1.0000
  C   C2157     1.0  0.73580  0.11020  0.68849  1.0000
  H   H2518     1.0  0.74811  0.04675  0.67193  1.0000
  H   H2519     1.0  0.73126  0.04451  0.72351  1.0000
  H   H2520     1.0  0.75190  0.04194  0.70526  1.0000
  H   H2521     1.0  0.73845  0.07997  0.66179  1.0000
  H   H2522     1.0  0.74371  0.11069  0.65891  1.0000
  H   H2523     1.0  0.90774  0.00351  0.67292  1.0000
  H   H2524     1.0  0.73827  0.12400  0.68698  1.0000
  N   N139      1.0  0.95492  0.02918  0.50911  1.0000
  H   H2525     1.0  0.66118  0.06167  0.97254  1.0000
  H   H2526     1.0  0.97569  0.01835  0.52606  1.0000
  C   C2158     1.0  0.66017  0.22742  0.60282  1.0000
  C   C2159     1.0  0.95755  0.01084  0.50422  1.0000
  C   C2160     1.0  0.94465  0.99882  0.51240  1.0000
  H   H2527     1.0  0.66112  0.10602  0.66393  1.0000
  C   C2161     1.0  0.74485  0.22925  0.68368  1.0000
  N   N140      1.0  0.66774  0.12204  0.69082  1.0000
  H   H2528     1.0  0.91063  0.17960  0.62064  1.0000
  S   S580      1.0  0.66136  0.17796  0.73135  1.0000
  C   C2162     1.0  0.85182  0.18342  0.65009  1.0000
  C   C2163     1.0  0.84233  0.18777  0.63558  1.0000
  H   H2529     1.0  0.69083  0.02202  0.83658  1.0000
  H   H2530     1.0  0.73042  0.16573  0.71227  1.0000
  C   C2164     1.0  0.71445  0.21397  0.78073  1.0000
  H   H2531     1.0  0.72718  0.99322  0.85546  1.0000
  H   H2532     1.0  0.82646  0.06051  0.50413  1.0000
  H   H2533     1.0  0.81294  0.19019  0.69344  1.0000
  H   H2534     1.0  0.93215  0.00232  0.52274  1.0000
  H   H2535     1.0  0.80144  0.14229  0.73145  1.0000
  C   C2165     1.0  0.69918  0.01962  0.80135  1.0000
  C   C2166     1.0  0.69031  0.16139  0.80020  1.0000
  C   C2167     1.0  0.78677  0.98521  0.55689  1.0000
  N   N141      1.0  0.79773  0.13615  0.64094  1.0000
  C   C2168     1.0  0.78558  0.15058  0.62942  1.0000
  C   C2169     1.0  0.78656  0.13063  0.66000  1.0000
  C   C2170     1.0  0.81227  0.14505  0.64266  1.0000
  C   C2171     1.0  0.80534  0.11962  0.63221  1.0000
  C   C2172     1.0  0.79309  0.11048  0.62841  1.0000
  C   C2173     1.0  0.82481  0.11217  0.62717  1.0000
  C   C2174     1.0  0.79989  0.09527  0.61960  1.0000
  C   C2175     1.0  0.83145  0.09695  0.61832  1.0000
  C   C2176     1.0  0.81902  0.08869  0.61431  1.0000
  H   H2536     1.0  0.77275  0.14621  0.62941  1.0000
  H   H2537     1.0  0.78090  0.16385  0.63451  1.0000
  H   H2538     1.0  0.79321  0.15387  0.61462  1.0000
  H   H2539     1.0  0.82007  0.00506  0.61342  1.0000
  H   H2540     1.0  0.75149  0.12811  0.87472  1.0000
  H   H2541     1.0  0.78072  0.14270  0.66710  1.0000
  H   H2542     1.0  0.82109  0.14967  0.62870  1.0000
  H   H2543     1.0  0.80597  0.15769  0.64887  1.0000
  H   H2544     1.0  0.82135  0.13548  0.65206  1.0000
  H   H2545     1.0  0.77812  0.11512  0.63204  1.0000
  H   H2546     1.0  0.83521  0.11780  0.62994  1.0000
  H   H2547     1.0  0.79024  0.08851  0.61689  1.0000
  H   H2548     1.0  0.84632  0.09134  0.61477  1.0000
  H   H2549     1.0  0.82418  0.07676  0.60764  1.0000
  N   N142      1.0  0.83699  0.09704  0.78684  1.0000
  C   C2177     1.0  0.82915  0.09711  0.80702  1.0000
  C   C2178     1.0  0.82198  0.09532  0.77863  1.0000
  C   C2179     1.0  0.85226  0.08022  0.78576  1.0000
  C   C2180     1.0  0.84422  0.11400  0.77622  1.0000
  C   C2181     1.0  0.84347  0.12902  0.78459  1.0000
  C   C2182     1.0  0.85235  0.11587  0.75679  1.0000
  C   C2183     1.0  0.85957  0.13156  0.74649  1.0000
  C   C2184     1.0  0.85876  0.14594  0.75512  1.0000
  H   H2550     1.0  0.82356  0.08433  0.81453  1.0000
  H   H2551     1.0  0.83984  0.09773  0.81432  1.0000
  H   H2552     1.0  0.81723  0.10909  0.80894  1.0000
  H   H2553     1.0  0.81063  0.10811  0.77853  1.0000
  H   H2554     1.0  0.81553  0.08320  0.78679  1.0000
  H   H2555     1.0  0.82722  0.09308  0.76404  1.0000
  H   H2556     1.0  0.86380  0.08094  0.79187  1.0000
  H   H2557     1.0  0.84724  0.06714  0.79328  1.0000
  H   H2558     1.0  0.85848  0.07852  0.77113  1.0000
  H   H2559     1.0  0.83735  0.12910  0.79920  1.0000
  H   H2560     1.0  0.85329  0.10513  0.74938  1.0000
  H   H2561     1.0  0.86586  0.13254  0.73172  1.0000
  C   C2185     1.0  0.76169  0.12999  0.86170  1.0000
  C   C2186     1.0  0.65782  0.05970  0.84985  1.0000
  C   C2187     1.0  0.78056  0.15237  0.58326  1.0000
  H   H2562     1.0  0.76397  0.21068  0.78818  1.0000
  H   H2563     1.0  0.72498  0.19071  0.84933  1.0000
  H   H2564     1.0  0.81759  0.17063  0.76444  1.0000
  H   H2565     1.0  0.90425  0.15293  0.68320  1.0000
  H   H2566     1.0  0.67810  0.10652  0.82596  1.0000
  S   S581      1.0  0.70454  0.15467  0.69811  1.0000
  H   H2567     1.0  0.79410  0.04203  0.73808  1.0000
  S   S582      1.0  0.67094  0.19789  0.76075  1.0000
  Fe  Fe287     1.0  0.77491  0.18745  0.85366  1.0000
  H   H2568     1.0  0.98403  0.05702  0.54319  1.0000
  S   S583      1.0  0.80378  0.19441  0.60909  1.0000
  C   C2188     1.0  0.83524  0.21150  0.74249  1.0000
  H   H2569     1.0  0.68633  0.06410  0.80607  1.0000
  H   H2570     1.0  0.75467  0.16261  0.73794  1.0000
  H   H2571     1.0  0.67664  0.21248  0.66710  1.0000
  H   H2572     1.0  0.89004  0.20903  0.65546  1.0000
  H   H2573     1.0  0.86128  0.19560  0.70561  1.0000
  H   H2574     1.0  0.86434  0.15811  0.74703  1.0000
  H   H2575     1.0  0.80189  0.13089  0.57174  1.0000
  C   C2189     1.0  0.82227  0.01435  0.74513  1.0000
  H   H2576     1.0  0.71833  0.99694  0.82510  1.0000
  H   H2577     1.0  0.83242  0.01672  0.66441  1.0000
  C   C2190     1.0  0.93882  0.03273  0.52484  1.0000
  H   H2578     1.0  0.69686  0.08176  0.80821  1.0000
  Fe  Fe288     1.0  0.88521  0.22009  0.68964  1.0000
  H   H2579     1.0  0.84622  0.17549  0.66366  1.0000
  H   H2580     1.0  0.94698  0.08470  0.58697  1.0000
  H   H2581     1.0  0.67317  0.11196  0.71878  1.0000
  N   N143      1.0  0.84469  0.04355  0.52273  1.0000
  C   C2191     1.0  0.84446  0.02596  0.51783  1.0000
  C   C2192     1.0  0.79123  0.16244  0.77600  1.0000
  C   C2193     1.0  0.86056  0.05140  0.50990  1.0000
  C   C2194     1.0  0.84679  0.03953  0.54242  1.0000
  C   C2195     1.0  0.83232  0.04605  0.55698  1.0000
  C   C2196     1.0  0.86358  0.02836  0.54764  1.0000
  C   C2197     1.0  0.83504  0.04243  0.57529  1.0000
  C   C2198     1.0  0.86610  0.02487  0.56600  1.0000
  C   C2199     1.0  0.85193  0.03210  0.57973  1.0000
  H   H2582     1.0  0.83308  0.01939  0.52759  1.0000
  H   H2583     1.0  0.84213  0.02840  0.50335  1.0000
  H   H2584     1.0  0.85778  0.01559  0.51851  1.0000
  H   H2585     1.0  0.77216  0.14769  0.72427  1.0000
  H   H2586     1.0  0.70606  0.12072  0.61975  1.0000
  H   H2587     1.0  0.82626  0.07060  0.52316  1.0000
  H   H2588     1.0  0.85907  0.05516  0.49502  1.0000
  H   H2589     1.0  0.84207  0.20150  0.60687  1.0000
  H   H2590     1.0  0.86173  0.06420  0.51370  1.0000
  H   H2591     1.0  0.81872  0.05391  0.55466  1.0000
  H   H2592     1.0  0.87496  0.02218  0.53761  1.0000
  H   H2593     1.0  0.68242  0.15901  0.79138  1.0000
  H   H2594     1.0  0.92533  0.03361  0.52112  1.0000
  H   H2595     1.0  0.66906  0.02524  0.82969  1.0000
  N   N144      1.0  0.72658  0.05475  0.69517  1.0000
  H   H2596     1.0  0.89574  0.03615  0.67785  1.0000
  Fe  Fe289     1.0  0.77612  0.20395  0.62709  1.0000
  C   C2200     1.0  0.76222  0.15673  0.59331  1.0000
  C   C2201     1.0  0.69586  0.18153  0.81731  1.0000
  H   H2597     1.0  0.82470  0.99207  0.55694  1.0000
  C   C2202     1.0  0.88424  0.17572  0.69388  1.0000
  H   H2598     1.0  0.84997  0.15596  0.78083  1.0000
  H   H2599     1.0  0.75639  0.17062  0.59589  1.0000
  H   H2600     1.0  0.90226  0.20921  0.59699  1.0000
  C   C2203     1.0  0.97618  0.98735  0.48583  1.0000
  C   C2204     1.0  0.77672  0.11770  0.75189  1.0000
  S   S584      1.0  0.79487  0.16900  0.57548  1.0000
  C   C2205     1.0  0.67804  0.12148  0.67130  1.0000
  H   H2601     1.0  0.72587  0.14176  0.85108  1.0000
  H   H2602     1.0  0.70520  0.15714  0.86064  1.0000
  H   H2603     1.0  0.65557  0.10361  0.84014  1.0000
  Fe  Fe290     1.0  0.69229  0.16961  0.72180  1.0000
  C   C2206     1.0  0.74994  0.17649  0.68810  1.0000
  H   H2604     1.0  0.70073  0.05961  0.71541  1.0000
  H   H2605     1.0  0.72103  0.07494  0.72228  1.0000
  S   S585      1.0  0.75893  0.20145  0.60831  1.0000
  C   C2207     1.0  0.77166  0.14425  0.85744  1.0000
  S   S586      1.0  0.91449  0.98738  0.64058  1.0000
  H   H2606     1.0  0.84652  0.22953  0.76708  1.0000
  H   H2607     1.0  0.79750  0.04329  0.71349  1.0000
  N   N145      1.0  0.81449  0.01904  0.72799  1.0000
  C   C2208     1.0  0.80057  0.00732  0.73150  1.0000
  C   C2209     1.0  0.66203  0.09692  0.80488  1.0000
  H   H2608     1.0  0.68577  0.09084  0.95129  1.0000
  C   C2210     1.0  0.80758  0.16382  0.76252  1.0000
  N   N146      1.0  0.78989  0.21215  0.70186  1.0000
  C   C2211     1.0  0.79796  0.19575  0.69291  1.0000
  H   H2609     1.0  0.79021  0.00852  0.74490  1.0000
  S   S587      1.0  0.65906  0.07029  0.73037  1.0000
  C   C2212     1.0  0.69398  0.12963  0.66367  1.0000
  N   N147      1.0  0.89395  0.20574  0.62708  1.0000
  C   C2213     1.0  0.66050  0.99386  0.79107  1.0000
  H   H2610     1.0  0.69203  0.11987  0.70172  1.0000
  C   C2214     1.0  0.89196  0.21721  0.64087  1.0000
  H   H2611     1.0  0.75856  0.21491  0.73206  1.0000
  H   H2612     1.0  0.78866  0.16827  0.78834  1.0000
  C   C2215     1.0  0.82885  0.01597  0.71087  1.0000
  C   C2216     1.0  0.70397  0.12928  0.64531  1.0000
  S   S588      1.0  0.76018  0.21656  0.85711  1.0000
  H   H2613     1.0  0.77457  0.12494  0.65982  1.0000
  H   H2614     1.0  0.86598  0.00772  0.66502  1.0000
  H   H2615     1.0  0.93037  0.07248  0.58557  1.0000
  H   H2616     1.0  0.74293  0.15003  0.77203  1.0000
  H   H2617     1.0  0.82991  0.99953  0.74786  1.0000
  C   C2217     1.0  0.65503  0.07148  0.83237  1.0000
  C   C2218     1.0  0.70765  0.99080  0.82258  1.0000
  H   H2618     1.0  0.81113  0.01624  0.75786  1.0000
  C   C2219     1.0  0.98101  0.03227  0.56473  1.0000
  H   H2619     1.0  0.65599  0.09778  0.69571  1.0000
  C   C2220     1.0  0.77819  0.15367  0.77366  1.0000
  C   C2221     1.0  0.94435  0.07052  0.58873  1.0000
  C   C2222     1.0  0.71531  0.15053  0.81714  1.0000
  H   H2620     1.0  0.78782  0.11730  0.73894  1.0000
  H   H2621     1.0  0.79341  0.15678  0.83778  1.0000
  H   H2622     1.0  0.75742  0.18049  0.69625  1.0000
  H   H2623     1.0  0.67882  0.22242  0.54163  1.0000
  H   H2624     1.0  0.69891  0.13627  0.67187  1.0000
  H   H2625     1.0  0.79237  0.01142  0.72036  1.0000
  S   S589      1.0  0.80333  0.19296  0.84945  1.0000
  H   H2626     1.0  0.76587  0.15308  0.78471  1.0000
  C   C2223     1.0  0.68051  0.11253  0.70389  1.0000
  C   C2224     1.0  0.87623  0.19974  0.62967  1.0000
  H   H2627     1.0  0.68693  0.09795  0.70208  1.0000
  C   C2225     1.0  0.82901  0.98738  0.59319  1.0000
  H   H2628     1.0  0.79525  0.11954  0.66893  1.0000
  H   H2629     1.0  0.93775  0.04616  0.52883  1.0000
  H   H2630     1.0  0.92890  0.06077  0.63588  1.0000
  H   H2631     1.0  0.84973  0.18928  0.76116  1.0000
  H   H2632     1.0  0.85383  0.00941  0.72286  1.0000
  C   C2226     1.0  0.66955  0.09595  0.83396  1.0000
  H   H2633     1.0  0.72666  0.13934  0.82113  1.0000
  C   C2227     1.0  0.86851  0.18928  0.64722  1.0000
  H   H2634     1.0  0.71620  0.13542  0.63977  1.0000
  C   C2228     1.0  0.86622  0.20387  0.61512  1.0000
  C   C2229     1.0  0.75504  0.18034  0.66854  1.0000
  S   S590      1.0  0.82644  0.18963  0.79775  1.0000
  S   S591      1.0  0.69824  0.15848  0.75050  1.0000
  H   H2635     1.0  0.66182  0.08919  0.79433  1.0000
  S   S592      1.0  0.77401  0.19114  0.65767  1.0000
  H   H2636     1.0  0.66634  0.08608  0.94522  1.0000
  C   C2230     1.0  0.73013  0.16653  0.66718  1.0000
  S   S593      1.0  0.90034  0.19014  0.68922  1.0000
  C   C2231     1.0  0.69834  0.12095  0.63400  1.0000
  H   H2637     1.0  0.67829  0.01292  0.78372  1.0000
  C   C2232     1.0  0.66053  0.14175  0.69289  1.0000
  H   H2638     1.0  0.67424  0.18911  0.80149  1.0000
  H   H2639     1.0  0.67180  0.10654  0.79750  1.0000
  S   S594      1.0  0.76522  0.16131  0.87112  1.0000
  H   H2640     1.0  0.67868  0.10618  0.63213  1.0000
  C   C2233     1.0  0.93074  0.06919  0.62131  1.0000
  H   H2641     1.0  0.93404  0.08252  0.62166  1.0000
  H   H2642     1.0  0.81465  0.05159  0.52700  1.0000
  C   C2234     1.0  0.84958  0.19786  0.61812  1.0000
  S   S595      1.0  0.78761  0.22329  0.57397  1.0000
  H   H2643     1.0  0.74106  0.12896  0.76719  1.0000
  Fe  Fe291     1.0  0.78666  0.19377  0.58935  1.0000
  C   C2235     1.0  0.79808  0.14772  0.74408  1.0000
  H   H2644     1.0  0.81479  0.04828  0.72236  1.0000
  C   C2236     1.0  0.68664  0.07275  0.81574  1.0000
  C   C2237     1.0  0.67027  0.09420  0.95337  1.0000
  H   H2645     1.0  0.79035  0.18424  0.69988  1.0000
  H   H2646     1.0  0.80753  0.99231  0.73236  1.0000
  H   H2647     1.0  0.80906  0.20238  0.72073  1.0000
  C   C2238     1.0  0.86550  0.18236  0.70135  1.0000
  C   C2239     1.0  0.82729  0.05719  0.51918  1.0000
  C   C2240     1.0  0.97329  0.00463  0.49062  1.0000
  H   H2648     1.0  0.78325  0.10969  0.76397  1.0000
  C   C2241     1.0  0.81108  0.15633  0.74668  1.0000
  H   H2649     1.0  0.76656  0.10997  0.75084  1.0000
  S   S596      1.0  0.72774  0.18859  0.75709  1.0000
  C   C2242     1.0  0.72465  0.16335  0.68671  1.0000
  H   H2650     1.0  0.95281  0.03214  0.60088  1.0000
  H   H2651     1.0  0.87971  0.22898  0.64007  1.0000
  C   C2243     1.0  0.75012  0.21145  0.78643  1.0000
  C   C2244     1.0  0.97192  0.03034  0.51457  1.0000
  H   H2652     1.0  0.68814  0.22618  0.58796  1.0000
  C   C2245     1.0  0.85572  0.00989  0.67772  1.0000
  H   H2653     1.0  0.84626  0.20974  0.73038  1.0000
  Fe  Fe292     1.0  0.66771  0.16946  0.76002  1.0000
  H   H2654     1.0  0.87533  0.18564  0.65890  1.0000
  H   H2655     1.0  0.71762  0.20047  0.82778  1.0000
  H   H2656     1.0  0.98238  0.00772  0.58682  1.0000
  Fe  Fe293     1.0  0.76258  0.22258  0.82572  1.0000
  C   C2246     1.0  0.75100  0.13589  0.76996  1.0000
  H   H2657     1.0  0.82928  0.18342  0.63792  1.0000
  C   C2247     1.0  0.67281  0.11290  0.65941  1.0000
  H   H2658     1.0  0.66430  0.21985  0.61591  1.0000
  H   H2659     1.0  0.88499  0.99251  0.52604  1.0000
  C   C2248     1.0  0.78119  0.14613  0.75749  1.0000
  C   C2249     1.0  0.83157  0.99540  0.60673  1.0000
  H   H2660     1.0  0.70067  0.21501  0.77857  1.0000
  C   C2250     1.0  0.72984  0.20236  0.77171  1.0000
  H   H2661     1.0  0.70711  0.01337  0.78902  1.0000
  C   C2251     1.0  0.82353  0.01826  0.69362  1.0000
  H   H2662     1.0  0.70878  0.13450  0.80088  1.0000
  N   N148      1.0  0.69154  0.00540  0.81710  1.0000
  C   C2252     1.0  0.79380  0.20670  0.72103  1.0000
  Fe  Fe294     1.0  0.80185  0.22478  0.59599  1.0000
  C   C2253     1.0  0.81947  0.22586  0.74100  1.0000
  C   C2254     1.0  0.71693  0.22418  0.79270  1.0000
  H   H2663     1.0  0.98423  0.03053  0.50272  1.0000
  H   H2664     1.0  0.98339  0.01326  0.48336  1.0000
  H   H2665     1.0  0.93911  0.04384  0.48795  1.0000
  C   C2255     1.0  0.67857  0.22315  0.65439  1.0000
  H   H2666     1.0  0.91679  0.07262  0.61763  1.0000
  C   C2256     1.0  0.97915  0.06302  0.59976  1.0000
  C   C2257     1.0  0.90915  0.18908  0.63019  1.0000
  C   C2258     1.0  0.98430  0.04235  0.63517  1.0000
  C   C2259     1.0  0.96693  0.04574  0.63046  1.0000
  H   H2667     1.0  0.70472  0.22117  0.55792  1.0000
  C   C2260     1.0  0.73474  0.22268  0.79590  1.0000
  H   H2668     1.0  0.87911  0.22919  0.76768  1.0000
  S   S597      1.0  0.95744  0.98606  0.60124  1.0000
  C   C2261     1.0  0.73665  0.22441  0.71736  1.0000
  H   H2669     1.0  0.78858  0.21866  0.72832  1.0000
  C   C2262     1.0  0.80659  0.21578  0.77392  1.0000
  H   H2670     1.0  0.66919  0.05994  0.85579  1.0000
  H   H2671     1.0  0.96363  0.04323  0.48053  1.0000
  C   C2263     1.0  0.73130  0.22948  0.70017  1.0000
  C   C2264     1.0  0.79931  0.21676  0.91839  1.0000
  C   C2265     1.0  0.75554  0.21883  0.71821  1.0000
  H   H2672     1.0  0.72606  0.22459  0.73020  1.0000
  Fe  Fe295     1.0  0.78901  0.22298  0.85025  1.0000
  C   C2266     1.0  0.76377  0.22398  0.68434  1.0000
  H   H2673     1.0  0.79737  0.19920  0.67784  1.0000
  H   H2674     1.0  0.79545  0.21747  0.78601  1.0000
  H   H2675     1.0  0.79434  0.20660  0.91357  1.0000
  H   H2676     1.0  0.85084  0.99775  0.62185  1.0000
  H   H2677     1.0  0.71460  0.98258  0.81148  1.0000
  S   S598      1.0  0.90367  0.98520  0.55534  1.0000
  H   H2678     1.0  0.81540  0.99149  0.58965  1.0000
  H   H2679     1.0  0.80865  0.20844  0.92807  1.0000
  C   C2267     1.0  0.77329  0.21990  0.94462  1.0000
  Fe  Fe296     1.0  0.76094  0.23113  0.59439  1.0000
  H   H2680     1.0  0.78244  0.21188  0.95460  1.0000
  H   H2681     1.0  0.80802  0.22414  0.90583  1.0000
  H   H2682     1.0  0.76697  0.20956  0.94171  1.0000
  H   H2683     1.0  0.80785  0.22440  0.95043  1.0000
  H   H2684     1.0  0.82837  0.22944  0.83031  1.0000
  H   H2685     1.0  0.76547  0.22728  0.91078  1.0000
  H   H2686     1.0  0.77373  0.22398  0.67116  1.0000
  S   S599      1.0  0.79017  0.23156  0.81908  1.0000
  C   C2268     1.0  0.80483  0.22759  0.75655  1.0000
  H   H2687     1.0  0.88903  0.23024  0.60534  1.0000
  C   C2269     1.0  0.67379  0.23117  0.58656  1.0000
  S   S600      1.0  0.87317  0.23158  0.71571  1.0000
  H   H2688     1.0  0.76183  0.22967  0.95205  1.0000
  N   N149      1.0  0.78359  0.23023  0.92715  1.0000
  H   H2689     1.0  0.81477  0.22366  0.69173  1.0000
  H   H2690     1.0  0.98721  0.09930  0.48062  1.0000
  H   H2691     1.0  0.98640  0.03426  0.64886  1.0000
  H   H2692     1.0  0.79906  0.23130  0.67611  1.0000
  S   S601      1.0  0.95512  0.98253  0.55949  1.0000
  H   H2693     1.0  0.68168  0.06400  0.97822  1.0000
  Fe  Fe297     1.0  0.95149  0.37952  0.09390  1.0000
  C   C2270     1.0  0.92055  0.47351  0.00119  1.0000
  S   S602      1.0  0.96138  0.37009  0.06629  1.0000
  Fe  Fe298     1.0  0.91937  0.40565  0.11470  1.0000
  S   S603      1.0  0.93194  0.39894  0.14000  1.0000
  S   S604      1.0  0.89308  0.42740  0.11112  1.0000
  Fe  Fe299     1.0  0.95925  0.40105  0.11937  1.0000
  H   H2694     1.0  0.81948  0.44923  0.11678  1.0000
  Fe  Fe300     1.0  0.93813  0.36928  0.13584  1.0000
  S   S605      1.0  0.93221  0.34361  0.15765  1.0000
  S   S606      1.0  0.94593  0.40991  0.09435  1.0000
  S   S607      1.0  0.92368  0.37601  0.11198  1.0000
  C   C2271     1.0  0.71821  0.30169  0.21762  1.0000
  S   S608      1.0  0.86515  0.40071  0.01620  1.0000
  H   H2695     1.0  0.90700  0.27912  0.22001  1.0000
  S   S609      1.0  0.85770  0.43894  0.03192  1.0000
  Fe  Fe301     1.0  0.84977  0.41106  0.04240  1.0000
  S   S610      1.0  0.85266  0.39241  0.07060  1.0000
  S   S611      1.0  0.82231  0.42088  0.03365  1.0000
  Fe  Fe302     1.0  0.92531  0.29678  0.03819  1.0000
  S   S612      1.0  0.89967  0.28561  0.04237  1.0000
  S   S613      1.0  0.92762  0.30250  0.06527  1.0000
  S   S614      1.0  0.65637  0.31208  0.47407  1.0000
  C   C2272     1.0  0.90193  0.45508  0.99494  1.0000
  S   S615      1.0  0.69944  0.24908  0.19840  1.0000
  H   H2696     1.0  0.79508  0.44159  0.26726  1.0000
  S   S616      1.0  0.69920  0.39298  0.37732  1.0000
  Fe  Fe303     1.0  0.85055  0.29274  0.18462  1.0000
  S   S617      1.0  0.85411  0.32225  0.17044  1.0000
  Fe  Fe304     1.0  0.82288  0.26743  0.20684  1.0000
  S   S618      1.0  0.79338  0.26388  0.22061  1.0000
  S   S619      1.0  0.83894  0.28375  0.21541  1.0000
  S   S620      1.0  0.83196  0.27925  0.17619  1.0000
  H   H2697     1.0  0.85100  0.43117  0.07068  1.0000
  H   H2698     1.0  0.84257  0.33259  0.98483  1.0000
  C   C2273     1.0  0.86463  0.28831  0.00097  1.0000
  H   H2699     1.0  0.82043  0.41609  0.12360  1.0000
  Fe  Fe305     1.0  0.69006  0.45802  0.33509  1.0000
  S   S621      1.0  0.69234  0.44883  0.36524  1.0000
  C   C2274     1.0  0.85941  0.30779  0.99828  1.0000
  Fe  Fe306     1.0  0.68532  0.42209  0.36445  1.0000
  S   S622      1.0  0.92064  0.31662  0.01124  1.0000
  C   C2275     1.0  0.80866  0.36548  0.03851  1.0000
  S   S623      1.0  0.68616  0.43010  0.33346  1.0000
  H   H2700     1.0  0.81990  0.28107  0.05899  1.0000
  H   H2701     1.0  0.89727  0.30384  0.25813  1.0000
  C   C2276     1.0  0.82286  0.30631  0.03840  1.0000
  S   S624      1.0  0.67960  0.27930  0.43985  1.0000
  Fe  Fe307     1.0  0.85521  0.25407  0.17759  1.0000
  H   H2702     1.0  0.81477  0.45110  0.06164  1.0000
  S   S625      1.0  0.70212  0.30772  0.46195  1.0000
  S   S626      1.0  0.67147  0.24132  0.17539  1.0000
  H   H2703     1.0  0.78758  0.25521  0.16070  1.0000
  Fe  Fe308     1.0  0.83820  0.41252  0.00628  1.0000
  H   H2704     1.0  0.93700  0.45247  0.08315  1.0000
  N   N150      1.0  0.69320  0.43235  0.42344  1.0000
  C   C2277     1.0  0.91935  0.45768  0.99554  1.0000
  H   H2705     1.0  0.85483  0.34616  0.03577  1.0000
  H   H2706     1.0  0.71259  0.35846  0.40125  1.0000
  H   H2707     1.0  0.65761  0.28977  0.12400  1.0000
  C   C2278     1.0  0.85897  0.23957  0.05173  1.0000
  C   C2279     1.0  0.68856  0.23770  0.38753  1.0000
  H   H2708     1.0  0.80818  0.36291  0.02484  1.0000
  C   C2280     1.0  0.82063  0.29563  0.05657  1.0000
  H   H2709     1.0  0.79536  0.36326  0.04845  1.0000
  H   H2710     1.0  0.76850  0.27159  0.10154  1.0000
  H   H2711     1.0  0.77318  0.26704  0.12471  1.0000
  H   H2712     1.0  0.68354  0.30829  0.19459  1.0000
  C   C2281     1.0  0.69183  0.24270  0.40264  1.0000
  H   H2713     1.0  0.92076  0.31748  0.26281  1.0000
  C   C2282     1.0  0.78114  0.26045  0.20540  1.0000
  C   C2283     1.0  0.79032  0.25812  0.18729  1.0000
  C   C2284     1.0  0.78035  0.25659  0.17481  1.0000
  C   C2285     1.0  0.76115  0.25710  0.18039  1.0000
  C   C2286     1.0  0.75201  0.25855  0.19879  1.0000
  C   C2287     1.0  0.76204  0.26023  0.21129  1.0000
  H   H2714     1.0  0.80510  0.25765  0.18278  1.0000
  H   H2715     1.0  0.83237  0.47504  0.10204  1.0000
  H   H2716     1.0  0.80737  0.46010  0.25550  1.0000
  H   H2717     1.0  0.75494  0.26167  0.22541  1.0000
  C   C2288     1.0  0.82077  0.32239  0.06835  1.0000
  Fe  Fe309     1.0  0.91833  0.26405  0.02686  1.0000
  H   H2718     1.0  0.87852  0.25752  0.03762  1.0000
  H   H2719     1.0  0.89936  0.26934  0.08208  1.0000
  H   H2720     1.0  0.84102  0.39384  0.14369  1.0000
  H   H2721     1.0  0.67051  0.38260  0.33657  1.0000
  S   S627      1.0  0.91544  0.23410  0.03918  1.0000
  H   H2722     1.0  0.72646  0.46672  0.34314  1.0000
  H   H2723     1.0  0.86118  0.43864  0.15029  1.0000
  S   S628      1.0  0.96669  0.37063  0.11747  1.0000
  C   C2289     1.0  0.87689  0.24365  0.04519  1.0000
  C   C2290     1.0  0.91876  0.31917  0.24874  1.0000
  H   H2724     1.0  0.66918  0.36349  0.38889  1.0000
  S   S629      1.0  0.84478  0.44103  0.99285  1.0000
  C   C2291     1.0  0.90823  0.24784  0.12431  1.0000
  H   H2725     1.0  0.90708  0.39569  0.06839  1.0000
  C   C2292     1.0  0.73153  0.47809  0.33273  1.0000
  H   H2726     1.0  0.69778  0.25485  0.40035  1.0000
  C   C2293     1.0  0.91107  0.33773  0.15832  1.0000
  C   C2294     1.0  0.89515  0.35158  0.15555  1.0000
  C   C2295     1.0  0.87783  0.34663  0.15871  1.0000
  C   C2296     1.0  0.87636  0.32781  0.16450  1.0000
  C   C2297     1.0  0.89249  0.31394  0.16619  1.0000
  C   C2298     1.0  0.90977  0.31889  0.16321  1.0000
  H   H2727     1.0  0.89603  0.36616  0.15179  1.0000
  H   H2728     1.0  0.86544  0.35746  0.15724  1.0000
  H   H2729     1.0  0.89164  0.29943  0.17029  1.0000
  H   H2730     1.0  0.92212  0.30814  0.16509  1.0000
  Fe  Fe310     1.0  0.89687  0.30316  0.01426  1.0000
  H   H2731     1.0  0.92059  0.44606  0.11698  1.0000
  H   H2732     1.0  0.87011  0.46339  0.12898  1.0000
  C   C2299     1.0  0.95216  0.35128  0.06584  1.0000
  C   C2300     1.0  0.95135  0.34802  0.04867  1.0000
  C   C2301     1.0  0.94387  0.33307  0.04823  1.0000
  C   C2302     1.0  0.93752  0.32115  0.06496  1.0000
  C   C2303     1.0  0.93861  0.32429  0.08206  1.0000
  C   C2304     1.0  0.94565  0.33943  0.08253  1.0000
  H   H2733     1.0  0.95650  0.35707  0.03571  1.0000
  H   H2734     1.0  0.94318  0.33069  0.03497  1.0000
  H   H2735     1.0  0.94658  0.34163  0.09580  1.0000
  C   C2305     1.0  0.86079  0.40280  0.08423  1.0000
  C   C2306     1.0  0.87004  0.39141  0.09824  1.0000
  C   C2307     1.0  0.87886  0.39918  0.10751  1.0000
  C   C2308     1.0  0.87859  0.41834  0.10272  1.0000
  C   C2309     1.0  0.86803  0.42995  0.08982  1.0000
  C   C2310     1.0  0.85906  0.42218  0.08065  1.0000
  H   H2736     1.0  0.87089  0.37653  0.10151  1.0000
  H   H2737     1.0  0.88591  0.39031  0.11834  1.0000
  H   H2738     1.0  0.86748  0.44482  0.08620  1.0000
  H   H2739     1.0  0.93424  0.31486  0.09500  1.0000
  S   S630      1.0  0.84531  0.24129  0.20775  1.0000
  H   H2740     1.0  0.95873  0.44812  0.09012  1.0000
  C   C2311     1.0  0.68079  0.31946  0.21886  1.0000
  C   C2312     1.0  0.93129  0.45207  0.11966  1.0000
  H   H2741     1.0  0.66736  0.41722  0.31231  1.0000
  H   H2742     1.0  0.84451  0.37057  0.02905  1.0000
  S   S631      1.0  0.91353  0.28082  0.99869  1.0000
  H   H2743     1.0  0.93611  0.33863  0.20363  1.0000
  H   H2744     1.0  0.67024  0.30710  0.26617  1.0000
  C   C2313     1.0  0.90522  0.31142  0.24583  1.0000
  C   C2314     1.0  0.70855  0.31163  0.23170  1.0000
  C   C2315     1.0  0.79980  0.45346  0.26935  1.0000
  H   H2745     1.0  0.66066  0.35198  0.23222  1.0000
  H   H2746     1.0  0.72800  0.42999  0.39783  1.0000
  C   C2316     1.0  0.77644  0.45736  0.29719  1.0000
  C   C2317     1.0  0.94985  0.47575  0.10859  1.0000
  H   H2747     1.0  0.80897  0.38059  0.03590  1.0000
  N   N151      1.0  0.91861  0.41726  0.04701  1.0000
  C   C2318     1.0  0.92686  0.40519  0.03302  1.0000
  C   C2319     1.0  0.91669  0.40530  0.06604  1.0000
  C   C2320     1.0  0.89950  0.42675  0.04427  1.0000
  C   C2321     1.0  0.93077  0.43032  0.04515  1.0000
  C   C2322     1.0  0.92416  0.45001  0.04284  1.0000
  C   C2323     1.0  0.94985  0.42339  0.04611  1.0000
  C   C2324     1.0  0.93614  0.46189  0.04098  1.0000
  C   C2325     1.0  0.76964  0.23626  0.10075  1.0000
  C   C2326     1.0  0.94622  0.45918  0.08732  1.0000
  H   H2748     1.0  0.94032  0.39572  0.03548  1.0000
  H   H2749     1.0  0.91754  0.39588  0.03346  1.0000
  H   H2750     1.0  0.92932  0.41379  0.01852  1.0000
  H   H2751     1.0  0.93017  0.39643  0.06870  1.0000
  C   C2327     1.0  0.69015  0.38279  0.40071  1.0000
  H   H2752     1.0  0.91134  0.41393  0.07687  1.0000
  H   H2753     1.0  0.89979  0.43588  0.03014  1.0000
  H   H2754     1.0  0.89087  0.41649  0.04554  1.0000
  H   H2755     1.0  0.89196  0.43528  0.05494  1.0000
  H   H2756     1.0  0.90990  0.45666  0.04194  1.0000
  H   H2757     1.0  0.95578  0.40856  0.04836  1.0000
  N   N152      1.0  0.77747  0.24250  0.11348  1.0000
  C   C2328     1.0  0.81934  0.30372  0.07154  1.0000
  H   H2758     1.0  0.89871  0.23895  0.26498  1.0000
  C   C2329     1.0  0.82592  0.35974  0.06252  1.0000
  N   N153      1.0  0.87955  0.32537  0.10590  1.0000
  C   C2330     1.0  0.86473  0.33642  0.11823  1.0000
  C   C2331     1.0  0.89494  0.31549  0.11589  1.0000
  C   C2332     1.0  0.88718  0.33875  0.08918  1.0000
  C   C2333     1.0  0.87179  0.31153  0.10134  1.0000
  C   C2334     1.0  0.86528  0.29695  0.11573  1.0000
  C   C2335     1.0  0.87038  0.31199  0.08282  1.0000
  C   C2336     1.0  0.85827  0.28345  0.11178  1.0000
  C   C2337     1.0  0.86312  0.29854  0.07908  1.0000
  C   C2338     1.0  0.85724  0.28422  0.09348  1.0000
  H   H2759     1.0  0.85842  0.32745  0.13126  1.0000
  H   H2760     1.0  0.87028  0.34633  0.12275  1.0000
  H   H2761     1.0  0.85322  0.34469  0.11100  1.0000
  H   H2762     1.0  0.88994  0.30730  0.13003  1.0000
  H   H2763     1.0  0.90225  0.32538  0.11820  1.0000
  H   H2764     1.0  0.90547  0.30567  0.10772  1.0000
  H   H2765     1.0  0.87612  0.34786  0.08172  1.0000
  H   H2766     1.0  0.89377  0.34833  0.09301  1.0000
  H   H2767     1.0  0.89825  0.33134  0.07915  1.0000
  H   H2768     1.0  0.86560  0.29583  0.13021  1.0000
  H   H2769     1.0  0.87506  0.32244  0.07093  1.0000
  H   H2770     1.0  0.85366  0.27230  0.12304  1.0000
  H   H2771     1.0  0.86221  0.29914  0.06484  1.0000
  H   H2772     1.0  0.85196  0.27363  0.09042  1.0000
  N   N154      1.0  0.88832  0.30532  0.22376  1.0000
  C   C2339     1.0  0.87666  0.29604  0.24095  1.0000
  C   C2340     1.0  0.87546  0.32024  0.21338  1.0000
  C   C2341     1.0  0.89798  0.29110  0.21225  1.0000
  C   C2342     1.0  0.90236  0.31342  0.22750  1.0000
  C   C2343     1.0  0.91398  0.32343  0.21245  1.0000
  C   C2344     1.0  0.86006  0.47045  0.11969  1.0000
  C   C2345     1.0  0.97786  0.42856  0.14876  1.0000
  H   H2773     1.0  0.75242  0.26258  0.12191  1.0000
  C   C2346     1.0  0.85810  0.27877  0.99128  1.0000
  S   S632      1.0  0.98032  0.41919  0.11477  1.0000
  H   H2774     1.0  0.96413  0.46388  0.04012  1.0000
  H   H2775     1.0  0.90704  0.29678  0.19903  1.0000
  H   H2776     1.0  0.91290  0.32533  0.19807  1.0000
  C   C2347     1.0  0.67404  0.43390  0.42103  1.0000
  H   H2777     1.0  0.92576  0.45652  0.13327  1.0000
  H   H2778     1.0  0.93176  0.44711  0.99241  1.0000
  H   H2779     1.0  0.97762  0.43569  0.17470  1.0000
  Fe  Fe311     1.0  0.67809  0.26606  0.18138  1.0000
  H   H2780     1.0  0.82769  0.37452  0.05879  1.0000
  C   C2348     1.0  0.68957  0.32102  0.23265  1.0000
  Fe  Fe312     1.0  0.86211  0.25840  0.21372  1.0000
  C   C2349     1.0  0.67773  0.36716  0.43884  1.0000
  C   C2350     1.0  0.85186  0.43433  0.14447  1.0000
  H   H2781     1.0  0.94033  0.33494  0.23590  1.0000
  H   H2782     1.0  0.86880  0.30591  0.25030  1.0000
  C   C2351     1.0  0.69011  0.34506  0.24833  1.0000
  C   C2352     1.0  0.75062  0.23476  0.10547  1.0000
  C   C2353     1.0  0.69058  0.30942  0.20488  1.0000
  C   C2354     1.0  0.92982  0.32900  0.23361  1.0000
  H   H2783     1.0  0.84688  0.25037  0.04900  1.0000
  H   H2784     1.0  0.90023  0.24954  0.07270  1.0000
  H   H2785     1.0  0.84175  0.35435  0.01759  1.0000
  S   S633      1.0  0.82601  0.39280  0.99714  1.0000
  S   S634      1.0  0.87464  0.26837  0.18345  1.0000
  H   H2786     1.0  0.88280  0.32726  0.19967  1.0000
  H   H2787     1.0  0.93091  0.47690  0.03859  1.0000
  S   S635      1.0  0.67088  0.35900  0.46321  1.0000
  H   H2788     1.0  0.88519  0.28374  0.24889  1.0000
  H   H2789     1.0  0.81032  0.44762  0.27835  1.0000
  C   C2355     1.0  0.69370  0.35774  0.42821  1.0000
  C   C2356     1.0  0.84695  0.31760  0.98662  1.0000
  C   C2357     1.0  0.92039  0.26657  0.13775  1.0000
  C   C2358     1.0  0.65912  0.27069  0.44532  1.0000
  N   N155      1.0  0.67962  0.33128  0.24785  1.0000
  H   H2790     1.0  0.74140  0.23857  0.11810  1.0000
  C   C2359     1.0  0.98490  0.43148  0.12940  1.0000
  Fe  Fe313     1.0  0.71991  0.25191  0.17085  1.0000
  H   H2791     1.0  0.65962  0.27463  0.25421  1.0000
  H   H2792     1.0  0.70380  0.33835  0.25223  1.0000
  C   C2360     1.0  0.82847  0.47941  0.11574  1.0000
  Fe  Fe314     1.0  0.67743  0.32775  0.47447  1.0000
  H   H2793     1.0  0.66813  0.26946  0.22184  1.0000
  H   H2794     1.0  0.66382  0.26720  0.13889  1.0000
  H   H2795     1.0  0.96307  0.46537  0.11019  1.0000
  H   H2796     1.0  0.82389  0.30003  0.02671  1.0000
  C   C2361     1.0  0.65752  0.28140  0.22528  1.0000
  H   H2797     1.0  0.69209  0.24586  0.37348  1.0000
  H   H2798     1.0  0.70541  0.41111  0.40700  1.0000
  H   H2799     1.0  0.67838  0.35787  0.34447  1.0000
  C   C2362     1.0  0.84062  0.40869  0.14094  1.0000
  C   C2363     1.0  0.67371  0.39177  0.41110  1.0000
  C   C2364     1.0  0.93243  0.26419  0.10524  1.0000
  H   H2800     1.0  0.82563  0.33276  0.02074  1.0000
  S   S636      1.0  0.86947  0.32020  0.00809  1.0000
  H   H2801     1.0  0.68603  0.42286  0.45341  1.0000
  H   H2802     1.0  0.81723  0.36288  0.98714  1.0000
  C   C2365     1.0  0.66764  0.38408  0.43016  1.0000
  C   C2366     1.0  0.84043  0.44751  0.13279  1.0000
  C   C2367     1.0  0.70389  0.41324  0.42141  1.0000
  C   C2368     1.0  0.82907  0.42124  0.12960  1.0000
  S   S637      1.0  0.69906  0.27069  0.15425  1.0000
  H   H2803     1.0  0.67350  0.39451  0.29187  1.0000
  Fe  Fe315     1.0  0.83132  0.44826  0.02124  1.0000
  H   H2804     1.0  0.67094  0.33708  0.41549  1.0000
  Fe  Fe316     1.0  0.68111  0.29110  0.46361  1.0000
  C   C2369     1.0  0.92744  0.33110  0.21550  1.0000
  H   H2805     1.0  0.70615  0.43341  0.44507  1.0000
  H   H2806     1.0  0.75218  0.47902  0.34719  1.0000
  C   C2370     1.0  0.90133  0.25383  0.08528  1.0000
  H   H2807     1.0  0.67407  0.43408  0.40626  1.0000
  H   H2808     1.0  0.72364  0.47629  0.26657  1.0000
  H   H2809     1.0  0.87382  0.28060  0.01038  1.0000
  H   H2810     1.0  0.96906  0.41851  0.15537  1.0000
  C   C2371     1.0  0.69993  0.36559  0.40923  1.0000
  H   H2811     1.0  0.70164  0.34474  0.43477  1.0000
  H   H2812     1.0  0.71798  0.41034  0.42457  1.0000
  Fe  Fe317     1.0  0.87066  0.42963  0.00480  1.0000
  C   C2372     1.0  0.93238  0.27124  0.12060  1.0000
  C   C2373     1.0  0.70169  0.44742  0.40987  1.0000
  H   H2813     1.0  0.69176  0.31015  0.26925  1.0000
  C   C2374     1.0  0.69207  0.43417  0.44275  1.0000
  H   H2814     1.0  0.88787  0.28530  0.20835  1.0000
  N   N156      1.0  0.84082  0.46765  0.12860  1.0000
  C   C2375     1.0  0.65583  0.41370  0.30916  1.0000
  H   H2815     1.0  0.68311  0.44770  0.44571  1.0000
  H   H2816     1.0  0.86125  0.40538  0.15689  1.0000
  C   C2376     1.0  0.84226  0.35614  0.03155  1.0000
  H   H2817     1.0  0.86801  0.33127  0.22154  1.0000
  C   C2377     1.0  0.67067  0.37105  0.34921  1.0000
  H   H2818     1.0  0.81988  0.32770  0.08053  1.0000
  H   H2819     1.0  0.73723  0.25875  0.20327  1.0000
  C   C2378     1.0  0.66222  0.35247  0.38977  1.0000
  C   C2379     1.0  0.70924  0.30059  0.20423  1.0000
  C   C2380     1.0  0.82399  0.32504  0.03510  1.0000
  H   H2820     1.0  0.68231  0.35380  0.25889  1.0000
  Fe  Fe318     1.0  0.93798  0.29298  0.99719  1.0000
  C   C2381     1.0  0.65929  0.40091  0.29751  1.0000
  H   H2821     1.0  0.69264  0.35476  0.23446  1.0000
  H   H2822     1.0  0.66029  0.26986  0.41679  1.0000
  H   H2823     1.0  0.94165  0.28049  0.11910  1.0000
  C   C2382     1.0  0.82341  0.33357  0.04990  1.0000
  N   N157      1.0  0.93642  0.46753  0.10391  1.0000
  H   H2824     1.0  0.77146  0.44476  0.29735  1.0000
  H   H2825     1.0  0.71672  0.29276  0.19341  1.0000
  H   H2826     1.0  0.66772  0.42210  0.43021  1.0000
  C   C2383     1.0  0.80740  0.46485  0.06405  1.0000
  C   C2384     1.0  0.80517  0.47980  0.04881  1.0000
  C   C2385     1.0  0.96165  0.43537  0.04441  1.0000
  H   H2827     1.0  0.86545  0.46473  0.10672  1.0000
  C   C2386     1.0  0.71962  0.44390  0.39791  1.0000
  C   C2387     1.0  0.93455  0.24883  0.07389  1.0000
  H   H2828     1.0  0.73273  0.29471  0.21712  1.0000
  S   S638      1.0  0.86285  0.23938  0.15376  1.0000
  H   H2829     1.0  0.66629  0.32563  0.21867  1.0000
  Fe  Fe319     1.0  0.69422  0.24439  0.14987  1.0000
  C   C2388     1.0  0.85196  0.41523  0.14841  1.0000
  H   H2830     1.0  0.81739  0.29543  0.08570  1.0000
  C   C2389     1.0  0.73797  0.47792  0.26095  1.0000
  N   N158      1.0  0.82505  0.35334  0.04587  1.0000
  H   H2831     1.0  0.71604  0.31174  0.24197  1.0000
  C   C2390     1.0  0.82881  0.44038  0.12562  1.0000
  S   S639      1.0  0.81465  0.47692  0.02552  1.0000
  C   C2391     1.0  0.90835  0.25488  0.13957  1.0000
  C   C2392     1.0  0.79772  0.24259  0.10690  1.0000
  H   H2832     1.0  0.94356  0.44048  0.12175  1.0000
  C   C2393     1.0  0.79955  0.46755  0.08244  1.0000
  H   H2833     1.0  0.97616  0.42962  0.04525  1.0000
  H   H2834     1.0  0.86474  0.31463  0.21018  1.0000
  C   C2394     1.0  0.98276  0.43829  0.15967  1.0000
  H   H2835     1.0  0.76474  0.46693  0.30452  1.0000
  S   S640      1.0  0.70777  0.47549  0.31183  1.0000
  S   S641      1.0  0.94463  0.27393  0.02416  1.0000
  H   H2836     1.0  0.69682  0.40219  0.43126  1.0000
  H   H2837     1.0  0.83804  0.35122  0.06870  1.0000
  C   C2395     1.0  0.67795  0.31777  0.26607  1.0000
  S   S642      1.0  0.74921  0.25659  0.16359  1.0000
  H   H2838     1.0  0.81283  0.35945  0.07341  1.0000
  H   H2839     1.0  0.80067  0.45574  0.09408  1.0000
  H   H2840     1.0  0.66586  0.40481  0.40462  1.0000
  S   S643      1.0  0.88131  0.25057  0.23386  1.0000
  H   H2841     1.0  0.78723  0.45271  0.30588  1.0000
  H   H2842     1.0  0.92038  0.27205  0.14962  1.0000
  H   H2843     1.0  0.80324  0.24688  0.11702  1.0000
  C   C2396     1.0  0.95487  0.45461  0.04165  1.0000
  C   C2397     1.0  0.76749  0.26177  0.11541  1.0000
  H   H2844     1.0  0.87248  0.46690  0.99838  1.0000
  C   C2398     1.0  0.76970  0.47352  0.26585  1.0000
  H   H2845     1.0  0.80062  0.25242  0.09320  1.0000
  H   H2846     1.0  0.94185  0.26868  0.09230  1.0000
  C   C2399     1.0  0.66051  0.34178  0.24583  1.0000
  H   H2847     1.0  0.68962  0.23747  0.43184  1.0000
  H   H2848     1.0  0.95150  0.46977  0.07520  1.0000
  H   H2849     1.0  0.93416  0.24249  0.06233  1.0000
  H   H2850     1.0  0.86240  0.26372  0.99316  1.0000
  C   C2400     1.0  0.88592  0.46864  0.99917  1.0000
  H   H2851     1.0  0.89895  0.25121  0.15284  1.0000
  H   H2852     1.0  0.86613  0.29037  0.23751  1.0000
  H   H2853     1.0  0.74570  0.46455  0.28678  1.0000
  N   N159      1.0  0.78376  0.46688  0.27778  1.0000
  H   H2854     1.0  0.88942  0.25003  0.09664  1.0000
  C   C2401     1.0  0.92044  0.25205  0.10672  1.0000
  S   S644      1.0  0.69430  0.24035  0.12142  1.0000
  H   H2855     1.0  0.93311  0.26404  0.06790  1.0000
  C   C2402     1.0  0.83471  0.47470  0.14626  1.0000
  C   C2403     1.0  0.75092  0.47123  0.27255  1.0000
  H   H2856     1.0  0.67904  0.37415  0.35764  1.0000
  H   H2857     1.0  0.94864  0.24310  0.07722  1.0000
  H   H2858     1.0  0.84418  0.46764  0.15614  1.0000
  C   C2404     1.0  0.69215  0.46639  0.40859  1.0000
  C   C2405     1.0  0.66333  0.33740  0.40506  1.0000
  H   H2859     1.0  0.81360  0.47866  0.12198  1.0000
  N   N160      1.0  0.91954  0.24490  0.09062  1.0000
  H   H2860     1.0  0.65507  0.28786  0.14844  1.0000
  S   S645      1.0  0.89971  0.43420  0.99073  1.0000
  H   H2861     1.0  0.82043  0.47248  0.15359  1.0000
  H   H2862     1.0  0.98277  0.27223  0.98241  1.0000
  H   H2863     1.0  0.67022  0.32485  0.27788  1.0000
  H   H2864     1.0  0.66421  0.44675  0.42469  1.0000
  H   H2865     1.0  0.67855  0.47025  0.41731  1.0000
  H   H2866     1.0  0.93386  0.47500  0.00254  1.0000
  C   C2406     1.0  0.72713  0.45850  0.38521  1.0000
  H   H2867     1.0  0.65907  0.26776  0.10862  1.0000
  H   H2868     1.0  0.94432  0.48074  0.12194  1.0000
  H   H2869     1.0  0.74068  0.45550  0.37602  1.0000
  H   H2870     1.0  0.80024  0.47883  0.28899  1.0000
  Fe  Fe320     1.0  0.66131  0.45960  0.37114  1.0000
  C   C2407     1.0  0.71714  0.47690  0.38400  1.0000
  S   S646      1.0  0.65932  0.47061  0.34116  1.0000
  H   H2871     1.0  0.65485  0.24910  0.08923  1.0000
  C   C2408     1.0  0.69969  0.48083  0.39568  1.0000
  H   H2872     1.0  0.65576  0.31098  0.41883  1.0000
  C   C2409     1.0  0.91953  0.48210  0.10087  1.0000
  Fe  Fe321     1.0  0.65567  0.44194  0.34200  1.0000
  C   C2410     1.0  0.65476  0.32269  0.40699  1.0000
  H   H2873     1.0  0.65515  0.39131  0.43827  1.0000
  H   H2874     1.0  0.78145  0.23368  0.14205  1.0000
  H   H2875     1.0  0.89825  0.23926  0.12637  1.0000
  C   C2411     1.0  0.68700  0.23247  0.42085  1.0000
  S   S647      1.0  0.65453  0.43214  0.37282  1.0000
  S   S648      1.0  0.65478  0.29052  0.18817  1.0000
  H   H2876     1.0  0.79488  0.23237  0.07853  1.0000
  H   H2877     1.0  0.93828  0.34909  0.82766  1.0000
  C   C2412     1.0  0.84829  0.24573  0.82824  1.0000
  H   H2878     1.0  0.73777  0.32965  0.54474  1.0000
  H   H2879     1.0  0.95410  0.26944  0.88963  1.0000
  H   H2880     1.0  0.79354  0.24034  0.69707  1.0000
  H   H2881     1.0  0.79246  0.23854  0.75537  1.0000
  H   H2882     1.0  0.78936  0.29167  0.92255  1.0000
  C   C2413     1.0  0.80222  0.26570  0.54411  1.0000
  N   N161      1.0  0.90760  0.27020  0.94491  1.0000
  C   C2414     1.0  0.83127  0.38591  0.97537  1.0000
  H   H2883     1.0  0.81981  0.24765  0.95838  1.0000
  H   H2884     1.0  0.94808  0.31505  0.85894  1.0000
  C   C2415     1.0  0.90727  0.25491  0.96188  1.0000
  Fe  Fe322     1.0  0.84759  0.24331  0.70354  1.0000
  S   S649      1.0  0.85596  0.27035  0.68836  1.0000
  S   S650      1.0  0.81856  0.24241  0.72012  1.0000
  H   H2885     1.0  0.93084  0.32404  0.94362  1.0000
  H   H2886     1.0  0.97657  0.31279  0.93162  1.0000
  H   H2887     1.0  0.80824  0.30001  0.54150  1.0000
  Fe  Fe323     1.0  0.88267  0.25801  0.69909  1.0000
  S   S651      1.0  0.88886  0.27535  0.71667  1.0000
  Fe  Fe324     1.0  0.86933  0.25551  0.66451  1.0000
  S   S652      1.0  0.86721  0.26741  0.63416  1.0000
  C   C2416     1.0  0.87736  0.34185  0.95842  1.0000
  H   H2888     1.0  0.90467  0.37365  0.93777  1.0000
  C   C2417     1.0  0.66874  0.24097  0.56919  1.0000
  H   H2889     1.0  0.75807  0.24814  0.92001  1.0000
  C   C2418     1.0  0.92191  0.32089  0.90336  1.0000
  C   C2419     1.0  0.95861  0.32171  0.84783  1.0000
  N   N162      1.0  0.68265  0.24496  0.55157  1.0000
  C   C2420     1.0  0.95860  0.34919  0.90178  1.0000
  H   H2890     1.0  0.97192  0.34756  0.81974  1.0000
  H   H2891     1.0  0.93859  0.27027  0.95735  1.0000
  H   H2892     1.0  0.84558  0.33569  0.82072  1.0000
  S   S653      1.0  0.73590  0.25322  0.58665  1.0000
  H   H2893     1.0  0.88041  0.26780  0.94306  1.0000
  H   H2894     1.0  0.94078  0.47687  0.94785  1.0000
  Fe  Fe325     1.0  0.86767  0.30827  0.89857  1.0000
  S   S654      1.0  0.84602  0.33245  0.88828  1.0000
  S   S655      1.0  0.89690  0.29899  0.88274  1.0000
  Fe  Fe326     1.0  0.84170  0.29814  0.93596  1.0000
  S   S656      1.0  0.81798  0.32172  0.92877  1.0000
  C   C2421     1.0  0.88467  0.30324  0.78831  1.0000
  Fe  Fe327     1.0  0.82621  0.31278  0.90087  1.0000
  S   S657      1.0  0.80593  0.31055  0.88443  1.0000
  Fe  Fe328     1.0  0.84024  0.33888  0.91702  1.0000
  S   S658      1.0  0.84246  0.36750  0.91939  1.0000
  S   S659      1.0  0.84850  0.28814  0.90916  1.0000
  S   S660      1.0  0.86320  0.31572  0.92630  1.0000
  H   H2895     1.0  0.87872  0.24519  0.74553  1.0000
  Fe  Fe329     1.0  0.96297  0.30831  0.75312  1.0000
  S   S661      1.0  0.94847  0.29973  0.78302  1.0000
  S   S662      1.0  0.96088  0.29441  0.73050  1.0000
  H   H2896     1.0  0.86787  0.34607  0.94844  1.0000
  H   H2897     1.0  0.85698  0.31724  0.79811  1.0000
  H   H2898     1.0  0.88410  0.37541  0.95625  1.0000
  Fe  Fe330     1.0  0.94297  0.33022  0.78330  1.0000
  S   S663      1.0  0.91628  0.34459  0.79972  1.0000
  S   S664      1.0  0.95606  0.33929  0.75284  1.0000
  C   C2422     1.0  0.77993  0.27236  0.57179  1.0000
  C   C2423     1.0  0.85328  0.25066  0.78881  1.0000
  S   S665      1.0  0.68381  0.27411  0.49218  1.0000
  Fe  Fe331     1.0  0.70256  0.29264  0.49189  1.0000
  S   S666      1.0  0.72984  0.27852  0.50118  1.0000
  H   H2899     1.0  0.84631  0.24375  0.84332  1.0000
  S   S667      1.0  0.67949  0.31409  0.50451  1.0000
  H   H2900     1.0  0.92802  0.31350  0.89200  1.0000
  H   H2901     1.0  0.77132  0.28279  0.58022  1.0000
  H   H2902     1.0  0.77048  0.26399  0.57058  1.0000
  H   H2903     1.0  0.82852  0.24365  0.88303  1.0000
  C   C2424     1.0  0.77542  0.29271  0.54202  1.0000
  C   C2425     1.0  0.90265  0.31219  0.85998  1.0000
  C   C2426     1.0  0.89182  0.32983  0.85426  1.0000
  C   C2427     1.0  0.89607  0.33972  0.83572  1.0000
  C   C2428     1.0  0.91122  0.33207  0.82288  1.0000
  C   C2429     1.0  0.92246  0.31474  0.82882  1.0000
  C   C2430     1.0  0.91817  0.30481  0.84733  1.0000
  H   H2904     1.0  0.88022  0.33594  0.86406  1.0000
  H   H2905     1.0  0.88759  0.35333  0.83128  1.0000
  H   H2906     1.0  0.93442  0.30887  0.81914  1.0000
  H   H2907     1.0  0.92673  0.29123  0.85170  1.0000
  H   H2908     1.0  0.89976  0.30010  0.93842  1.0000
  C   C2431     1.0  0.83726  0.30196  0.83447  1.0000
  H   H2909     1.0  0.85990  0.28356  0.85836  1.0000
  H   H2910     1.0  0.97267  0.31367  0.84979  1.0000
  H   H2911     1.0  0.88292  0.35168  0.91808  1.0000
  C   C2432     1.0  0.84392  0.24496  0.76213  1.0000
  C   C2433     1.0  0.90274  0.28614  0.81161  1.0000
  C   C2434     1.0  0.85668  0.29910  0.85574  1.0000
  C   C2435     1.0  0.68386  0.25099  0.62202  1.0000
  C   C2436     1.0  0.78611  0.26389  0.92390  1.0000
  H   H2912     1.0  0.78374  0.27833  0.51836  1.0000
  C   C2437     1.0  0.83780  0.37444  0.94107  1.0000
  C   C2438     1.0  0.84401  0.39008  0.94182  1.0000
  H   H2913     1.0  0.67047  0.28986  0.61596  1.0000
  H   H2914     1.0  0.85113  0.39796  0.92908  1.0000
  C   C2439     1.0  0.73482  0.26075  0.56274  1.0000
  C   C2440     1.0  0.72086  0.27602  0.55721  1.0000
  C   C2441     1.0  0.71919  0.28170  0.53834  1.0000
  C   C2442     1.0  0.73144  0.27208  0.52495  1.0000
  C   C2443     1.0  0.74562  0.25709  0.53045  1.0000
  H   H2915     1.0  0.86394  0.28033  0.76079  1.0000
  H   H2916     1.0  0.71131  0.28346  0.56752  1.0000
  H   H2917     1.0  0.70851  0.29359  0.53413  1.0000
  C   C2444     1.0  0.66482  0.23946  0.65190  1.0000
  C   C2445     1.0  0.94139  0.26969  0.94270  1.0000
  H   H2918     1.0  0.81053  0.27121  0.53019  1.0000
  C   C2446     1.0  0.77437  0.28950  0.52464  1.0000
  C   C2447     1.0  0.79311  0.27690  0.92871  1.0000
  C   C2448     1.0  0.97143  0.33423  0.87526  1.0000
  C   C2449     1.0  0.90925  0.27990  0.72057  1.0000
  C   C2450     1.0  0.92723  0.27331  0.71086  1.0000
  C   C2451     1.0  0.94284  0.27777  0.71418  1.0000
  C   C2452     1.0  0.94074  0.28870  0.72734  1.0000
  C   C2453     1.0  0.92276  0.29508  0.73724  1.0000
  C   C2454     1.0  0.90714  0.29073  0.73383  1.0000
  H   H2919     1.0  0.92912  0.26501  0.70060  1.0000
  H   H2920     1.0  0.95665  0.27280  0.70640  1.0000
  H   H2921     1.0  0.92089  0.30373  0.74716  1.0000
  H   H2922     1.0  0.89332  0.29609  0.74127  1.0000
  C   C2455     1.0  0.85472  0.25932  0.62222  1.0000
  C   C2456     1.0  0.85853  0.26428  0.60264  1.0000
  C   C2457     1.0  0.84949  0.25815  0.59222  1.0000
  H   H2923     1.0  0.89970  0.25469  0.92915  1.0000
  H   H2924     1.0  0.88237  0.37363  0.93384  1.0000
  H   H2925     1.0  0.89294  0.27982  0.92209  1.0000
  H   H2926     1.0  0.86869  0.27285  0.59546  1.0000
  C   C2458     1.0  0.66708  0.25400  0.63576  1.0000
  C   C2459     1.0  0.90473  0.33332  0.90353  1.0000
  H   H2927     1.0  0.68300  0.27177  0.55592  1.0000
  C   C2460     1.0  0.80481  0.25552  0.86998  1.0000
  C   C2461     1.0  0.81844  0.25622  0.87907  1.0000
  C   C2462     1.0  0.81895  0.27293  0.88349  1.0000
  C   C2463     1.0  0.80579  0.28924  0.87889  1.0000
  C   C2464     1.0  0.79241  0.28870  0.86937  1.0000
  C   C2465     1.0  0.79189  0.27191  0.86492  1.0000
  H   H2928     1.0  0.74072  0.23297  0.67029  1.0000
  H   H2929     1.0  0.82933  0.27304  0.89078  1.0000
  H   H2930     1.0  0.78222  0.30127  0.86564  1.0000
  H   H2931     1.0  0.78125  0.27157  0.85800  1.0000
  H   H2932     1.0  0.66701  0.27256  0.54202  1.0000
  N   N163      1.0  0.78950  0.28103  0.55297  1.0000
  S   S668      1.0  0.96860  0.32828  0.79326  1.0000
  H   H2933     1.0  0.84614  0.24762  0.74658  1.0000
  H   H2934     1.0  0.71040  0.23270  0.61418  1.0000
  H   H2935     1.0  0.79006  0.26295  0.58023  1.0000
  C   C2466     1.0  0.82836  0.36453  0.95755  1.0000
  H   H2936     1.0  0.90863  0.29078  0.95945  1.0000
  H   H2937     1.0  0.83233  0.31604  0.96647  1.0000
  S   S669      1.0  0.77526  0.23455  0.61545  1.0000
  C   C2467     1.0  0.95615  0.34414  0.86666  1.0000
  H   H2938     1.0  0.92993  0.36494  0.87107  1.0000
  H   H2939     1.0  0.86804  0.30381  0.85877  1.0000
  H   H2940     1.0  0.98449  0.32889  0.89867  1.0000
  C   C2468     1.0  0.69752  0.23456  0.62463  1.0000
  H   H2941     1.0  0.89800  0.34907  0.97763  1.0000
  H   H2942     1.0  0.75524  0.24968  0.52012  1.0000
  C   C2469     1.0  0.74743  0.31491  0.52219  1.0000
  H   H2943     1.0  0.93244  0.36881  0.90106  1.0000
  S   S670      1.0  0.82583  0.23985  0.58663  1.0000
  C   C2470     1.0  0.93205  0.26994  0.91438  1.0000
  H   H2944     1.0  0.95746  0.31956  0.83421  1.0000
  H   H2945     1.0  0.92593  0.34630  0.85157  1.0000
  C   C2471     1.0  0.86111  0.25602  0.81622  1.0000
  H   H2946     1.0  0.97874  0.26831  0.90606  1.0000
  H   H2947     1.0  0.66326  0.28270  0.65145  1.0000
  H   H2948     1.0  0.89752  0.33554  0.89226  1.0000
  H   H2949     1.0  0.76183  0.31093  0.56195  1.0000
  N   N164      1.0  0.85643  0.25324  0.76820  1.0000
  H   H2950     1.0  0.95947  0.35095  0.91527  1.0000
  C   C2472     1.0  0.96439  0.26887  0.91368  1.0000
  H   H2951     1.0  0.88986  0.28623  0.83999  1.0000
  H   H2952     1.0  0.86937  0.26187  0.82196  1.0000
  H   H2953     1.0  0.88297  0.47875  0.95392  1.0000
  C   C2473     1.0  0.65733  0.28558  0.61668  1.0000
  H   H2954     1.0  0.77715  0.26950  0.91390  1.0000
  C   C2474     1.0  0.74814  0.31853  0.53908  1.0000
  C   C2475     1.0  0.80513  0.27101  0.94115  1.0000
  H   H2955     1.0  0.92204  0.27044  0.90635  1.0000
  S   S671      1.0  0.89704  0.24540  0.67353  1.0000
  C   C2476     1.0  0.97113  0.34957  0.83397  1.0000
  C   C2477     1.0  0.77057  0.23829  0.91407  1.0000
  H   H2956     1.0  0.81228  0.28417  0.56312  1.0000
  C   C2478     1.0  0.94210  0.35680  0.87644  1.0000
  H   H2957     1.0  0.69119  0.26903  0.53192  1.0000
  H   H2958     1.0  0.83923  0.28097  0.76554  1.0000
  C   C2479     1.0  0.97258  0.33671  0.89253  1.0000
  H   H2959     1.0  0.93559  0.36692  0.83990  1.0000
  H   H2960     1.0  0.91320  0.28855  0.78190  1.0000
  C   C2480     1.0  0.81032  0.25207  0.94879  1.0000
  C   C2481     1.0  0.80121  0.29275  0.55533  1.0000
  C   C2482     1.0  0.89152  0.36851  0.94421  1.0000
  H   H2961     1.0  0.71235  0.23990  0.53995  1.0000
  C   C2483     1.0  0.74723  0.25134  0.54928  1.0000
  C   C2484     1.0  0.95051  0.26948  0.90450  1.0000
  H   H2962     1.0  0.85286  0.26199  0.57707  1.0000
  H   H2963     1.0  0.66579  0.24506  0.53244  1.0000
  C   C2485     1.0  0.90009  0.28835  0.95081  1.0000
  H   H2964     1.0  0.81052  0.28113  0.94484  1.0000
  H   H2965     1.0  0.97065  0.26855  0.93985  1.0000
  H   H2966     1.0  0.85427  0.27583  0.74400  1.0000
  C   C2486     1.0  0.89471  0.26800  0.93427  1.0000
  H   H2967     1.0  0.75787  0.23942  0.55338  1.0000
  C   C2487     1.0  0.68091  0.26544  0.54514  1.0000
  H   H2968     1.0  0.75972  0.29756  0.50196  1.0000
  C   C2488     1.0  0.83812  0.23769  0.82088  1.0000
  C   C2489     1.0  0.95982  0.26899  0.93273  1.0000
  H   H2969     1.0  0.91593  0.27804  0.81504  1.0000
  H   H2970     1.0  0.84573  0.40778  0.95934  1.0000
  H   H2971     1.0  0.86950  0.34805  0.97082  1.0000
  H   H2972     1.0  0.73650  0.32304  0.51479  1.0000
  C   C2490     1.0  0.98511  0.30132  0.93950  1.0000
  C   C2491     1.0  0.86357  0.25852  0.79679  1.0000
  H   H2973     1.0  0.91577  0.46172  0.94908  1.0000
  S   S672      1.0  0.95384  0.30238  0.96757  1.0000
  C   C2492     1.0  0.84143  0.24822  0.63137  1.0000
  S   S673      1.0  0.84212  0.27763  0.96328  1.0000
  H   H2974     1.0  0.77754  0.24576  0.90037  1.0000
  C   C2493     1.0  0.88753  0.29100  0.82587  1.0000
  C   C2494     1.0  0.90128  0.29215  0.79290  1.0000
  H   H2975     1.0  0.79435  0.25597  0.54243  1.0000
  H   H2976     1.0  0.83955  0.28652  0.83644  1.0000
  C   C2495     1.0  0.92297  0.32702  0.93286  1.0000
  C   C2496     1.0  0.93113  0.31797  0.91786  1.0000
  C   C2497     1.0  0.76195  0.30768  0.54884  1.0000
  C   C2498     1.0  0.76060  0.30055  0.51494  1.0000
  Fe  Fe332     1.0  0.97558  0.29847  0.79029  1.0000
  N   N165      1.0  0.85384  0.30761  0.83636  1.0000
  H   H2977     1.0  0.82340  0.35256  0.95714  1.0000
  C   C2499     1.0  0.83614  0.24724  0.60114  1.0000
  C   C2500     1.0  0.80338  0.23893  0.94414  1.0000
  C   C2501     1.0  0.84101  0.39565  0.95894  1.0000
  N   N166      1.0  0.89535  0.34786  0.95020  1.0000
  C   C2502     1.0  0.92697  0.26976  0.93394  1.0000
  H   H2978     1.0  0.89274  0.25422  0.96979  1.0000
  N   N167      1.0  0.95582  0.34183  0.84792  1.0000
  H   H2979     1.0  0.88386  0.30839  0.77367  1.0000
  H   H2980     1.0  0.82893  0.25095  0.76727  1.0000
  H   H2981     1.0  0.94466  0.30854  0.91758  1.0000
  C   C2503     1.0  0.83197  0.24236  0.62082  1.0000
  H   H2982     1.0  0.83783  0.33291  0.84559  1.0000
  C   C2504     1.0  0.94340  0.35922  0.89375  1.0000
  H   H2983     1.0  0.98281  0.32462  0.86855  1.0000
  C   C2505     1.0  0.86937  0.30820  0.80244  1.0000
  C   C2506     1.0  0.84960  0.32821  0.83428  1.0000
  H   H2984     1.0  0.87962  0.32639  0.96307  1.0000
  C   C2507     1.0  0.89647  0.34246  0.91845  1.0000
  C   C2508     1.0  0.87023  0.30205  0.82169  1.0000
  C   C2509     1.0  0.84056  0.23996  0.80149  1.0000
  H   H2985     1.0  0.98501  0.34276  0.83741  1.0000
  C   C2510     1.0  0.90512  0.33923  0.93384  1.0000
  H   H2986     1.0  0.82468  0.30644  0.84510  1.0000
  H   H2987     1.0  0.83337  0.30837  0.82069  1.0000
  H   H2988     1.0  0.79297  0.30359  0.56345  1.0000
  H   H2989     1.0  0.81247  0.25701  0.55278  1.0000
  H   H2990     1.0  0.70497  0.23303  0.79977  1.0000
  H   H2991     1.0  0.86193  0.33313  0.83491  1.0000
  H   H2992     1.0  0.91949  0.34728  0.96060  1.0000
  C   C2511     1.0  0.93809  0.35149  0.84166  1.0000
  H   H2993     1.0  0.84399  0.30317  0.86638  1.0000
  C   C2512     1.0  0.97747  0.29345  0.95805  1.0000
  C   C2513     1.0  0.87596  0.24426  0.76089  1.0000
  H   H2994     1.0  0.82171  0.23389  0.62788  1.0000
  S   S674      1.0  0.73726  0.23431  0.81232  1.0000
  C   C2514     1.0  0.90597  0.34263  0.96541  1.0000
  H   H2995     1.0  0.91399  0.24108  0.95811  1.0000
  C   C2515     1.0  0.85330  0.27346  0.75939  1.0000
  H   H2996     1.0  0.65859  0.28034  0.60387  1.0000
  H   H2997     1.0  0.68698  0.26117  0.60926  1.0000
  H   H2998     1.0  0.88558  0.28923  0.95927  1.0000
  C   C2516     1.0  0.79094  0.24444  0.93162  1.0000
  H   H2999     1.0  0.96926  0.36479  0.83313  1.0000
  C   C2517     1.0  0.70228  0.23667  0.55347  1.0000
  H   H3000     1.0  0.91454  0.25669  0.97204  1.0000
  C   C2518     1.0  0.82493  0.37039  0.97455  1.0000
  C   C2519     1.0  0.91251  0.47630  0.95006  1.0000
  H   H3001     1.0  0.69023  0.23913  0.52375  1.0000
  Fe  Fe333     1.0  0.66064  0.29654  0.50270  1.0000
  C   C2520     1.0  0.67919  0.23753  0.53678  1.0000
  S   S675      1.0  0.80358  0.23340  0.86721  1.0000
  H   H3002     1.0  0.70621  0.24240  0.56365  1.0000
  Fe  Fe334     1.0  0.98276  0.33449  0.76312  1.0000
  H   H3003     1.0  0.87383  0.26639  0.78800  1.0000
  H   H3004     1.0  0.90881  0.32724  0.97101  1.0000
  H   H3005     1.0  0.83828  0.24438  0.64649  1.0000
  H   H3006     1.0  0.83240  0.23301  0.79686  1.0000
  H   H3007     1.0  0.88632  0.25106  0.76300  1.0000
  C   C2521     1.0  0.84113  0.30822  0.97627  1.0000
  H   H3008     1.0  0.71663  0.23350  0.69966  1.0000
  C   C2522     1.0  0.84692  0.28883  0.97839  1.0000
  H   H3009     1.0  0.91175  0.48709  0.12934  1.0000
  H   H3010     1.0  0.84842  0.49957  0.07079  1.0000
  C   C2523     1.0  0.88718  0.48449  0.00445  1.0000
  C   C2524     1.0  0.83266  0.71072  0.29130  1.0000
  C   C2525     1.0  0.70326  0.70899  0.30660  1.0000
  Fe  Fe335     1.0  0.92946  0.51589  0.01562  1.0000
  S   S676      1.0  0.93011  0.52408  0.04171  1.0000
  S   S677      1.0  0.90427  0.50557  0.01557  1.0000
  C   C2526     1.0  0.80645  0.70301  0.23546  1.0000
  Fe  Fe336     1.0  0.93493  0.55148  0.02337  1.0000
  S   S678      1.0  0.91474  0.57678  0.03265  1.0000
  Fe  Fe337     1.0  0.66481  0.67017  0.10650  1.0000
  S   S679      1.0  0.93219  0.54395  0.99762  1.0000
  H   H3011     1.0  0.93237  0.71117  0.33529  1.0000
  S   S680      1.0  0.67245  0.60452  0.09900  1.0000
  H   H3012     1.0  0.86246  0.63491  0.09820  1.0000
  S   S681      1.0  0.68431  0.68987  0.09548  1.0000
  S   S682      1.0  0.67335  0.64178  0.12367  1.0000
  H   H3013     1.0  0.87259  0.53197  0.02665  1.0000
  S   S683      1.0  0.69674  0.60536  0.24819  1.0000
  S   S684      1.0  0.77783  0.53789  0.27278  1.0000
  Fe  Fe338     1.0  0.82491  0.53903  0.28317  1.0000
  S   S685      1.0  0.81697  0.55319  0.25560  1.0000
  S   S686      1.0  0.85348  0.54040  0.28563  1.0000
  Fe  Fe339     1.0  0.78889  0.56253  0.27297  1.0000
  S   S687      1.0  0.77584  0.59303  0.26527  1.0000
  Fe  Fe340     1.0  0.80679  0.52748  0.25774  1.0000
  S   S688      1.0  0.81341  0.51415  0.23286  1.0000
  S   S689      1.0  0.79729  0.55010  0.30067  1.0000
  Fe  Fe341     1.0  0.80652  0.53338  0.12247  1.0000
  S   S690      1.0  0.79233  0.51085  0.14101  1.0000
  S   S691      1.0  0.83760  0.52917  0.11773  1.0000
  Fe  Fe342     1.0  0.77047  0.55763  0.11168  1.0000
  S   S692      1.0  0.75356  0.53637  0.12892  1.0000
  S   S693      1.0  0.75869  0.58699  0.09768  1.0000
  Fe  Fe343     1.0  0.76970  0.53417  0.15061  1.0000
  S   S694      1.0  0.75548  0.53730  0.18012  1.0000
  Fe  Fe344     1.0  0.77810  0.51526  0.11721  1.0000
  H   H3014     1.0  0.93256  0.67128  0.30215  1.0000
  S   S695      1.0  0.78533  0.55644  0.13404  1.0000
  S   S696      1.0  0.79355  0.53681  0.09812  1.0000
  H   H3015     1.0  0.85483  0.66853  0.05426  1.0000
  Fe  Fe345     1.0  0.91898  0.62664  0.26302  1.0000
  S   S697      1.0  0.91529  0.60712  0.29126  1.0000
  S   S698      1.0  0.93281  0.61480  0.23702  1.0000
  Fe  Fe346     1.0  0.89842  0.66070  0.27889  1.0000
  S   S699      1.0  0.89253  0.64415  0.30814  1.0000
  S   S700      1.0  0.88768  0.69176  0.27270  1.0000
  Fe  Fe347     1.0  0.92235  0.62922  0.30154  1.0000
  S   S701      1.0  0.93651  0.62360  0.32592  1.0000
  Fe  Fe348     1.0  0.88592  0.62371  0.29555  1.0000
  S   S702      1.0  0.85957  0.61271  0.30854  1.0000
  S   S703      1.0  0.92886  0.64726  0.27284  1.0000
  S   S704      1.0  0.88896  0.64169  0.26685  1.0000
  Fe  Fe349     1.0  0.86715  0.58934  0.15895  1.0000
  S   S705      1.0  0.89443  0.59676  0.15653  1.0000
  S   S706      1.0  0.85945  0.56224  0.17531  1.0000
  Fe  Fe350     1.0  0.85144  0.62659  0.13592  1.0000
  S   S707      1.0  0.87760  0.63725  0.13081  1.0000
  S   S708      1.0  0.82527  0.64225  0.12551  1.0000
  Fe  Fe351     1.0  0.89271  0.60847  0.12627  1.0000
  S   S709      1.0  0.91901  0.60235  0.10444  1.0000
  Fe  Fe352     1.0  0.87703  0.62469  0.16131  1.0000
  S   S710      1.0  0.87847  0.64243  0.18026  1.0000
  S   S711      1.0  0.86655  0.59899  0.12845  1.0000
  S   S712      1.0  0.84972  0.61607  0.16668  1.0000
  C   C2527     1.0  0.91037  0.55030  0.10259  1.0000
  H   H3016     1.0  0.65648  0.70117  0.07020  1.0000
  C   C2528     1.0  0.68473  0.54008  0.32066  1.0000
  S   S713      1.0  0.71037  0.67977  0.26602  1.0000
  H   H3017     1.0  0.97405  0.56213  0.11965  1.0000
  C   C2529     1.0  0.95081  0.63875  0.32562  1.0000
  C   C2530     1.0  0.96257  0.64567  0.30903  1.0000
  C   C2531     1.0  0.90817  0.49077  0.11573  1.0000
  C   C2532     1.0  0.97345  0.66289  0.32571  1.0000
  C   C2533     1.0  0.96167  0.65601  0.34230  1.0000
  C   C2534     1.0  0.95067  0.64369  0.34230  1.0000
  H   H3018     1.0  0.96305  0.64170  0.29616  1.0000
  H   H3019     1.0  0.79829  0.71700  0.23595  1.0000
  H   H3020     1.0  0.96129  0.65992  0.35518  1.0000
  H   H3021     1.0  0.94185  0.63816  0.35525  1.0000
  C   C2535     1.0  0.91948  0.62345  0.21954  1.0000
  C   C2536     1.0  0.90622  0.64018  0.21967  1.0000
  C   C2537     1.0  0.89405  0.64598  0.20724  1.0000
  C   C2538     1.0  0.89521  0.63526  0.19433  1.0000
  C   C2539     1.0  0.90913  0.61898  0.19342  1.0000
  C   C2540     1.0  0.92133  0.61312  0.20599  1.0000
  H   H3022     1.0  0.90544  0.64882  0.22923  1.0000
  H   H3023     1.0  0.88360  0.65879  0.20773  1.0000
  H   H3024     1.0  0.91036  0.61085  0.18322  1.0000
  H   H3025     1.0  0.93180  0.60032  0.20560  1.0000
  C   C2541     1.0  0.81644  0.66412  0.13187  1.0000
  H   H3026     1.0  0.84006  0.66320  0.14302  1.0000
  C   C2542     1.0  0.67289  0.58828  0.15803  1.0000
  H   H3027     1.0  0.95167  0.69467  0.30540  1.0000
  C   C2543     1.0  0.79533  0.49750  0.05214  1.0000
  C   C2544     1.0  0.86565  0.69646  0.28725  1.0000
  C   C2545     1.0  0.86312  0.68861  0.30644  1.0000
  C   C2546     1.0  0.84537  0.69159  0.31801  1.0000
  Fe  Fe353     1.0  0.68638  0.66506  0.27113  1.0000
  H   H3028     1.0  0.88323  0.56283  0.06068  1.0000
  H   H3029     1.0  0.87484  0.68041  0.31247  1.0000
  H   H3030     1.0  0.84344  0.68546  0.33285  1.0000
  C   C2547     1.0  0.84392  0.53754  0.13416  1.0000
  C   C2548     1.0  0.85961  0.54555  0.12875  1.0000
  C   C2549     1.0  0.86471  0.55263  0.14157  1.0000
  C   C2550     1.0  0.85424  0.55154  0.15992  1.0000
  C   C2551     1.0  0.83901  0.54278  0.16559  1.0000
  C   C2552     1.0  0.83361  0.53610  0.15260  1.0000
  H   H3031     1.0  0.86757  0.54661  0.11452  1.0000
  H   H3032     1.0  0.87681  0.55888  0.13730  1.0000
  H   H3033     1.0  0.83127  0.54139  0.17992  1.0000
  H   H3034     1.0  0.82162  0.52969  0.15690  1.0000
  C   C2553     1.0  0.85499  0.56076  0.29164  1.0000
  C   C2554     1.0  0.87243  0.56551  0.28802  1.0000
  C   C2555     1.0  0.87391  0.58174  0.29268  1.0000
  C   C2556     1.0  0.85804  0.59288  0.30161  1.0000
  C   C2557     1.0  0.84069  0.58794  0.30554  1.0000
  C   C2558     1.0  0.83911  0.57212  0.30024  1.0000
  H   H3035     1.0  0.88478  0.55666  0.28151  1.0000
  H   H3036     1.0  0.88736  0.58542  0.28965  1.0000
  H   H3037     1.0  0.82840  0.59630  0.31269  1.0000
  H   H3038     1.0  0.82566  0.56848  0.30324  1.0000
  C   C2559     1.0  0.79705  0.52093  0.21847  1.0000
  C   C2560     1.0  0.80235  0.51619  0.20087  1.0000
  C   C2561     1.0  0.78964  0.52135  0.18903  1.0000
  C   C2562     1.0  0.77148  0.53106  0.19482  1.0000
  C   C2563     1.0  0.76608  0.53575  0.21248  1.0000
  C   C2564     1.0  0.77886  0.53069  0.22429  1.0000
  H   H3039     1.0  0.81640  0.50864  0.19629  1.0000
  H   H3040     1.0  0.79387  0.51763  0.17551  1.0000
  H   H3041     1.0  0.88054  0.69320  0.11082  1.0000
  C   C2565     1.0  0.71982  0.60252  0.24980  1.0000
  C   C2566     1.0  0.72575  0.61740  0.25247  1.0000
  C   C2567     1.0  0.74334  0.61458  0.25647  1.0000
  C   C2568     1.0  0.75493  0.59683  0.25796  1.0000
  C   C2569     1.0  0.74948  0.58227  0.25405  1.0000
  C   C2570     1.0  0.73191  0.58508  0.24996  1.0000
  H   H3042     1.0  0.71665  0.63105  0.25189  1.0000
  H   H3043     1.0  0.74765  0.62603  0.25899  1.0000
  H   H3044     1.0  0.75865  0.56881  0.25434  1.0000
  H   H3045     1.0  0.72744  0.57358  0.24772  1.0000
  H   H3046     1.0  0.91396  0.54511  0.30189  1.0000
  C   C2571     1.0  0.70050  0.69721  0.29636  1.0000
  C   C2572     1.0  0.80689  0.69392  0.22109  1.0000
  H   H3047     1.0  0.71642  0.56212  0.14754  1.0000
  C   C2573     1.0  0.87429  0.55503  0.05840  1.0000
  S   S714      1.0  0.71265  0.69889  0.16292  1.0000
  C   C2574     1.0  0.69683  0.59977  0.09613  1.0000
  C   C2575     1.0  0.70624  0.61429  0.09254  1.0000
  C   C2576     1.0  0.72543  0.61022  0.09223  1.0000
  C   C2577     1.0  0.73516  0.59163  0.09606  1.0000
  C   C2578     1.0  0.72588  0.57713  0.09902  1.0000
  C   C2579     1.0  0.70680  0.58122  0.09871  1.0000
  H   H3048     1.0  0.69875  0.62867  0.08990  1.0000
  H   H3049     1.0  0.73265  0.62152  0.08915  1.0000
  H   H3050     1.0  0.73340  0.56277  0.10135  1.0000
  H   H3051     1.0  0.69964  0.56997  0.10107  1.0000
  H   H3052     1.0  0.75834  0.65399  0.17343  1.0000
  C   C2580     1.0  0.91610  0.58278  0.05313  1.0000
  C   C2581     1.0  0.89975  0.59134  0.06418  1.0000
  C   C2582     1.0  0.90047  0.59665  0.08037  1.0000
  C   C2583     1.0  0.91765  0.59445  0.08500  1.0000
  C   C2584     1.0  0.93403  0.58618  0.07378  1.0000
  C   C2585     1.0  0.93322  0.57995  0.05814  1.0000
  H   H3053     1.0  0.88649  0.59382  0.06023  1.0000
  H   H3054     1.0  0.88781  0.60284  0.08901  1.0000
  H   H3055     1.0  0.94591  0.57354  0.04959  1.0000
  H   H3056     1.0  0.83434  0.48997  0.14360  1.0000
  S   S715      1.0  0.78002  0.48806  0.10908  1.0000
  H   H3057     1.0  0.68923  0.68975  0.30186  1.0000
  C   C2586     1.0  0.67798  0.58682  0.32581  1.0000
  N   N168      1.0  0.67706  0.57578  0.31266  1.0000
  S   S716      1.0  0.97854  0.73104  0.37738  1.0000
  S   S717      1.0  0.65525  0.67412  0.28103  1.0000
  C   C2587     1.0  0.82835  0.67678  0.24907  1.0000
  H   H3058     1.0  0.68852  0.57911  0.33445  1.0000
  C   C2588     1.0  0.81696  0.69448  0.24925  1.0000
  C   C2589     1.0  0.85298  0.69991  0.10529  1.0000
  Fe  Fe354     1.0  0.68187  0.63069  0.25998  1.0000
  H   H3059     1.0  0.90833  0.68048  0.30155  1.0000
  C   C2590     1.0  0.70232  0.59797  0.14623  1.0000
  H   H3060     1.0  0.72531  0.50562  0.29051  1.0000
  H   H3061     1.0  0.68949  0.50997  0.32894  1.0000
  H   H3062     1.0  0.89392  0.50664  0.06747  1.0000
  C   C2591     1.0  0.82930  0.66754  0.23507  1.0000
  H   H3063     1.0  0.86434  0.58295  0.36277  1.0000
  H   H3064     1.0  0.87469  0.49493  0.00745  1.0000
  H   H3065     1.0  0.66030  0.50974  0.35303  1.0000
  H   H3066     1.0  0.90441  0.60554  0.34251  1.0000
  C   C2592     1.0  0.96241  0.53025  0.13272  1.0000
  C   C2593     1.0  0.92574  0.69935  0.34097  1.0000
  H   H3067     1.0  0.70023  0.60094  0.13164  1.0000
  H   H3068     1.0  0.88356  0.51078  0.12491  1.0000
  C   C2594     1.0  0.70090  0.56595  0.14987  1.0000
  H   H3069     1.0  0.85016  0.72914  0.31078  1.0000
  C   C2595     1.0  0.66697  0.73001  0.27649  1.0000
  S   S718      1.0  0.77365  0.72554  0.29072  1.0000
  H   H3070     1.0  0.86064  0.48554  0.11591  1.0000
  H   H3071     1.0  0.91142  0.53831  0.07945  1.0000
  H   H3072     1.0  0.72087  0.71496  0.12327  1.0000
  H   H3073     1.0  0.82654  0.70294  0.09844  1.0000
  H   H3074     1.0  0.69666  0.61126  0.15132  1.0000
  C   C2596     1.0  0.91747  0.55307  0.30998  1.0000
  Fe  Fe355     1.0  0.95661  0.72049  0.37098  1.0000
  H   H3075     1.0  0.94901  0.55956  0.14832  1.0000
  H   H3076     1.0  0.95417  0.56859  0.31343  1.0000
  H   H3077     1.0  0.93267  0.57222  0.13417  1.0000
  H   H3078     1.0  0.89211  0.54954  0.03236  1.0000
  C   C2597     1.0  0.65566  0.72188  0.27065  1.0000
  C   C2598     1.0  0.72423  0.48528  0.31652  1.0000
  C   C2599     1.0  0.74527  0.50704  0.30543  1.0000
  S   S719      1.0  0.79528  0.72276  0.14436  1.0000
  H   H3079     1.0  0.88027  0.60821  0.35368  1.0000
  H   H3080     1.0  0.69401  0.71059  0.31994  1.0000
  H   H3081     1.0  0.82201  0.58626  0.17960  1.0000
  H   H3082     1.0  0.89586  0.55730  0.10345  1.0000
  C   C2600     1.0  0.69596  0.57962  0.17764  1.0000
  H   H3083     1.0  0.92964  0.54978  0.14913  1.0000
  H   H3084     1.0  0.83728  0.67775  0.08120  1.0000
  H   H3085     1.0  0.77888  0.49400  0.28409  1.0000
  C   C2601     1.0  0.76165  0.48905  0.23528  1.0000
  H   H3086     1.0  0.84785  0.71088  0.11327  1.0000
  N   N169      1.0  0.92190  0.69847  0.30900  1.0000
  H   H3087     1.0  0.87728  0.67463  0.04813  1.0000
  H   H3088     1.0  0.90501  0.66899  0.33134  1.0000
  C   C2602     1.0  0.97396  0.65754  0.30913  1.0000
  N   N170      1.0  0.87343  0.58473  0.22993  1.0000
  C   C2603     1.0  0.87433  0.56429  0.23534  1.0000
  C   C2604     1.0  0.87595  0.59060  0.20923  1.0000
  C   C2605     1.0  0.88938  0.58841  0.23527  1.0000
  C   C2606     1.0  0.85505  0.59464  0.23897  1.0000
  C   C2607     1.0  0.83851  0.59354  0.23436  1.0000
  C   C2608     1.0  0.85291  0.60538  0.25255  1.0000
  C   C2609     1.0  0.82097  0.60269  0.24269  1.0000
  C   C2610     1.0  0.83527  0.61433  0.26093  1.0000
  C   C2611     1.0  0.81933  0.61295  0.25604  1.0000
  H   H3089     1.0  0.86352  0.56016  0.23076  1.0000
  H   H3090     1.0  0.88809  0.55627  0.22910  1.0000
  H   H3091     1.0  0.87209  0.55939  0.25082  1.0000
  H   H3092     1.0  0.86639  0.58569  0.20362  1.0000
  H   H3093     1.0  0.89031  0.58488  0.20196  1.0000
  H   H3094     1.0  0.87343  0.60611  0.20477  1.0000
  H   H3095     1.0  0.88915  0.58313  0.25050  1.0000
  H   H3096     1.0  0.90308  0.58141  0.22780  1.0000
  H   H3097     1.0  0.88930  0.60363  0.23178  1.0000
  H   H3098     1.0  0.83906  0.58529  0.22449  1.0000
  H   H3099     1.0  0.86461  0.60689  0.25719  1.0000
  H   H3100     1.0  0.80854  0.60145  0.23909  1.0000
  H   H3101     1.0  0.83403  0.62207  0.27153  1.0000
  H   H3102     1.0  0.80565  0.61956  0.26280  1.0000
  C   C2612     1.0  0.87934  0.54739  0.04249  1.0000
  C   C2613     1.0  0.86111  0.64081  0.08340  1.0000
  H   H3103     1.0  0.77454  0.53414  0.23794  1.0000
  N   N171      1.0  0.83902  0.52305  0.04990  1.0000
  C   C2614     1.0  0.84723  0.51335  0.03398  1.0000
  C   C2615     1.0  0.83016  0.70264  0.31045  1.0000
  C   C2616     1.0  0.82119  0.53572  0.04640  1.0000
  C   C2617     1.0  0.85124  0.53408  0.05248  1.0000
  C   C2618     1.0  0.86798  0.53718  0.03942  1.0000
  C   C2619     1.0  0.84620  0.54264  0.06819  1.0000
  C   C2620     1.0  0.73096  0.49994  0.30304  1.0000
  H   H3104     1.0  0.65743  0.64651  0.22887  1.0000
  C   C2621     1.0  0.85762  0.55288  0.07111  1.0000
  H   H3105     1.0  0.86091  0.50388  0.03572  1.0000
  H   H3106     1.0  0.83805  0.50454  0.03283  1.0000
  H   H3107     1.0  0.84922  0.52339  0.02028  1.0000
  H   H3108     1.0  0.71012  0.71087  0.09674  1.0000
  H   H3109     1.0  0.95657  0.57429  0.10613  1.0000
  H   H3110     1.0  0.88750  0.60635  0.32960  1.0000
  H   H3111     1.0  0.81349  0.54252  0.05837  1.0000
  H   H3112     1.0  0.82364  0.54707  0.03382  1.0000
  H   H3113     1.0  0.81167  0.52814  0.04397  1.0000
  H   H3114     1.0  0.82833  0.69495  0.14987  1.0000
  H   H3115     1.0  0.83332  0.54156  0.07836  1.0000
  H   H3116     1.0  0.67908  0.60667  0.18288  1.0000
  H   H3117     1.0  0.94621  0.54991  0.29543  1.0000
  H   H3118     1.0  0.81654  0.70183  0.25993  1.0000
  C   C2622     1.0  0.90599  0.71421  0.30564  1.0000
  S   S720      1.0  0.97502  0.49566  0.05693  1.0000
  S   S721      1.0  0.77286  0.50617  0.32347  1.0000
  H   H3119     1.0  0.90167  0.65612  0.06685  1.0000
  H   H3120     1.0  0.70710  0.56699  0.30570  1.0000
  H   H3121     1.0  0.74588  0.63559  0.20439  1.0000
  N   N172      1.0  0.73934  0.64038  0.12916  1.0000
  C   C2623     1.0  0.75408  0.63544  0.11283  1.0000
  C   C2624     1.0  0.72103  0.64479  0.12375  1.0000
  C   C2625     1.0  0.74244  0.65751  0.13284  1.0000
  C   C2626     1.0  0.73927  0.62524  0.14619  1.0000
  C   C2627     1.0  0.75017  0.60682  0.14602  1.0000
  C   C2628     1.0  0.72733  0.62844  0.16352  1.0000
  C   C2629     1.0  0.74934  0.59275  0.16228  1.0000
  C   C2630     1.0  0.72683  0.61433  0.17974  1.0000
  C   C2631     1.0  0.73787  0.59654  0.17912  1.0000
  H   H3122     1.0  0.75195  0.62353  0.10819  1.0000
  H   H3123     1.0  0.75409  0.64723  0.10038  1.0000
  H   H3124     1.0  0.76824  0.63169  0.11608  1.0000
  H   H3125     1.0  0.71822  0.63237  0.12064  1.0000
  H   H3126     1.0  0.72029  0.65622  0.11103  1.0000
  H   H3127     1.0  0.70931  0.64944  0.13502  1.0000
  H   H3128     1.0  0.75576  0.65465  0.13761  1.0000
  H   H3129     1.0  0.74302  0.66896  0.12009  1.0000
  H   H3130     1.0  0.73105  0.66349  0.14361  1.0000
  H   H3131     1.0  0.75923  0.60276  0.13343  1.0000
  H   H3132     1.0  0.71810  0.64186  0.16466  1.0000
  H   H3133     1.0  0.75746  0.57870  0.16178  1.0000
  H   H3134     1.0  0.71770  0.61715  0.19284  1.0000
  H   H3135     1.0  0.73733  0.58556  0.19165  1.0000
  N   N173      1.0  0.79464  0.58322  0.19659  1.0000
  C   C2632     1.0  0.81469  0.58295  0.19449  1.0000
  C   C2633     1.0  0.78759  0.57476  0.21648  1.0000
  C   C2634     1.0  0.79302  0.57118  0.18477  1.0000
  C   C2635     1.0  0.78438  0.60252  0.19047  1.0000
  C   C2636     1.0  0.79078  0.61331  0.17257  1.0000
  C   C2637     1.0  0.76772  0.61103  0.20170  1.0000
  C   C2638     1.0  0.78154  0.63167  0.16659  1.0000
  C   C2639     1.0  0.75850  0.62936  0.19552  1.0000
  C   C2640     1.0  0.76544  0.63971  0.17806  1.0000
  H   H3136     1.0  0.82251  0.56886  0.20034  1.0000
  H   H3137     1.0  0.81649  0.59315  0.20174  1.0000
  H   H3138     1.0  0.78795  0.58345  0.22612  1.0000
  H   H3139     1.0  0.79621  0.56065  0.22093  1.0000
  H   H3140     1.0  0.77312  0.57270  0.21883  1.0000
  H   H3141     1.0  0.77817  0.57114  0.18571  1.0000
  H   H3142     1.0  0.80310  0.60770  0.16303  1.0000
  H   H3143     1.0  0.76153  0.60386  0.21537  1.0000
  H   H3144     1.0  0.78707  0.63972  0.15303  1.0000
  C   C2641     1.0  0.82670  0.67126  0.14015  1.0000
  H   H3145     1.0  0.89222  0.66822  0.09366  1.0000
  S   S722      1.0  0.81729  0.51215  0.28385  1.0000
  H   H3146     1.0  0.94742  0.58460  0.07709  1.0000
  S   S723      1.0  0.68387  0.65957  0.24420  1.0000
  C   C2642     1.0  0.71235  0.69515  0.27906  1.0000
  C   C2643     1.0  0.72689  0.70497  0.27211  1.0000
  Fe  Fe356     1.0  0.78870  0.52441  0.29894  1.0000
  S   S724      1.0  0.96008  0.50364  0.00952  1.0000
  H   H3147     1.0  0.67451  0.67573  0.13531  1.0000
  C   C2644     1.0  0.69170  0.69292  0.11425  1.0000
  C   C2645     1.0  0.68469  0.68421  0.13258  1.0000
  H   H3148     1.0  0.75200  0.54318  0.21708  1.0000
  C   C2646     1.0  0.92045  0.55289  0.11440  1.0000
  H   H3149     1.0  0.86907  0.58160  0.33881  1.0000
  C   C2647     1.0  0.71019  0.56080  0.20415  1.0000
  C   C2648     1.0  0.91971  0.69099  0.32947  1.0000
  H   H3150     1.0  0.79945  0.57572  0.16974  1.0000
  C   C2649     1.0  0.66176  0.72806  0.05493  1.0000
  C   C2650     1.0  0.79914  0.67470  0.12822  1.0000
  C   C2651     1.0  0.82002  0.68924  0.14406  1.0000
  H   H3151     1.0  0.82715  0.49898  0.06503  1.0000
  C   C2652     1.0  0.86976  0.66301  0.05499  1.0000
  C   C2653     1.0  0.69103  0.68627  0.14754  1.0000
  H   H3152     1.0  0.68576  0.67929  0.16169  1.0000
  C   C2654     1.0  0.87708  0.72365  0.35121  1.0000
  C   C2655     1.0  0.94011  0.56620  0.31651  1.0000
  H   H3153     1.0  0.66533  0.59997  0.29363  1.0000
  H   H3154     1.0  0.73589  0.70378  0.25858  1.0000
  H   H3155     1.0  0.79310  0.50895  0.04038  1.0000
  C   C2656     1.0  0.93563  0.55575  0.30633  1.0000
  H   H3156     1.0  0.80015  0.55642  0.18924  1.0000
  C   C2657     1.0  0.69038  0.59101  0.20663  1.0000
  C   C2658     1.0  0.67268  0.55750  0.32336  1.0000
  H   H3157     1.0  0.91239  0.57815  0.36678  1.0000
  H   H3158     1.0  0.75033  0.51825  0.29489  1.0000
  H   H3159     1.0  0.89248  0.70954  0.31112  1.0000
  C   C2659     1.0  0.91914  0.53971  0.08899  1.0000
  H   H3160     1.0  0.93052  0.58249  0.33745  1.0000
  S   S725      1.0  0.96872  0.72404  0.34023  1.0000
  H   H3161     1.0  0.93923  0.71850  0.30484  1.0000
  C   C2660     1.0  0.70408  0.69737  0.14422  1.0000
  Fe  Fe357     1.0  0.72743  0.72260  0.15585  1.0000
  H   H3162     1.0  0.87520  0.56089  0.35629  1.0000
  C   C2661     1.0  0.90775  0.57164  0.33441  1.0000
  H   H3163     1.0  0.91288  0.56184  0.12413  1.0000
  C   C2662     1.0  0.92642  0.57407  0.33032  1.0000
  H   H3164     1.0  0.69779  0.53909  0.31052  1.0000
  H   H3165     1.0  0.89676  0.63496  0.06526  1.0000
  C   C2663     1.0  0.70467  0.70411  0.11092  1.0000
  H   H3166     1.0  0.79359  0.62476  0.29939  1.0000
  H   H3167     1.0  0.69504  0.55373  0.15873  1.0000
  H   H3168     1.0  0.70335  0.69709  0.22644  1.0000
  H   H3169     1.0  0.92867  0.69875  0.36871  1.0000
  H   H3170     1.0  0.94495  0.52355  0.07639  1.0000
  C   C2664     1.0  0.89232  0.64606  0.07363  1.0000
  H   H3171     1.0  0.82089  0.71916  0.28539  1.0000
  H   H3172     1.0  0.90222  0.55815  0.37121  1.0000
  C   C2665     1.0  0.94008  0.55781  0.13964  1.0000
  Fe  Fe358     1.0  0.96314  0.53249  0.99303  1.0000
  H   H3173     1.0  0.80252  0.73017  0.20367  1.0000
  H   H3174     1.0  0.73214  0.65942  0.30072  1.0000
  H   H3175     1.0  0.77900  0.70070  0.12951  1.0000
  C   C2666     1.0  0.70156  0.57464  0.21448  1.0000
  H   H3176     1.0  0.97378  0.52379  0.12220  1.0000
  H   H3177     1.0  0.90539  0.72560  0.31267  1.0000
  H   H3178     1.0  0.79116  0.66923  0.12180  1.0000
  H   H3179     1.0  0.71918  0.54816  0.21011  1.0000
  H   H3180     1.0  0.83858  0.65396  0.23469  1.0000
  H   H3181     1.0  0.89517  0.63902  0.08781  1.0000
  C   C2667     1.0  0.89945  0.57369  0.36716  1.0000
  Fe  Fe359     1.0  0.96111  0.51467  0.03394  1.0000
  H   H3182     1.0  0.66628  0.60210  0.16174  1.0000
  C   C2668     1.0  0.79225  0.69250  0.13257  1.0000
  H   H3183     1.0  0.91329  0.67211  0.38385  1.0000
  H   H3184     1.0  0.66514  0.57783  0.16794  1.0000
  C   C2669     1.0  0.87477  0.57617  0.35181  1.0000
  C   C2670     1.0  0.79412  0.63900  0.29881  1.0000
  C   C2671     1.0  0.70758  0.56321  0.18597  1.0000
  H   H3185     1.0  0.88986  0.55839  0.32563  1.0000
  C   C2672     1.0  0.77932  0.65441  0.29465  1.0000
  H   H3186     1.0  0.74586  0.65537  0.31809  1.0000
  S   S726      1.0  0.80839  0.70708  0.32534  1.0000
  C   C2673     1.0  0.78192  0.67244  0.29415  1.0000
  H   H3187     1.0  0.68397  0.60183  0.21468  1.0000
  C   C2674     1.0  0.81878  0.67590  0.22124  1.0000
  N   N174      1.0  0.89348  0.58038  0.34895  1.0000
  H   H3188     1.0  0.76081  0.67670  0.26809  1.0000
  H   H3189     1.0  0.74845  0.66010  0.26714  1.0000
  C   C2675     1.0  0.81211  0.65943  0.30238  1.0000
  H   H3190     1.0  0.69792  0.58823  0.29100  1.0000
  H   H3191     1.0  0.76140  0.62469  0.30780  1.0000
  C   C2676     1.0  0.76122  0.66148  0.27084  1.0000
  H   H3192     1.0  0.74395  0.67663  0.30071  1.0000
  C   C2677     1.0  0.93984  0.54493  0.11277  1.0000
  S   S727      1.0  0.74760  0.72018  0.17349  1.0000
  H   H3193     1.0  0.79951  0.68861  0.29822  1.0000
  H   H3194     1.0  0.74106  0.72388  0.27695  1.0000
  C   C2678     1.0  0.74537  0.66128  0.30306  1.0000
  H   H3195     1.0  0.77357  0.65524  0.26101  1.0000
  H   H3196     1.0  0.69517  0.56671  0.28796  1.0000
  C   C2679     1.0  0.84099  0.69545  0.09685  1.0000
  C   C2680     1.0  0.87790  0.67550  0.09394  1.0000
  N   N175      1.0  0.76204  0.65229  0.29058  1.0000
  H   H3197     1.0  0.74734  0.63143  0.29060  1.0000
  H   H3198     1.0  0.70368  0.57281  0.22853  1.0000
  C   C2681     1.0  0.80317  0.72013  0.19504  1.0000
  H   H3199     1.0  0.71502  0.55203  0.17871  1.0000
  C   C2682     1.0  0.94824  0.53406  0.09889  1.0000
  H   H3200     1.0  0.77197  0.62507  0.28328  1.0000
  H   H3201     1.0  0.69751  0.56833  0.13590  1.0000
  H   H3202     1.0  0.78036  0.51401  0.07297  1.0000
  H   H3203     1.0  0.85350  0.55909  0.08337  1.0000
  C   C2683     1.0  0.76075  0.63250  0.29322  1.0000
  C   C2684     1.0  0.85047  0.70771  0.27970  1.0000
  C   C2685     1.0  0.70112  0.71039  0.21585  1.0000
  C   C2686     1.0  0.93959  0.70531  0.30086  1.0000
  H   H3204     1.0  0.77144  0.68487  0.29085  1.0000
  H   H3205     1.0  0.82906  0.49444  0.11281  1.0000
  N   N176      1.0  0.68148  0.72082  0.21992  1.0000
  C   C2687     1.0  0.65588  0.55676  0.33714  1.0000
  Fe  Fe360     1.0  0.65890  0.63233  0.10684  1.0000
  H   H3206     1.0  0.68165  0.60053  0.31827  1.0000
  H   H3207     1.0  0.82124  0.62974  0.30606  1.0000
  C   C2688     1.0  0.81020  0.64161  0.30263  1.0000
  H   H3208     1.0  0.82449  0.66132  0.30564  1.0000
  H   H3209     1.0  0.79137  0.67857  0.20100  1.0000
  H   H3210     1.0  0.87445  0.52068  0.09419  1.0000
  H   H3211     1.0  0.83675  0.67038  0.25960  1.0000
  H   H3212     1.0  0.82054  0.66809  0.21061  1.0000
  C   C2689     1.0  0.92349  0.69248  0.36031  1.0000
  S   S728      1.0  0.97050  0.69009  0.37810  1.0000
  C   C2690     1.0  0.93802  0.53148  0.08724  1.0000
  C   C2691     1.0  0.79656  0.69151  0.19340  1.0000
  H   H3213     1.0  0.71762  0.59417  0.14557  1.0000
  S   S729      1.0  0.96635  0.54281  0.01711  1.0000
  C   C2692     1.0  0.79801  0.67480  0.29814  1.0000
  C   C2693     1.0  0.87136  0.68992  0.10389  1.0000
  H   H3214     1.0  0.88864  0.57930  0.37863  1.0000
  C   C2694     1.0  0.75324  0.49929  0.32117  1.0000
  C   C2695     1.0  0.78808  0.50036  0.07057  1.0000
  C   C2696     1.0  0.66219  0.58635  0.30222  1.0000
  C   C2697     1.0  0.84730  0.68095  0.08704  1.0000
  C   C2698     1.0  0.71075  0.70645  0.12593  1.0000
  H   H3215     1.0  0.84596  0.64628  0.08373  1.0000
  C   C2699     1.0  0.86599  0.67055  0.08518  1.0000
  H   H3216     1.0  0.87513  0.65213  0.04633  1.0000
  H   H3217     1.0  0.86553  0.62906  0.07587  1.0000
  N   N177      1.0  0.87233  0.65536  0.07454  1.0000
  N   N178      1.0  0.79587  0.70343  0.20644  1.0000
  C   C2700     1.0  0.80286  0.69994  0.14017  1.0000
  N   N179      1.0  0.95130  0.54826  0.12418  1.0000
  C   C2701     1.0  0.89137  0.60097  0.34351  1.0000
  H   H3218     1.0  0.92539  0.68934  0.28314  1.0000
  C   C2702     1.0  0.91035  0.67606  0.33878  1.0000
  S   S730      1.0  0.68720  0.63507  0.28605  1.0000
  C   C2703     1.0  0.90805  0.66941  0.35816  1.0000
  H   H3219     1.0  0.81804  0.71614  0.18790  1.0000
  H   H3220     1.0  0.96296  0.52797  0.09656  1.0000
  H   H3221     1.0  0.85646  0.71745  0.34084  1.0000
  H   H3222     1.0  0.85240  0.71375  0.26484  1.0000
  C   C2704     1.0  0.83518  0.50841  0.06700  1.0000
  C   C2705     1.0  0.79062  0.48297  0.27907  1.0000
  H   H3223     1.0  0.88229  0.70910  0.35709  1.0000
  C   C2706     1.0  0.68763  0.59357  0.18846  1.0000
  N   N180      1.0  0.69311  0.58274  0.15832  1.0000
  C   C2707     1.0  0.88690  0.51003  0.09601  1.0000
  C   C2708     1.0  0.92211  0.68424  0.29863  1.0000
  C   C2709     1.0  0.90367  0.56084  0.32380  1.0000
  H   H3224     1.0  0.82671  0.51433  0.07927  1.0000
  C   C2710     1.0  0.96431  0.56018  0.11194  1.0000
  H   H3225     1.0  0.90139  0.65763  0.36484  1.0000
  C   C2711     1.0  0.71804  0.71854  0.29979  1.0000
  H   H3226     1.0  0.94268  0.70850  0.28525  1.0000
  C   C2712     1.0  0.69511  0.57422  0.29880  1.0000
  Fe  Fe361     1.0  0.98412  0.69435  0.34740  1.0000
  C   C2713     1.0  0.91477  0.67749  0.36887  1.0000
  H   H3227     1.0  0.67036  0.58974  0.14378  1.0000
  C   C2714     1.0  0.72984  0.71644  0.28248  1.0000
  H   H3228     1.0  0.95358  0.48779  0.09729  1.0000
  H   H3229     1.0  0.93565  0.50489  0.98140  1.0000
  H   H3230     1.0  0.97386  0.60903  0.22129  1.0000
  H   H3231     1.0  0.81094  0.68762  0.18507  1.0000
  H   H3232     1.0  0.76725  0.71644  0.20458  1.0000
  H   H3233     1.0  0.98316  0.66266  0.29628  1.0000
  C   C2715     1.0  0.79001  0.48532  0.08579  1.0000
  H   H3234     1.0  0.70506  0.70684  0.20173  1.0000
  H   H3235     1.0  0.79839  0.48957  0.26537  1.0000
  H   H3236     1.0  0.78778  0.69898  0.18287  1.0000
  H   H3237     1.0  0.67437  0.70752  0.20143  1.0000
  C   C2716     1.0  0.74606  0.48505  0.33499  1.0000
  H   H3238     1.0  0.95343  0.52000  0.14027  1.0000
  C   C2717     1.0  0.89206  0.50443  0.11331  1.0000
  H   H3239     1.0  0.90689  0.72022  0.29038  1.0000
  H   H3240     1.0  0.98102  0.58133  0.20725  1.0000
  H   H3241     1.0  0.67018  0.69626  0.22553  1.0000
  H   H3242     1.0  0.77379  0.71988  0.22396  1.0000
  C   C2718     1.0  0.89783  0.50203  0.08103  1.0000
  C   C2719     1.0  0.77594  0.70948  0.21526  1.0000
  H   H3243     1.0  0.67367  0.72865  0.09088  1.0000
  C   C2720     1.0  0.66367  0.52293  0.34477  1.0000
  H   H3244     1.0  0.66057  0.57828  0.29263  1.0000
  H   H3245     1.0  0.66192  0.72320  0.12507  1.0000
  C   C2721     1.0  0.68016  0.52312  0.33124  1.0000
  H   H3246     1.0  0.77002  0.69741  0.22437  1.0000
  C   C2722     1.0  0.67631  0.72371  0.23942  1.0000
  S   S731      1.0  0.92614  0.73198  0.38122  1.0000
  H   H3247     1.0  0.96962  0.53212  0.14293  1.0000
  H   H3248     1.0  0.65481  0.71771  0.21730  1.0000
  C   C2723     1.0  0.66966  0.71016  0.21595  1.0000
  H   H3249     1.0  0.97317  0.55408  0.09984  1.0000
  C   C2724     1.0  0.90434  0.48676  0.00603  1.0000
  H   H3250     1.0  0.71130  0.71851  0.21589  1.0000
  H   H3251     1.0  0.67499  0.72567  0.05899  1.0000
  H   H3252     1.0  0.66436  0.59030  0.33556  1.0000
  Fe  Fe362     1.0  0.65595  0.64350  0.29390  1.0000
  C   C2725     1.0  0.91394  0.48828  0.08333  1.0000
  H   H3253     1.0  0.72288  0.48813  0.37390  1.0000
  C   C2726     1.0  0.98706  0.59910  0.22184  1.0000
  C   C2727     1.0  0.98596  0.50656  0.06754  1.0000
  H   H3254     1.0  0.66072  0.62828  0.20525  1.0000
  H   H3255     1.0  0.98249  0.53298  0.04805  1.0000
  Fe  Fe363     1.0  0.78846  0.72972  0.31071  1.0000
  H   H3256     1.0  0.69181  0.49513  0.39460  1.0000
  H   H3257     1.0  0.82633  0.72891  0.34012  1.0000
  H   H3258     1.0  0.73325  0.49191  0.23338  1.0000
  H   H3259     1.0  0.78858  0.48515  0.24081  1.0000
  C   C2728     1.0  0.66016  0.71874  0.25240  1.0000
  C   C2729     1.0  0.86219  0.72862  0.34204  1.0000
  C   C2730     1.0  0.74333  0.48676  0.24234  1.0000
  H   H3260     1.0  0.76579  0.49592  0.22079  1.0000
  H   H3261     1.0  0.79514  0.72785  0.18392  1.0000
  C   C2731     1.0  0.77464  0.48270  0.24685  1.0000
  C   C2732     1.0  0.98775  0.52511  0.06033  1.0000
  H   H3262     1.0  0.66369  0.73203  0.29076  1.0000
  C   C2733     1.0  0.68728  0.73233  0.24576  1.0000
  H   H3263     1.0  0.92186  0.48283  0.07112  1.0000
  N   N181      1.0  0.93802  0.51267  0.95163  1.0000
  C   C2734     1.0  0.92671  0.48512  0.94943  1.0000
  C   C2735     1.0  0.88956  0.50429  0.95509  1.0000
  C   C2736     1.0  0.93185  0.53283  0.95233  1.0000
  C   C2737     1.0  0.90366  0.51327  0.95450  1.0000
  S   S732      1.0  0.97896  0.53430  0.96290  1.0000
  H   H3264     1.0  0.92555  0.54106  0.94016  1.0000
  H   H3265     1.0  0.89917  0.52740  0.95672  1.0000
  H   H3266     1.0  0.95106  0.48761  0.96895  1.0000
  H   H3267     1.0  0.94373  0.53902  0.95203  1.0000
  H   H3268     1.0  0.96409  0.51854  0.93381  1.0000
  C   C2738     1.0  0.95297  0.51109  0.93454  1.0000
  H   H3269     1.0  0.94723  0.51719  0.92163  1.0000
  C   C2739     1.0  0.92276  0.50393  0.95156  1.0000
  H   H3270     1.0  0.92164  0.53506  0.96554  1.0000
  H   H3271     1.0  0.96026  0.49639  0.93410  1.0000
  C   C2740     1.0  0.89397  0.48586  0.95288  1.0000
  C   C2741     1.0  0.94610  0.50288  0.96828  1.0000
  H   H3272     1.0  0.95832  0.50822  0.96839  1.0000
  H   H3273     1.0  0.87505  0.51150  0.95769  1.0000
  Fe  Fe364     1.0  0.77130  0.77084  0.30800  1.0000
  S   S733      1.0  0.79742  0.75541  0.29209  1.0000
  S   S734      1.0  0.77579  0.79777  0.31273  1.0000
  S   S735      1.0  0.66163  0.83841  0.02496  1.0000
  C   C2742     1.0  0.85221  0.87487  0.44494  1.0000
  H   H3274     1.0  0.67197  0.87631  0.10846  1.0000
  H   H3275     1.0  0.96743  0.79587  0.37647  1.0000
  Fe  Fe365     1.0  0.77966  0.75310  0.27382  1.0000
  S   S736      1.0  0.78899  0.75818  0.24243  1.0000
  H   H3276     1.0  0.80472  0.83614  0.44941  1.0000
  S   S737      1.0  0.75380  0.77044  0.28811  1.0000
  H   H3277     1.0  0.79529  0.89552  0.43296  1.0000
  S   S738      1.0  0.71103  0.75037  0.16157  1.0000
  H   H3278     1.0  0.76113  0.80115  0.21904  1.0000
  C   C2743     1.0  0.88523  0.73735  0.35298  1.0000
  S   S739      1.0  0.75105  0.76331  0.15174  1.0000
  H   H3279     1.0  0.86429  0.93845  0.28724  1.0000
  Fe  Fe366     1.0  0.73293  0.74908  0.17689  1.0000
  S   S740      1.0  0.72457  0.75455  0.20604  1.0000
  Fe  Fe367     1.0  0.73019  0.76234  0.13574  1.0000
  S   S741      1.0  0.71588  0.78862  0.11805  1.0000
  H   H3280     1.0  0.76126  0.84461  0.23405  1.0000
  N   N182      1.0  0.92315  0.96709  0.45482  1.0000
  N   N183      1.0  0.65591  0.74973  0.10569  1.0000
  S   S742      1.0  0.84847  0.83927  0.34507  1.0000
  C   C2744     1.0  0.77761  0.83095  0.40975  1.0000
  Fe  Fe368     1.0  0.84089  0.86665  0.35426  1.0000
  S   S743      1.0  0.83650  0.89447  0.33449  1.0000
  S   S744      1.0  0.82049  0.85788  0.38072  1.0000
  Fe  Fe369     1.0  0.88495  0.95875  0.34934  1.0000
  S   S745      1.0  0.91087  0.95497  0.35983  1.0000
  S   S746      1.0  0.86009  0.94942  0.36913  1.0000
  H   H3281     1.0  0.67150  0.81239  0.07633  1.0000
  H   H3282     1.0  0.88487  0.76673  0.34700  1.0000
  H   H3283     1.0  0.92758  0.83202  0.36615  1.0000
  Fe  Fe370     1.0  0.92557  0.94365  0.33386  1.0000
  S   S747      1.0  0.94325  0.91451  0.33403  1.0000
  C   C2745     1.0  0.65509  0.74499  0.04366  1.0000
  C   C2746     1.0  0.92396  0.94665  0.45881  1.0000
  S   S748      1.0  0.89919  0.94551  0.32486  1.0000
  H   H3284     1.0  0.89998  0.97245  0.40138  1.0000
  H   H3285     1.0  0.68841  0.87767  0.12048  1.0000
  C   C2747     1.0  0.96268  0.78243  0.38231  1.0000
  S   S749      1.0  0.68057  0.78609  0.05177  1.0000
  H   H3286     1.0  0.68551  0.74447  0.09431  1.0000
  N   N184      1.0  0.90238  0.89142  0.37963  1.0000
  C   C2748     1.0  0.94983  0.76144  0.40988  1.0000
  H   H3287     1.0  0.98224  0.76863  0.40916  1.0000
  C   C2749     1.0  0.93001  0.84384  0.37005  1.0000
  Fe  Fe371     1.0  0.65781  0.81010  0.04227  1.0000
  H   H3288     1.0  0.95241  0.78216  0.37439  1.0000
  H   H3289     1.0  0.89543  0.91900  0.38580  1.0000
  H   H3290     1.0  0.70639  0.79698  0.25017  1.0000
  H   H3291     1.0  0.83153  0.89150  0.40748  1.0000
  Fe  Fe372     1.0  0.90194  0.97440  0.30915  1.0000
  H   H3292     1.0  0.92962  0.93920  0.47159  1.0000
  H   H3293     1.0  0.89258  0.83375  0.41484  1.0000
  H   H3294     1.0  0.77698  0.81695  0.40813  1.0000
  C   C2750     1.0  0.78358  0.88211  0.41836  1.0000
  H   H3295     1.0  0.68473  0.81236  0.10293  1.0000
  H   H3296     1.0  0.88083  0.87517  0.39160  1.0000
  H   H3297     1.0  0.69960  0.73673  0.23666  1.0000
  H   H3298     1.0  0.89369  0.80983  0.39759  1.0000
  C   C2751     1.0  0.94248  0.96994  0.45078  1.0000
  Fe  Fe373     1.0  0.74865  0.74278  0.30623  1.0000
  C   C2752     1.0  0.70819  0.83400  0.06141  1.0000
  H   H3299     1.0  0.69978  0.82799  0.11751  1.0000
  H   H3300     1.0  0.67433  0.87099  0.04853  1.0000
  H   H3301     1.0  0.90755  0.90220  0.34988  1.0000
  H   H3302     1.0  0.91883  0.91237  0.37328  1.0000
  H   H3303     1.0  0.85757  0.75028  0.29792  1.0000
  H   H3304     1.0  0.88913  0.88930  0.35839  1.0000
  H   H3305     1.0  0.80454  0.80347  0.41898  1.0000
  Fe  Fe374     1.0  0.76435  0.73417  0.14708  1.0000
  N   N185      1.0  0.78682  0.82952  0.42529  1.0000
  H   H3306     1.0  0.69071  0.84437  0.13254  1.0000
  H   H3307     1.0  0.71818  0.82732  0.08655  1.0000
  H   H3308     1.0  0.75974  0.83853  0.25894  1.0000
  H   H3309     1.0  0.85274  0.95389  0.41672  1.0000
  C   C2753     1.0  0.92088  0.82301  0.41873  1.0000
  H   H3310     1.0  0.91289  0.95389  0.42822  1.0000
  H   H3311     1.0  0.94996  0.96174  0.46213  1.0000
  H   H3312     1.0  0.93321  0.94010  0.44715  1.0000
  H   H3313     1.0  0.83430  0.74771  0.29966  1.0000
  H   H3314     1.0  0.77806  0.89514  0.40958  1.0000
  H   H3315     1.0  0.67079  0.74110  0.12836  1.0000
  C   C2754     1.0  0.82316  0.74444  0.33693  1.0000
  H   H3316     1.0  0.97491  0.77104  0.37908  1.0000
  C   C2755     1.0  0.84119  0.91088  0.34422  1.0000
  C   C2756     1.0  0.84025  0.90742  0.36349  1.0000
  C   C2757     1.0  0.84517  0.91992  0.37112  1.0000
  C   C2758     1.0  0.85151  0.93560  0.35950  1.0000
  C   C2759     1.0  0.85217  0.93930  0.34024  1.0000
  C   C2760     1.0  0.84668  0.92708  0.33266  1.0000
  H   H3317     1.0  0.83569  0.89513  0.37255  1.0000
  H   H3318     1.0  0.84471  0.91715  0.38593  1.0000
  H   H3319     1.0  0.85675  0.95161  0.33124  1.0000
  H   H3320     1.0  0.84697  0.92995  0.31786  1.0000
  C   C2761     1.0  0.91432  0.97771  0.43881  1.0000
  H   H3321     1.0  0.92493  0.91505  0.29678  1.0000
  C   C2762     1.0  0.94758  0.84357  0.37257  1.0000
  H   H3322     1.0  0.72680  0.84184  0.10375  1.0000
  C   C2763     1.0  0.93619  0.87438  0.37988  1.0000
  H   H3323     1.0  0.89106  0.87958  0.40833  1.0000
  C   C2764     1.0  0.86344  0.76125  0.33661  1.0000
  C   C2765     1.0  0.91383  0.90741  0.30108  1.0000
  C   C2766     1.0  0.70544  0.78697  0.10045  1.0000
  C   C2767     1.0  0.69044  0.80119  0.09535  1.0000
  C   C2768     1.0  0.68290  0.80123  0.08026  1.0000
  C   C2769     1.0  0.69021  0.78691  0.07025  1.0000
  C   C2770     1.0  0.70494  0.77247  0.07558  1.0000
  C   C2771     1.0  0.71246  0.77242  0.09072  1.0000
  H   H3324     1.0  0.86635  0.96545  0.39634  1.0000
  H   H3325     1.0  0.94875  0.81000  0.42092  1.0000
  H   H3326     1.0  0.71064  0.76133  0.06789  1.0000
  H   H3327     1.0  0.72406  0.76143  0.09447  1.0000
  C   C2772     1.0  0.76851  0.83555  0.24531  1.0000
  H   H3328     1.0  0.74065  0.81769  0.27303  1.0000
  H   H3329     1.0  0.84299  0.77984  0.30853  1.0000
  H   H3330     1.0  0.90208  0.85877  0.37052  1.0000
  C   C2773     1.0  0.91542  0.85928  0.37259  1.0000
  S   S750      1.0  0.81142  0.80887  0.37594  1.0000
  C   C2774     1.0  0.75401  0.81053  0.24573  1.0000
  C   C2775     1.0  0.91802  0.87508  0.37752  1.0000
  C   C2776     1.0  0.78651  0.79998  0.33013  1.0000
  C   C2777     1.0  0.79421  0.81576  0.32713  1.0000
  C   C2778     1.0  0.80236  0.81839  0.34073  1.0000
  C   C2779     1.0  0.80256  0.80546  0.35776  1.0000
  C   C2780     1.0  0.79498  0.78960  0.36073  1.0000
  C   C2781     1.0  0.78718  0.78676  0.34695  1.0000
  H   H3331     1.0  0.79373  0.82613  0.31424  1.0000
  H   H3332     1.0  0.80804  0.83070  0.33823  1.0000
  H   H3333     1.0  0.79497  0.77952  0.37386  1.0000
  H   H3334     1.0  0.78117  0.77464  0.34958  1.0000
  C   C2782     1.0  0.77121  0.75711  0.23219  1.0000
  C   C2783     1.0  0.75437  0.75309  0.24349  1.0000
  C   C2784     1.0  0.74018  0.75218  0.23533  1.0000
  C   C2785     1.0  0.74283  0.75514  0.21583  1.0000
  C   C2786     1.0  0.75974  0.75904  0.20447  1.0000
  C   C2787     1.0  0.77385  0.76022  0.21266  1.0000
  H   H3335     1.0  0.75214  0.75097  0.25854  1.0000
  H   H3336     1.0  0.96239  0.74982  0.40953  1.0000
  H   H3337     1.0  0.76179  0.76150  0.18939  1.0000
  H   H3338     1.0  0.78679  0.76358  0.20386  1.0000
  C   C2788     1.0  0.95063  0.85875  0.37756  1.0000
  H   H3339     1.0  0.91203  0.90244  0.39806  1.0000
  C   C2789     1.0  0.90750  0.90692  0.38443  1.0000
  C   C2790     1.0  0.78886  0.84780  0.42719  1.0000
  H   H3340     1.0  0.78959  0.79753  0.22616  1.0000
  C   C2791     1.0  0.75067  0.80360  0.23143  1.0000
  H   H3341     1.0  0.87035  0.90670  0.29673  1.0000
  C   C2792     1.0  0.88666  0.88572  0.39470  1.0000
  H   H3342     1.0  0.88518  0.91222  0.36224  1.0000
  H   H3343     1.0  0.93563  0.79324  0.34279  1.0000
  C   C2793     1.0  0.89581  0.89901  0.36178  1.0000
  H   H3344     1.0  0.87722  0.94748  0.29825  1.0000
  S   S751      1.0  0.92981  0.97164  0.31575  1.0000
  H   H3345     1.0  0.93757  0.97575  0.36945  1.0000
  H   H3346     1.0  0.98471  0.85810  0.31386  1.0000
  C   C2794     1.0  0.90521  0.82313  0.41237  1.0000
  C   C2795     1.0  0.93714  0.80924  0.41566  1.0000
  C   C2796     1.0  0.84592  0.87468  0.42908  1.0000
  C   C2797     1.0  0.73913  0.81269  0.26150  1.0000
  N   N186      1.0  0.89438  0.93057  0.27866  1.0000
  C   C2798     1.0  0.90289  0.88009  0.32115  1.0000
  H   H3347     1.0  0.83639  0.97912  0.38392  1.0000
  H   H3348     1.0  0.94124  0.75873  0.40142  1.0000
  C   C2799     1.0  0.89726  0.91373  0.29377  1.0000
  Fe  Fe375     1.0  0.84186  0.94106  0.47136  1.0000
  H   H3349     1.0  0.77378  0.86599  0.40562  1.0000
  C   C2800     1.0  0.67226  0.74344  0.09138  1.0000
  H   H3350     1.0  0.66809  0.77085  0.10950  1.0000
  N   N187      1.0  0.83918  0.75246  0.32468  1.0000
  H   H3351     1.0  0.65531  0.77852  0.09140  1.0000
  H   H3352     1.0  0.90506  0.86712  0.33143  1.0000
  C   C2801     1.0  0.87849  0.75608  0.34560  1.0000
  H   H3353     1.0  0.90977  0.94368  0.46157  1.0000
  C   C2802     1.0  0.92191  0.79573  0.39974  1.0000
  S   S752      1.0  0.86505  0.86017  0.36817  1.0000
  H   H3354     1.0  0.90502  0.91456  0.25706  1.0000
  C   C2803     1.0  0.87705  0.94395  0.28494  1.0000
  C   C2804     1.0  0.96991  0.78013  0.41189  1.0000
  H   H3355     1.0  0.89082  0.75725  0.38802  1.0000
  C   C2805     1.0  0.83387  0.90825  0.42561  1.0000
  C   C2806     1.0  0.97391  0.88882  0.34313  1.0000
  H   H3356     1.0  0.66521  0.74778  0.21002  1.0000
  C   C2807     1.0  0.80067  0.86570  0.44261  1.0000
  H   H3357     1.0  0.82412  0.96719  0.40515  1.0000
  H   H3358     1.0  0.96749  0.87880  0.34068  1.0000
  H   H3359     1.0  0.87477  0.89780  0.39682  1.0000
  H   H3360     1.0  0.91196  0.94566  0.28437  1.0000
  C   C2808     1.0  0.89249  0.92500  0.26198  1.0000
  C   C2809     1.0  0.79850  0.84865  0.44056  1.0000
  H   H3361     1.0  0.78228  0.81779  0.45504  1.0000
  H   H3362     1.0  0.93975  0.88585  0.38317  1.0000
  H   H3363     1.0  0.97535  0.79323  0.40633  1.0000
  C   C2810     1.0  0.88348  0.90269  0.30123  1.0000
  N   N188      1.0  0.69830  0.85690  0.10318  1.0000
  C   C2811     1.0  0.68712  0.87531  0.10700  1.0000
  C   C2812     1.0  0.69106  0.84216  0.11846  1.0000
  C   C2813     1.0  0.71789  0.85607  0.10382  1.0000
  C   C2814     1.0  0.69752  0.85368  0.08494  1.0000
  C   C2815     1.0  0.68504  0.86572  0.07361  1.0000
  C   C2816     1.0  0.70898  0.83763  0.07834  1.0000
  H   H3364     1.0  0.71123  0.80910  0.27547  1.0000
  H   H3365     1.0  0.67659  0.84188  0.11805  1.0000
  S   S753      1.0  0.86676  0.95433  0.46497  1.0000
  H   H3366     1.0  0.82658  0.92113  0.41811  1.0000
  H   H3367     1.0  0.82000  0.77606  0.31213  1.0000
  H   H3368     1.0  0.71676  0.82140  0.05692  1.0000
  C   C2817     1.0  0.90579  0.80959  0.40277  1.0000
  C   C2818     1.0  0.91651  0.89081  0.31453  1.0000
  H   H3369     1.0  0.67546  0.87805  0.07756  1.0000
  H   H3370     1.0  0.85918  0.86192  0.45263  1.0000
  H   H3371     1.0  0.71877  0.85973  0.11683  1.0000
  H   H3372     1.0  0.80860  0.86595  0.45252  1.0000
  N   N189      1.0  0.95487  0.78008  0.40274  1.0000
  C   C2819     1.0  0.97321  0.92062  0.34412  1.0000
  H   H3373     1.0  0.96508  0.77819  0.42738  1.0000
  H   H3374     1.0  0.95891  0.83163  0.37055  1.0000
  S   S754      1.0  0.83592  0.93029  0.44829  1.0000
  N   N190      1.0  0.77192  0.81553  0.24460  1.0000
  C   C2820     1.0  0.78027  0.80406  0.26069  1.0000
  C   C2821     1.0  0.78597  0.81252  0.22721  1.0000
  H   H3375     1.0  0.88014  0.91863  0.26491  1.0000
  H   H3376     1.0  0.77117  0.80626  0.27442  1.0000
  H   H3377     1.0  0.79382  0.80733  0.26033  1.0000
  H   H3378     1.0  0.78293  0.78892  0.26072  1.0000
  H   H3379     1.0  0.78091  0.82120  0.21447  1.0000
  H   H3380     1.0  0.79931  0.81623  0.22685  1.0000
  H   H3381     1.0  0.85881  0.77605  0.33152  1.0000
  C   C2822     1.0  0.65870  0.73848  0.12445  1.0000
  C   C2823     1.0  0.91262  0.97386  0.47212  1.0000
  Fe  Fe376     1.0  0.82978  0.82965  0.37248  1.0000
  C   C2824     1.0  0.90247  0.97937  0.41104  1.0000
  H   H3382     1.0  0.95069  0.96579  0.43740  1.0000
  Fe  Fe377     1.0  0.87075  0.83181  0.36179  1.0000
  H   H3383     1.0  0.72433  0.86591  0.09161  1.0000
  C   C2825     1.0  0.84017  0.90851  0.44142  1.0000
  C   C2826     1.0  0.91011  0.96887  0.42647  1.0000
  H   H3384     1.0  0.89075  0.93724  0.25012  1.0000
  H   H3385     1.0  0.96632  0.93522  0.34248  1.0000
  H   H3386     1.0  0.78177  0.84009  0.24359  1.0000
  H   H3387     1.0  0.96442  0.85862  0.37926  1.0000
  S   S755      1.0  0.74532  0.73433  0.12867  1.0000
  C   C2827     1.0  0.68424  0.86185  0.05677  1.0000
  C   C2828     1.0  0.69582  0.84606  0.05068  1.0000
  H   H3388     1.0  0.95502  0.97255  0.39408  1.0000
  C   C2829     1.0  0.73355  0.79907  0.23300  1.0000
  H   H3389     1.0  0.73140  0.79355  0.22206  1.0000
  H   H3390     1.0  0.81463  0.82356  0.40904  1.0000
  C   C2830     1.0  0.84559  0.74458  0.30754  1.0000
  C   C2831     1.0  0.84943  0.89169  0.45105  1.0000
  C   C2832     1.0  0.78126  0.86513  0.41622  1.0000
  C   C2833     1.0  0.68270  0.73531  0.26403  1.0000
  H   H3391     1.0  0.92924  0.88634  0.31994  1.0000
  H   H3392     1.0  0.72709  0.74926  0.24418  1.0000
  C   C2834     1.0  0.93805  0.79501  0.40618  1.0000
  H   H3393     1.0  0.85427  0.89159  0.46330  1.0000
  H   H3394     1.0  0.77323  0.80710  0.44191  1.0000
  H   H3395     1.0  0.69151  0.88707  0.09574  1.0000
  C   C2835     1.0  0.90998  0.94066  0.27261  1.0000
  H   H3396     1.0  0.68257  0.73770  0.19206  1.0000
  C   C2836     1.0  0.72218  0.80784  0.26304  1.0000
  C   C2837     1.0  0.71942  0.80100  0.24883  1.0000
  S   S756      1.0  0.76320  0.74500  0.32786  1.0000
  H   H3397     1.0  0.76299  0.83909  0.41207  1.0000
  C   C2838     1.0  0.77548  0.82070  0.44294  1.0000
  C   C2839     1.0  0.83675  0.89149  0.41946  1.0000
  S   S757      1.0  0.90077  0.81890  0.35105  1.0000
  H   H3398     1.0  0.92039  0.83364  0.42612  1.0000
  H   H3399     1.0  0.69500  0.84298  0.03775  1.0000
  C   C2840     1.0  0.93164  0.76613  0.35932  1.0000
  C   C2841     1.0  0.92580  0.78540  0.35259  1.0000
  C   C2842     1.0  0.90739  0.79455  0.35867  1.0000
  H   H3400     1.0  0.94591  0.75922  0.35466  1.0000
  C   C2843     1.0  0.88634  0.88613  0.31466  1.0000
  H   H3401     1.0  0.81864  0.74921  0.35048  1.0000
  H   H3402     1.0  0.76153  0.82995  0.44643  1.0000
  H   H3403     1.0  0.90729  0.95341  0.26146  1.0000
  C   C2844     1.0  0.80544  0.81695  0.42166  1.0000
  C   C2845     1.0  0.83218  0.77291  0.31890  1.0000
  C   C2846     1.0  0.85477  0.74761  0.33459  1.0000
  C   C2847     1.0  0.96482  0.90770  0.34102  1.0000
  H   H3404     1.0  0.66302  0.75597  0.03928  1.0000
  Fe  Fe378     1.0  0.84546  0.84966  0.39427  1.0000
  C   C2848     1.0  0.91907  0.75597  0.37220  1.0000
  C   C2849     1.0  0.89476  0.78428  0.37128  1.0000
  C   C2850     1.0  0.85757  0.96724  0.41026  1.0000
  H   H3405     1.0  0.81082  0.74863  0.33026  1.0000
  S   S758      1.0  0.85279  0.82049  0.38880  1.0000
  H   H3406     1.0  0.88050  0.79110  0.37586  1.0000
  H   H3407     1.0  0.87525  0.95738  0.27445  1.0000
  C   C2851     1.0  0.90062  0.76507  0.37811  1.0000
  H   H3408     1.0  0.81273  0.81332  0.43346  1.0000
  C   C2852     1.0  0.79326  0.88238  0.43151  1.0000
  H   H3409     1.0  0.67116  0.75199  0.07713  1.0000
  H   H3410     1.0  0.82733  0.77974  0.33120  1.0000
  H   H3411     1.0  0.94190  0.75996  0.42466  1.0000
  H   H3412     1.0  0.68936  0.74748  0.20767  1.0000
  H   H3413     1.0  0.92335  0.93178  0.26678  1.0000
  H   H3414     1.0  0.78553  0.83748  0.39601  1.0000
  H   H3415     1.0  0.87559  0.87793  0.32008  1.0000
  S   S759      1.0  0.84927  0.85314  0.42210  1.0000
  H   H3416     1.0  0.92164  0.78551  0.39228  1.0000
  Fe  Fe379     1.0  0.84626  0.97942  0.47349  1.0000
  S   S760      1.0  0.82117  0.96733  0.47784  1.0000
  H   H3417     1.0  0.69163  0.74141  0.26869  1.0000
  S   S761      1.0  0.72125  0.73315  0.31304  1.0000
  H   H3418     1.0  0.89764  0.97330  0.47475  1.0000
  C   C2853     1.0  0.67959  0.73925  0.20685  1.0000
  H   H3419     1.0  0.74752  0.98142  0.26174  1.0000
  C   C2854     1.0  0.82922  0.98040  0.39848  1.0000
  C   C2855     1.0  0.65543  0.76946  0.10561  1.0000
  H   H3420     1.0  0.82569  0.97070  0.43524  1.0000
  H   H3421     1.0  0.86665  0.96864  0.41896  1.0000
  H   H3422     1.0  0.89672  0.73349  0.36020  1.0000
  C   C2856     1.0  0.85657  0.95141  0.56374  1.0000
  H   H3423     1.0  0.68218  0.85608  0.90389  1.0000
  C   C2857     1.0  0.89766  0.94773  0.51989  1.0000
  H   H3424     1.0  0.87752  0.97670  0.60576  1.0000
  Fe  Fe380     1.0  0.96121  0.96303  0.58625  1.0000
  Fe  Fe381     1.0  0.86687  0.94460  0.49574  1.0000
  S   S762      1.0  0.89369  0.93366  0.50669  1.0000
  S   S763      1.0  0.84364  0.92908  0.50176  1.0000
  S   S764      1.0  0.69636  0.97598  0.87598  1.0000
  H   H3425     1.0  0.97593  0.92985  0.67149  1.0000
  H   H3426     1.0  0.94944  0.92530  0.63891  1.0000
  H   H3427     1.0  0.65640  0.90657  0.93313  1.0000
  H   H3428     1.0  0.94694  0.94999  0.63492  1.0000
  Fe  Fe382     1.0  0.82473  0.95636  0.50755  1.0000
  H   H3429     1.0  0.92060  0.94566  0.55398  1.0000
  C   C2858     1.0  0.88932  0.96669  0.51732  1.0000
  H   H3430     1.0  0.98609  0.95374  0.62104  1.0000
  H   H3431     1.0  0.88128  0.97285  0.50675  1.0000
  S   S765      1.0  0.93147  0.95922  0.59821  1.0000
  C   C2859     1.0  0.98135  0.89926  0.64531  1.0000
  H   H3432     1.0  0.97017  0.91496  0.59542  1.0000
  H   H3433     1.0  0.91813  0.96525  0.48464  1.0000
  C   C2860     1.0  0.67065  0.86777  0.90146  1.0000
  C   C2861     1.0  0.91196  0.95157  0.54367  1.0000
  C   C2862     1.0  0.98042  0.95129  0.63646  1.0000
  C   C2863     1.0  0.83720  0.98100  0.55346  1.0000
  C   C2864     1.0  0.65813  0.97404  0.82186  1.0000
  N   N191      1.0  0.97268  0.93407  0.64320  1.0000
  H   H3434     1.0  0.95716  0.92078  0.66946  1.0000
  H   H3435     1.0  0.86921  0.95712  0.55642  1.0000
  C   C2865     1.0  0.90936  0.94022  0.53286  1.0000
  C   C2866     1.0  0.95733  0.93669  0.63345  1.0000
  C   C2867     1.0  0.90288  0.97042  0.54136  1.0000
  H   H3436     1.0  0.82577  0.94657  0.59072  1.0000
  H   H3437     1.0  0.91609  0.92556  0.53481  1.0000
  H   H3438     1.0  0.66171  0.91130  0.87448  1.0000
  C   C2868     1.0  0.89180  0.97792  0.52802  1.0000
  C   C2869     1.0  0.96474  0.93242  0.66357  1.0000
  H   H3439     1.0  0.85355  0.94503  0.55345  1.0000
  S   S766      1.0  0.80303  0.95979  0.53411  1.0000
  C   C2870     1.0  0.65920  0.89886  0.88501  1.0000
  Fe  Fe383     1.0  0.92534  0.98059  0.57229  1.0000
  C   C2871     1.0  0.82406  0.95738  0.57775  1.0000
  H   H3440     1.0  0.96586  0.96228  0.49079  1.0000
  C   C2872     1.0  0.98499  0.90921  0.59230  1.0000
  S   S767      1.0  0.66128  0.94197  0.89886  1.0000
  H   H3441     1.0  0.78239  0.97354  0.56740  1.0000
  H   H3442     1.0  0.98187  0.88051  0.59963  1.0000
  C   C2873     1.0  0.84374  0.97458  0.58427  1.0000
  H   H3443     1.0  0.95448  0.94537  0.66662  1.0000
  H   H3444     1.0  0.93785  0.97249  0.51420  1.0000
  H   H3445     1.0  0.87369  0.96230  0.58242  1.0000
  H   H3446     1.0  0.66099  0.87192  0.94235  1.0000
  H   H3447     1.0  0.68796  0.88452  0.88008  1.0000
  Fe  Fe384     1.0  0.66781  0.97067  0.89105  1.0000
  C   C2874     1.0  0.67395  0.88378  0.88809  1.0000
  H   H3448     1.0  0.86007  0.93990  0.57569  1.0000
  C   C2875     1.0  0.86387  0.97941  0.60246  1.0000
  H   H3449     1.0  0.96709  0.89813  0.65174  1.0000
  N   N192      1.0  0.84059  0.96614  0.57010  1.0000
  H   H3450     1.0  0.67415  0.97731  0.83952  1.0000
  C   C2876     1.0  0.86142  0.97113  0.58903  1.0000
  H   H3451     1.0  0.96293  0.93708  0.61822  1.0000
  S   S768      1.0  0.84792  0.97064  0.50364  1.0000
  C   C2877     1.0  0.94772  0.98153  0.50754  1.0000
  H   H3452     1.0  0.81092  0.96765  0.58121  1.0000
  H   H3453     1.0  0.82163  0.95059  0.56744  1.0000
  C   C2878     1.0  0.96348  0.97576  0.49436  1.0000
  H   H3454     1.0  0.96954  0.96399  0.63906  1.0000
  H   H3455     1.0  0.83467  0.97529  0.54245  1.0000
  C   C2879     1.0  0.98668  0.91684  0.63986  1.0000
  C   C2880     1.0  0.67062  0.98234  0.82586  1.0000
  H   H3456     1.0  0.70354  0.98077  0.83581  1.0000
