data_image0
_chemical_formula_structural       HFeSH2C2HCH2C2H2C6H6SCHC3HNSC2H3C3H2C2H2C4H2CHCSH2C2HCHSNH3CHC2H3CHSCH10FeCSH2CHCS2FeS2FeS2FeSFeS3FeSFeCSFeCSFeHSHFeS2FeS2FeSFeS3NCHC3H3C2H2CHCH2C6H4C6H4C6H4C2H2SC2H4CHCH2C3HC6H11CH7CHCH3NC2HCSCH2CH3CNC7H8CHCHC2H3C2SCH3C5HNH2NHCHCHFeHCSNH3C2H2C2HNHCHCH5C3NC6H2CH6CH4CH4CHCSC2H6CHCFeHSFeHSC2HS2FeS2FeS2FeCS2HFeSCHCFeSCS2FeHSFeHSHSHCH3CH2C6H4C2H2C5HCHFeCFeC3HSH2C7H3CHCNC3HCH3C2H2CH4C2H2FeHC2H3NCHC4HCHCH3CHNC2HCH6C2H3C3H2CHC3H2CH2CFeHSFeS2FeS2FeSFeS3FeS2FeHSCFe2S2CHFeSHCSFeSFeS2HFeS2FeS2FeSFeS3CH2S2HC6H4C2HC6H4C2HC3H4C2HC6H4C2H4C6H4C6H4NC8H10NSH2C7HSH4C2H6CHSHCH3C2H3CH4CHC2H2NC2H2CHCNC2HSH2CHC3FeNC7H10CHC3H2CH5CHC3H2CH2CH2NC2H2CH4CH4C2H2FeH2CH2NC2HCHCH2CHCHCSCH2CHC3NSHCFeCH2FeH4CH5CH3CH2NHCSH3CSHSFeS2FeS2FeSFeS3FeS2FeSCFeSFeS4CHSH2FeSFeSCFeS2FeS2FeSFeS3HCHC7H4C3HCH2NH4SC8H4CH2CHNHC7H4C6H5C2HC6H4C6H5NHCH2C3HCH3C2HCHCH6C2HC2H2C2HCHNC9H14CH2C3HNH2NC7H8C3HCHC2H6C3HCHC3H4CH4C2H2CH4C4HNC2HSCHCH3SC3HC2H12C2HC2HCH4SH2CHCHNCFeH3CHCSNHCHC2HFeH2SHCH3CH2C2HC2H2CHCH3SNCHC3HCHCSHCFeCH6SCH2CH7CHCHSHSHSFeSFeSFeS2FeS2FeSFeS5FeS2FeS2FeSFeS3FeS2FeSCFeSFeS3C3HC3H3C6H4C6H4C6H4C6H4C2NCH2C7H6C7H8CHCH2NCHC3H3CH7NC9H15CH4C2HCH2CH4C4H2NCNHCH7CH2CHC2H7FeCHCHCH3NCHC4H2C3H2NC3H2SC3HCH4CH2CH3C2HCHCH4CHCHSCH2CH4CHNCHC2HCH2C5H2CHCH2C6H2CH2CHCH2CNH4C2H3CHC2HCH5CHC2H2FeHCHC3HCH2FeSFeS2FeSFeS3FeS2FeS2FeSFeS4FeS2FeS2FeSFeS3FeSFeSHFeSFeS3CHCNC2HC6H4C3HC6H4C6H4CH2C6H4C6H4C4H3C6H14C2HCH3CH3C2NC2HC3H3CSH2CH2CH3C2H2C2SH2CH3CHCNHC2H2NHC2H5C3H2CH3CH6C3H3CH5NHC2H4CSC2HCHNCH2C2H2CH4CH4C3NH3C2SCHC2HCH3C2HNC2H3C5HCHCH2NC2H4C2H3SCH7C2H2CH2CHFeHC2HCFeHSFeHSHS2FeS3HFeSFeCSCFeSFeHSFeSFeS3FeHSFeCSHFeHS2C2H4C6H4CH3C4HCH3SC2HSHC8H5CSC2HCH2C2HC2NSHSH3C2H2C2H2CHCH3C2HFeH4FeCH3NC9H4NH9SCH2SHNH2C3HCHC2H3NCHC2HNC3H2C2HCFeS2FeS2FeSFeS3FeHSFeNSFeHCS2HSFeS2FeS2FeSFeS3FeHSFeHSC3S2C3HC6H5FeC3H2C6H4CH3SH4CSCH2C6H4C6H4C3H3CH3C4H2NC9H13CNC4H11C2HSH4CHNC9H11CHSC3H3CH2SHCH2CH2CHC2HC2HC3H2NCHFeC3HFeCH6C4HCNCHCH2CHSC2HC2H2C2HC3H3C4NH3CH2CH3CSH7C2H3C2HCHSH2C6SH2CH2SHC3HCH2CHCHFeNH2CHCSCHCSCH2CHCH2C2HC
_chemical_formula_sum              "H1152 Fe128 S256 C960 N64"
_cell_length_a       57.0351
_cell_length_b       56.9348
_cell_length_c       49.5263
_cell_angle_alpha    90.0844
_cell_angle_beta     89.7603
_cell_angle_gamma    88.8547

_space_group_name_H-M_alt    "P 1"
_space_group_IT_number       1

loop_
  _space_group_symop_operation_xyz
  'x, y, z'

loop_
  _atom_site_type_symbol
  _atom_site_label
  _atom_site_symmetry_multiplicity
  _atom_site_fract_x
  _atom_site_fract_y
  _atom_site_fract_z
  _atom_site_occupancy
  H   H1        1.0  0.22007  0.00962  0.13205  1.0000
  Fe  Fe1       1.0  0.47381  0.11611  0.09625  1.0000
  S   S1        1.0  0.43780  0.09879  0.09365  1.0000
  H   H2        1.0  0.00504  0.99445  0.18172  1.0000
  H   H3        1.0  0.01415  0.00155  0.21473  1.0000
  C   C1        1.0  0.41651  0.03132  0.03913  1.0000
  C   C2        1.0  0.03335  0.03688  0.12993  1.0000
  H   H4        1.0  0.02816  0.10569  0.10536  1.0000
  C   C3        1.0  0.45721  0.04251  0.03979  1.0000
  H   H5        1.0  0.04215  0.12926  0.12146  1.0000
  H   H6        1.0  0.39071  0.07587  0.15397  1.0000
  C   C4        1.0  0.01888  0.02727  0.11019  1.0000
  C   C5        1.0  0.99740  0.03855  0.10340  1.0000
  H   H7        1.0  0.38693  0.04581  0.18946  1.0000
  H   H8        1.0  0.02430  0.01123  0.09999  1.0000
  C   C6        1.0  0.40247  0.02920  0.11760  1.0000
  C   C7        1.0  0.42608  0.03304  0.12435  1.0000
  C   C8        1.0  0.43739  0.05391  0.11678  1.0000
  C   C9        1.0  0.42504  0.07150  0.10276  1.0000
  C   C10       1.0  0.40147  0.06761  0.09591  1.0000
  C   C11       1.0  0.39030  0.04656  0.10304  1.0000
  H   H9        1.0  0.43566  0.01980  0.13571  1.0000
  H   H10       1.0  0.45549  0.05651  0.12217  1.0000
  H   H11       1.0  0.39170  0.08109  0.08513  1.0000
  H   H12       1.0  0.37210  0.04407  0.09793  1.0000
  H   H13       1.0  0.37648  0.01187  0.01822  1.0000
  H   H14       1.0  0.02807  0.16758  0.12069  1.0000
  S   S2        1.0  0.38886  0.00304  0.12907  1.0000
  C   C12       1.0  0.44722  0.00162  0.03398  1.0000
  H   H15       1.0  0.03165  0.16959  0.08469  1.0000
  C   C13       1.0  0.38691  0.99587  0.01277  1.0000
  C   C14       1.0  0.00140  0.13486  0.07120  1.0000
  C   C15       1.0  0.40345  0.07495  0.17016  1.0000
  H   H16       1.0  0.03679  0.06533  0.15832  1.0000
  N   N1        1.0  0.01181  0.13986  0.09793  1.0000
  S   S3        1.0  0.06087  0.02363  0.13907  1.0000
  C   C16       1.0  0.00427  0.06897  0.13624  1.0000
  C   C17       1.0  0.01925  0.16460  0.10100  1.0000
  H   H17       1.0  0.17936  0.99635  0.12399  1.0000
  H   H18       1.0  0.47729  0.28806  0.06196  1.0000
  H   H19       1.0  0.39839  0.03690  0.04143  1.0000
  C   C18       1.0  0.43983  0.08889  0.19062  1.0000
  C   C19       1.0  0.47596  0.10248  0.21330  1.0000
  C   C20       1.0  0.42281  0.00729  0.03526  1.0000
  H   H20       1.0  0.13795  0.00259  0.01824  1.0000
  H   H21       1.0  0.41625  0.04301  0.22603  1.0000
  C   C21       1.0  0.43697  0.07156  0.21100  1.0000
  C   C22       1.0  0.48780  0.27348  0.06948  1.0000
  H   H22       1.0  0.42382  0.10211  0.15340  1.0000
  H   H23       1.0  0.00079  0.09673  0.07651  1.0000
  C   C23       1.0  0.48071  0.25013  0.06493  1.0000
  C   C24       1.0  0.42245  0.09007  0.17019  1.0000
  C   C25       1.0  0.03275  0.12444  0.10265  1.0000
  C   C26       1.0  0.45334  0.12907  0.18597  1.0000
  H   H24       1.0  0.44938  0.06908  0.22718  1.0000
  H   H25       1.0  0.99868  0.08474  0.14680  1.0000
  C   C27       1.0  0.40132  0.05799  0.19016  1.0000
  H   H26       1.0  0.04537  0.12548  0.08552  1.0000
  C   C28       1.0  0.02586  0.05779  0.14288  1.0000
  S   S4        1.0  0.48467  0.20166  0.06696  1.0000
  H   H27       1.0  0.44431  0.13258  0.16650  1.0000
  H   H28       1.0  0.46610  0.10713  0.23205  1.0000
  C   C29       1.0  0.41795  0.05639  0.21062  1.0000
  C   C30       1.0  0.99400  0.15293  0.05312  1.0000
  H   H29       1.0  0.38333  0.00461  0.06588  1.0000
  C   C31       1.0  0.43349  0.04861  0.04100  1.0000
  H   H30       1.0  0.42825  0.06685  0.04422  1.0000
  S   S5        1.0  0.47796  0.14930  0.12049  1.0000
  N   N2        1.0  0.46062  0.10403  0.18913  1.0000
  H   H31       1.0  0.00144  0.13746  0.13982  1.0000
  H   H32       1.0  0.46874  0.14088  0.18600  1.0000
  H   H33       1.0  0.48831  0.17369  0.01794  1.0000
  C   C32       1.0  0.47490  0.09687  0.16537  1.0000
  H   H34       1.0  0.46516  0.09941  0.14613  1.0000
  C   C33       1.0  0.99685  0.11138  0.06334  1.0000
  C   C34       1.0  0.21723  0.99432  0.11958  1.0000
  H   H35       1.0  0.44132  0.13478  0.20258  1.0000
  H   H36       1.0  0.47025  0.05598  0.04204  1.0000
  H   H37       1.0  0.46471  0.24705  0.05392  1.0000
  C   C35       1.0  0.46407  0.01907  0.03629  1.0000
  H   H38       1.0  0.00395  0.17714  0.10092  1.0000
  S   S6        1.0  0.48781  0.13323  0.05860  1.0000
  C   C36       1.0  0.99417  0.13523  0.11918  1.0000
  H   H39       1.0  0.48416  0.08469  0.21550  1.0000
  H   H40       1.0  0.48259  0.01441  0.03578  1.0000
  H   H41       1.0  0.48019  0.07797  0.16643  1.0000
  H   H42       1.0  0.99573  0.17134  0.05776  1.0000
  H   H43       1.0  0.49089  0.11482  0.21187  1.0000
  H   H44       1.0  0.49118  0.10726  0.16392  1.0000
  H   H45       1.0  0.39552  0.99893  0.99291  1.0000
  H   H46       1.0  0.48733  0.17292  0.98215  1.0000
  H   H47       1.0  0.48921  0.99548  0.88210  1.0000
  H   H48       1.0  0.13362  0.00142  0.98223  1.0000
  Fe  Fe2       1.0  0.32329  0.62715  0.32496  1.0000
  C   C37       1.0  0.05248  0.50860  0.20908  1.0000
  S   S7        1.0  0.32993  0.59472  0.29854  1.0000
  H   H49       1.0  0.38377  0.58859  0.18307  1.0000
  H   H50       1.0  0.02443  0.59764  0.26289  1.0000
  C   C38       1.0  0.38259  0.60449  0.00005  1.0000
  H   H51       1.0  0.14957  0.57115  0.29324  1.0000
  C   C39       1.0  0.15597  0.60281  0.07506  1.0000
  S   S8        1.0  0.29453  0.62895  0.35653  1.0000
  S   S9        1.0  0.35000  0.64320  0.35300  1.0000
  Fe  Fe3       1.0  0.34880  0.51857  0.11349  1.0000
  S   S10       1.0  0.36415  0.55468  0.11666  1.0000
  S   S11       1.0  0.37594  0.49054  0.12677  1.0000
  Fe  Fe4       1.0  0.30024  0.53859  0.09675  1.0000
  S   S12       1.0  0.31400  0.57520  0.09848  1.0000
  S   S13       1.0  0.26217  0.54297  0.08196  1.0000
  Fe  Fe5       1.0  0.34617  0.56163  0.07710  1.0000
  S   S14       1.0  0.36378  0.58562  0.04628  1.0000
  Fe  Fe6       1.0  0.33059  0.56507  0.13781  1.0000
  S   S15       1.0  0.32470  0.59370  0.16965  1.0000
  S   S16       1.0  0.33201  0.52522  0.07276  1.0000
  S   S17       1.0  0.31572  0.52886  0.13728  1.0000
  Fe  Fe7       1.0  0.47895  0.39295  0.08681  1.0000
  S   S18       1.0  0.44394  0.41098  0.07477  1.0000
  Fe  Fe8       1.0  0.08951  0.63606  0.39546  1.0000
  C   C40       1.0  0.38233  0.62560  0.19193  1.0000
  S   S19       1.0  0.07186  0.62576  0.43525  1.0000
  Fe  Fe9       1.0  0.10311  0.61831  0.33706  1.0000
  C   C41       1.0  0.15248  0.61112  0.12266  1.0000
  S   S20       1.0  0.10302  0.58911  0.30470  1.0000
  Fe  Fe10      1.0  0.13964  0.63644  0.37722  1.0000
  H   H52       1.0  0.04625  0.53558  0.16722  1.0000
  S   S21       1.0  0.11379  0.60776  0.37928  1.0000
  H   H53       1.0  0.38590  0.51254  0.07587  1.0000
  Fe  Fe11      1.0  0.12445  0.52368  0.11743  1.0000
  S   S22       1.0  0.11946  0.56215  0.11047  1.0000
  S   S23       1.0  0.16169  0.50844  0.12362  1.0000
  Fe  Fe12      1.0  0.07064  0.51624  0.12197  1.0000
  S   S24       1.0  0.06336  0.55509  0.11531  1.0000
  S   S25       1.0  0.03671  0.49675  0.13325  1.0000
  Fe  Fe13      1.0  0.09026  0.55257  0.08202  1.0000
  S   S26       1.0  0.09099  0.57094  0.04050  1.0000
  Fe  Fe14      1.0  0.09311  0.56129  0.14430  1.0000
  S   S27       1.0  0.09194  0.59132  0.17549  1.0000
  S   S28       1.0  0.09657  0.51348  0.08719  1.0000
  S   S29       1.0  0.09907  0.52300  0.15277  1.0000
  N   N3        1.0  0.09599  0.63205  0.08860  1.0000
  C   C42       1.0  0.00051  0.42552  0.11776  1.0000
  H   H54       1.0  0.01135  0.58930  0.00519  1.0000
  C   C43       1.0  0.02323  0.46919  0.12639  1.0000
  C   C44       1.0  0.03447  0.45113  0.11177  1.0000
  C   C45       1.0  0.02322  0.42950  0.10758  1.0000
  H   H55       1.0  0.01960  0.57452  0.22180  1.0000
  H   H56       1.0  0.05199  0.45369  0.10398  1.0000
  H   H57       1.0  0.03625  0.56168  0.18351  1.0000
  C   C46       1.0  0.06992  0.57996  0.01568  1.0000
  C   C47       1.0  0.38108  0.63667  0.23993  1.0000
  H   H58       1.0  0.25477  0.65150  0.37592  1.0000
  H   H59       1.0  0.06059  0.62140  0.09699  1.0000
  C   C48       1.0  0.04551  0.57144  0.28292  1.0000
  H   H60       1.0  0.25442  0.60648  0.20294  1.0000
  C   C49       1.0  0.14092  0.62376  0.45723  1.0000
  H   H61       1.0  0.03923  0.57469  0.04013  1.0000
  H   H62       1.0  0.00665  0.51489  0.22209  1.0000
  C   C50       1.0  0.10085  0.59047  0.26868  1.0000
  C   C51       1.0  0.10468  0.56980  0.25343  1.0000
  C   C52       1.0  0.10220  0.56971  0.22502  1.0000
  C   C53       1.0  0.09586  0.59039  0.21134  1.0000
  C   C54       1.0  0.09248  0.61114  0.22654  1.0000
  C   C55       1.0  0.09498  0.61123  0.25495  1.0000
  H   H63       1.0  0.10921  0.55361  0.26372  1.0000
  H   H64       1.0  0.10507  0.55361  0.21377  1.0000
  H   H65       1.0  0.08761  0.62728  0.21631  1.0000
  H   H66       1.0  0.09192  0.62729  0.26626  1.0000
  C   C56       1.0  0.23450  0.53371  0.09483  1.0000
  C   C57       1.0  0.21383  0.54533  0.08613  1.0000
  C   C58       1.0  0.19147  0.53812  0.09494  1.0000
  C   C59       1.0  0.18943  0.51886  0.11229  1.0000
  C   C60       1.0  0.21013  0.50735  0.12111  1.0000
  C   C61       1.0  0.23249  0.51480  0.11267  1.0000
  H   H67       1.0  0.21506  0.55987  0.07221  1.0000
  H   H68       1.0  0.17578  0.54709  0.08785  1.0000
  H   H69       1.0  0.20882  0.49236  0.13441  1.0000
  H   H70       1.0  0.24811  0.50545  0.11934  1.0000
  C   C62       1.0  0.39512  0.46915  0.11128  1.0000
  C   C63       1.0  0.41443  0.46029  0.12604  1.0000
  C   C64       1.0  0.42983  0.44296  0.11507  1.0000
  C   C65       1.0  0.42596  0.43391  0.08922  1.0000
  C   C66       1.0  0.40677  0.44293  0.07433  1.0000
  C   C67       1.0  0.39153  0.46048  0.08518  1.0000
  H   H71       1.0  0.41739  0.46671  0.14630  1.0000
  H   H72       1.0  0.44439  0.43622  0.12688  1.0000
  H   H73       1.0  0.40342  0.43593  0.05443  1.0000
  H   H74       1.0  0.37656  0.46666  0.07370  1.0000
  C   C68       1.0  0.25490  0.59572  0.29614  1.0000
  C   C69       1.0  0.37232  0.58455  0.01160  1.0000
  H   H75       1.0  0.04635  0.49617  0.22480  1.0000
  H   H76       1.0  0.38006  0.53213  0.04810  1.0000
  S   S30       1.0  0.17469  0.62913  0.39570  1.0000
  C   C70       1.0  0.07904  0.61499  0.09923  1.0000
  C   C71       1.0  0.43279  0.56376  0.99521  1.0000
  H   H77       1.0  0.05079  0.49924  0.18940  1.0000
  H   H78       1.0  0.14891  0.61237  0.28724  1.0000
  H   H79       1.0  0.42830  0.50010  0.08555  1.0000
  H   H80       1.0  0.40591  0.55892  0.07251  1.0000
  C   C72       1.0  0.29345  0.59035  0.03134  1.0000
  H   H81       1.0  0.12022  0.62619  0.13633  1.0000
  C   C73       1.0  0.32439  0.64202  0.45999  1.0000
  H   H82       1.0  0.36075  0.63495  0.29038  1.0000
  H   H83       1.0  0.26215  0.54238  0.19082  1.0000
  C   C74       1.0  0.03241  0.58023  0.26141  1.0000
  C   C75       1.0  0.32153  0.61783  0.46330  1.0000
  C   C76       1.0  0.16542  0.60212  0.10094  1.0000
  H   H84       1.0  0.31926  0.60677  0.44577  1.0000
  C   C77       1.0  0.32689  0.59411  0.26278  1.0000
  C   C78       1.0  0.31996  0.61408  0.24825  1.0000
  C   C79       1.0  0.31926  0.61350  0.21984  1.0000
  C   C80       1.0  0.32509  0.59284  0.20552  1.0000
  C   C81       1.0  0.33111  0.57253  0.22001  1.0000
  C   C82       1.0  0.33211  0.57323  0.24851  1.0000
  H   H85       1.0  0.31531  0.63005  0.25887  1.0000
  H   H86       1.0  0.31441  0.62926  0.20885  1.0000
  H   H87       1.0  0.33561  0.55647  0.20931  1.0000
  H   H88       1.0  0.33739  0.55762  0.25954  1.0000
  H   H89       1.0  0.15199  0.58899  0.42344  1.0000
  H   H90       1.0  0.28411  0.56408  0.19321  1.0000
  H   H91       1.0  0.27733  0.60394  0.17870  1.0000
  H   H92       1.0  0.08196  0.61113  0.12102  1.0000
  H   H93       1.0  0.41691  0.65783  0.26416  1.0000
  H   H94       1.0  0.48991  0.43457  0.01399  1.0000
  H   H95       1.0  0.42690  0.57079  0.03656  1.0000
  C   C83       1.0  0.09010  0.63673  0.05984  1.0000
  H   H96       1.0  0.12141  0.56859  0.46843  1.0000
  H   H97       1.0  0.16566  0.59491  0.05836  1.0000
  H   H98       1.0  0.36164  0.54912  0.00385  1.0000
  H   H99       1.0  0.45073  0.50972  0.06271  1.0000
  H   H100      1.0  0.06282  0.51892  0.25747  1.0000
  H   H101      1.0  0.17671  0.59583  0.44340  1.0000
  H   H102      1.0  0.28343  0.58379  0.04910  1.0000
  C   C84       1.0  0.30386  0.55119  0.01764  1.0000
  H   H103      1.0  0.43657  0.55089  0.07736  1.0000
  C   C85       1.0  0.36918  0.56472  0.99537  1.0000
  H   H104      1.0  0.22997  0.64368  0.48938  1.0000
  H   H105      1.0  0.16183  0.56820  0.44821  1.0000
  H   H106      1.0  0.47980  0.35001  0.37877  1.0000
  N   N4        1.0  0.37949  0.65522  0.26092  1.0000
  C   C86       1.0  0.04574  0.58046  0.02075  1.0000
  C   C87       1.0  0.42312  0.53309  0.02808  1.0000
  H   H107      1.0  0.18887  0.65516  0.48289  1.0000
  C   C88       1.0  0.38414  0.59531  0.22581  1.0000
  S   S31       1.0  0.48821  0.36597  0.11936  1.0000
  C   C89       1.0  0.15931  0.58730  0.44421  1.0000
  H   H108      1.0  0.25374  0.56125  0.27880  1.0000
  H   H109      1.0  0.41983  0.49849  0.00955  1.0000
  C   C90       1.0  0.41846  0.54404  0.07639  1.0000
  H   H110      1.0  0.01157  0.51474  0.18615  1.0000
  H   H111      1.0  0.32262  0.55370  0.02280  1.0000
  H   H112      1.0  0.41407  0.53739  0.09695  1.0000
  C   C91       1.0  0.38366  0.60191  0.19877  1.0000
  N   N5        1.0  0.25153  0.57674  0.17605  1.0000
  C   C92       1.0  0.25915  0.57103  0.14804  1.0000
  C   C93       1.0  0.22605  0.57270  0.17910  1.0000
  C   C94       1.0  0.20980  0.59050  0.18786  1.0000
  C   C95       1.0  0.21674  0.55035  0.17320  1.0000
  C   C96       1.0  0.18577  0.58612  0.18988  1.0000
  C   C97       1.0  0.19272  0.54620  0.17531  1.0000
  C   C98       1.0  0.17723  0.56407  0.18340  1.0000
  H   H113      1.0  0.24919  0.61390  0.16770  1.0000
  H   H114      1.0  0.24833  0.58069  0.13287  1.0000
  H   H115      1.0  0.27784  0.57551  0.14448  1.0000
  H   H116      1.0  0.25794  0.55200  0.14332  1.0000
  H   H117      1.0  0.21516  0.60800  0.19309  1.0000
  H   H118      1.0  0.17359  0.59993  0.19631  1.0000
  H   H119      1.0  0.18598  0.52903  0.17024  1.0000
  H   H120      1.0  0.15856  0.56079  0.18451  1.0000
  C   C99       1.0  0.12040  0.58738  0.46234  1.0000
  H   H121      1.0  0.03230  0.41564  0.09652  1.0000
  C   C100      1.0  0.37672  0.64582  0.28868  1.0000
  H   H122      1.0  0.22795  0.53591  0.16658  1.0000
  C   C101      1.0  0.24345  0.57592  0.28681  1.0000
  C   C102      1.0  0.05385  0.53578  0.25759  1.0000
  H   H123      1.0  0.11338  0.58834  0.44138  1.0000
  H   H124      1.0  0.25086  0.62985  0.31426  1.0000
  H   H125      1.0  0.38474  0.57681  0.23104  1.0000
  C   C103      1.0  0.02993  0.58873  0.00079  1.0000
  C   C104      1.0  0.04694  0.54542  0.18660  1.0000
  S   S32       1.0  0.32464  0.65596  0.42791  1.0000
  C   C105      1.0  0.24190  0.61449  0.30687  1.0000
  H   H126      1.0  0.25967  0.56487  0.21626  1.0000
  H   H127      1.0  0.22454  0.63047  0.40169  1.0000
  H   H128      1.0  0.07154  0.51170  0.21184  1.0000
  C   C106      1.0  0.02993  0.56690  0.23790  1.0000
  C   C107      1.0  0.12008  0.62235  0.09235  1.0000
  C   C108      1.0  0.09282  0.65458  0.10352  1.0000
  C   C109      1.0  0.07151  0.62564  0.49108  1.0000
  C   C110      1.0  0.13362  0.61265  0.07070  1.0000
  H   H129      1.0  0.38520  0.61990  0.01239  1.0000
  N   N6        1.0  0.41658  0.52533  0.05559  1.0000
  H   H130      1.0  0.42909  0.48910  0.05216  1.0000
  H   H131      1.0  0.38935  0.50223  0.04206  1.0000
  N   N7        1.0  0.14358  0.59863  0.46459  1.0000
  H   H132      1.0  0.27392  0.59646  0.29532  1.0000
  C   C111      1.0  0.42773  0.55692  0.02168  1.0000
  H   H133      1.0  0.25931  0.58552  0.99368  1.0000
  C   C112      1.0  0.43185  0.50528  0.06423  1.0000
  H   H134      1.0  0.31170  0.59303  0.03856  1.0000
  Fe  Fe15      1.0  0.32030  0.64815  0.38291  1.0000
  H   H135      1.0  0.10316  0.64835  0.05019  1.0000
  C   C113      1.0  0.01374  0.52528  0.20498  1.0000
  S   S33       1.0  0.07570  0.64411  0.35321  1.0000
  N   N8        1.0  0.03866  0.53102  0.20953  1.0000
  H   H136      1.0  0.06655  0.54275  0.29782  1.0000
  H   H137      1.0  0.08916  0.62024  0.04784  1.0000
  H   H138      1.0  0.08068  0.59799  0.08821  1.0000
  C   C114      1.0  0.04089  0.54439  0.23506  1.0000
  C   C115      1.0  0.21941  0.64244  0.38573  1.0000
  H   H139      1.0  0.30319  0.53712  0.00211  1.0000
  H   H140      1.0  0.25787  0.56410  0.02040  1.0000
  C   C116      1.0  0.07796  0.63796  0.46762  1.0000
  C   C117      1.0  0.19576  0.64592  0.37949  1.0000
  H   H141      1.0  0.09288  0.65214  0.12579  1.0000
  N   N9        1.0  0.29292  0.57355  0.00837  1.0000
  H   H142      1.0  0.28552  0.60768  0.02579  1.0000
  C   C118      1.0  0.39191  0.51771  0.05534  1.0000
  H   H143      1.0  0.13298  0.62601  0.43685  1.0000
  C   C119      1.0  0.42372  0.51678  0.00634  1.0000
  H   H144      1.0  0.06233  0.60928  0.48913  1.0000
  H   H145      1.0  0.15815  0.63257  0.45682  1.0000
  H   H146      1.0  0.04793  0.58204  0.30089  1.0000
  H   H147      1.0  0.29484  0.54431  0.03591  1.0000
  H   H148      1.0  0.00244  0.54129  0.20275  1.0000
  C   C120      1.0  0.26485  0.56134  0.19492  1.0000
  C   C121      1.0  0.25819  0.60138  0.18163  1.0000
  C   C122      1.0  0.05603  0.54921  0.28111  1.0000
  N   N10       1.0  0.17927  0.59294  0.30174  1.0000
  C   C123      1.0  0.17236  0.59502  0.33058  1.0000
  C   C124      1.0  0.16847  0.61288  0.28666  1.0000
  C   C125      1.0  0.16905  0.57099  0.29110  1.0000
  C   C126      1.0  0.20517  0.59361  0.29930  1.0000
  C   C127      1.0  0.21894  0.57476  0.28824  1.0000
  C   C128      1.0  0.21746  0.61351  0.30850  1.0000
  H   H149      1.0  0.06535  0.55080  0.18974  1.0000
  H   H150      1.0  0.15942  0.60967  0.14292  1.0000
  C   C129      1.0  0.32173  0.60794  0.48947  1.0000
  H   H151      1.0  0.17712  0.61222  0.33943  1.0000
  H   H152      1.0  0.15303  0.59353  0.33339  1.0000
  H   H153      1.0  0.18107  0.58115  0.34302  1.0000
  H   H154      1.0  0.17321  0.63021  0.29523  1.0000
  H   H155      1.0  0.18243  0.59381  0.10430  1.0000
  H   H156      1.0  0.17397  0.61260  0.26510  1.0000
  C   C130      1.0  0.26791  0.56941  0.00205  1.0000
  H   H157      1.0  0.17281  0.56866  0.26919  1.0000
  H   H158      1.0  0.17554  0.55528  0.30238  1.0000
  H   H159      1.0  0.21129  0.55882  0.28087  1.0000
  H   H160      1.0  0.20828  0.62844  0.31734  1.0000
  C   C131      1.0  0.00043  0.46529  0.13638  1.0000
  H   H161      1.0  0.12701  0.61162  0.05033  1.0000
  H   H162      1.0  0.39218  0.63497  0.29499  1.0000
  H   H163      1.0  0.07248  0.64526  0.05760  1.0000
  H   H164      1.0  0.12940  0.63362  0.47151  1.0000
  C   C132      1.0  0.13006  0.62086  0.11857  1.0000
  H   H165      1.0  0.10681  0.59611  0.47511  1.0000
  C   C133      1.0  0.23656  0.65403  0.37085  1.0000
  S   S34       1.0  0.13126  0.64491  0.33423  1.0000
  C   C134      1.0  0.38136  0.64279  0.21213  1.0000
  C   C135      1.0  0.38272  0.61231  0.24620  1.0000
  H   H166      1.0  0.38230  0.60576  0.26666  1.0000
  H   H167      1.0  0.48049  0.36802  0.33033  1.0000
  H   H168      1.0  0.48872  0.37899  0.38849  1.0000
  H   H169      1.0  0.49114  0.39440  0.34558  1.0000
  H   H170      1.0  0.32030  0.61398  0.00113  1.0000
  H   H171      1.0  0.18617  0.57902  0.48410  1.0000
  C   C136      1.0  0.32730  0.65608  0.48302  1.0000
  H   H172      1.0  0.38165  0.63057  0.17082  1.0000
  C   C137      1.0  0.08940  0.65932  0.47054  1.0000
  Fe  Fe16      1.0  0.32757  0.63230  0.58276  1.0000
  H   H173      1.0  0.27734  0.62060  0.56694  1.0000
  S   S35       1.0  0.32383  0.60938  0.54521  1.0000
  Fe  Fe17      1.0  0.35037  0.64239  0.63844  1.0000
  H   H174      1.0  0.09655  0.58757  0.98609  1.0000
  S   S36       1.0  0.38071  0.63581  0.66807  1.0000
  C   C138      1.0  0.48937  0.44962  0.94742  1.0000
  C   C139      1.0  0.01882  0.57074  0.75361  1.0000
  H   H175      1.0  0.42612  0.53970  0.78496  1.0000
  S   S37       1.0  0.31871  0.62157  0.62571  1.0000
  S   S38       1.0  0.36087  0.64964  0.59512  1.0000
  Fe  Fe18      1.0  0.40791  0.61970  0.82947  1.0000
  S   S39       1.0  0.43935  0.64283  0.82984  1.0000
  S   S40       1.0  0.38365  0.61148  0.79414  1.0000
  Fe  Fe19      1.0  0.41088  0.60983  0.89134  1.0000
  S   S41       1.0  0.44241  0.63290  0.89569  1.0000
  S   S42       1.0  0.39394  0.58435  0.92144  1.0000
  Fe  Fe20      1.0  0.45552  0.61503  0.85736  1.0000
  C   C140      1.0  0.22732  0.63854  0.53296  1.0000
  S   S43       1.0  0.39134  0.63650  0.86611  1.0000
  S   S44       1.0  0.42498  0.59109  0.85430  1.0000
  H   H176      1.0  0.19840  0.57569  0.53088  1.0000
  Fe  Fe21      1.0  0.29915  0.65632  0.62742  1.0000
  S   S45       1.0  0.06141  0.63353  0.68527  1.0000
  C   C141      1.0  0.25851  0.62595  0.56492  1.0000
  H   H177      1.0  0.17906  0.65349  0.64498  1.0000
  C   C142      1.0  0.18166  0.58400  0.52615  1.0000
  Fe  Fe22      1.0  0.13910  0.62922  0.62971  1.0000
  S   S46       1.0  0.17195  0.60694  0.62366  1.0000
  C   C143      1.0  0.99789  0.54303  0.78117  1.0000
  S   S47       1.0  0.10228  0.61975  0.61774  1.0000
  S   S48       1.0  0.02962  0.64860  0.88164  1.0000
  Fe  Fe23      1.0  0.02863  0.62370  0.84593  1.0000
  H   H178      1.0  0.02375  0.63645  0.72397  1.0000
  S   S49       1.0  0.05846  0.62197  0.81449  1.0000
  Fe  Fe24      1.0  0.01431  0.61918  0.90674  1.0000
  H   H179      1.0  0.07637  0.55961  0.73598  1.0000
  S   S50       1.0  0.01689  0.60672  0.95111  1.0000
  H   H180      1.0  0.00100  0.57715  0.81919  1.0000
  S   S51       1.0  0.01711  0.59357  0.87220  1.0000
  H   H181      1.0  0.26586  0.65587  0.50646  1.0000
  C   C144      1.0  0.03793  0.59641  0.97535  1.0000
  H   H182      1.0  0.27702  0.60514  0.52314  1.0000
  H   H183      1.0  0.31812  0.56440  0.91893  1.0000
  H   H184      1.0  0.43579  0.60235  0.78811  1.0000
  C   C145      1.0  0.06209  0.59579  0.97024  1.0000
  H   H185      1.0  0.02928  0.56790  0.80825  1.0000
  H   H186      1.0  0.06863  0.60163  0.95090  1.0000
  C   C146      1.0  0.06129  0.63206  0.72139  1.0000
  C   C147      1.0  0.08174  0.62821  0.73643  1.0000
  C   C148      1.0  0.05071  0.57540  0.70982  1.0000
  C   C149      1.0  0.05885  0.62613  0.77860  1.0000
  C   C150      1.0  0.03843  0.63049  0.76361  1.0000
  C   C151      1.0  0.03970  0.63343  0.73531  1.0000
  H   H187      1.0  0.43932  0.55314  0.81383  1.0000
  H   H188      1.0  0.04917  0.55436  0.77347  1.0000
  H   H189      1.0  0.01418  0.53281  0.78589  1.0000
  H   H190      1.0  0.46007  0.59174  0.80759  1.0000
  C   C152      1.0  0.30546  0.58183  0.98402  1.0000
  C   C153      1.0  0.07705  0.63415  0.51707  1.0000
  H   H191      1.0  0.41572  0.56771  0.79604  1.0000
  H   H192      1.0  0.07199  0.62445  0.53486  1.0000
  C   C154      1.0  0.23860  0.64851  0.63950  1.0000
  C   C155      1.0  0.38611  0.58505  0.95632  1.0000
  C   C156      1.0  0.37595  0.56505  0.96792  1.0000
  C   C157      1.0  0.01165  0.58071  0.72855  1.0000
  C   C158      1.0  0.38948  0.60476  0.97263  1.0000
  H   H193      1.0  0.37334  0.54968  0.95552  1.0000
  C   C159      1.0  0.05817  0.56514  0.73386  1.0000
  H   H194      1.0  0.39728  0.62025  0.96407  1.0000
  Fe  Fe25      1.0  0.42372  0.65881  0.86777  1.0000
  C   C160      1.0  0.13854  0.60553  0.51454  1.0000
  Fe  Fe26      1.0  0.09153  0.64069  0.65535  1.0000
  C   C161      1.0  0.19763  0.62270  0.63037  1.0000
  C   C162      1.0  0.21987  0.61254  0.62523  1.0000
  C   C163      1.0  0.24035  0.62546  0.62972  1.0000
  H   H195      1.0  0.43515  0.55350  0.73933  1.0000
  S   S52       1.0  0.12855  0.64727  0.66848  1.0000
  H   H196      1.0  0.22124  0.59470  0.61777  1.0000
  H   H197      1.0  0.25745  0.61754  0.62592  1.0000
  C   C164      1.0  0.38062  0.63052  0.70352  1.0000
  C   C165      1.0  0.40155  0.63325  0.71812  1.0000
  C   C166      1.0  0.40255  0.62868  0.74610  1.0000
  C   C167      1.0  0.38279  0.62039  0.75966  1.0000
  C   C168      1.0  0.36186  0.61778  0.74511  1.0000
  C   C169      1.0  0.36065  0.62312  0.71732  1.0000
  C   C170      1.0  0.02748  0.58296  0.70709  1.0000
  H   H198      1.0  0.41876  0.63096  0.75689  1.0000
  H   H199      1.0  0.34647  0.61131  0.75532  1.0000
  H   H200      1.0  0.34446  0.62082  0.70640  1.0000
  C   C171      1.0  0.32506  0.62206  0.51246  1.0000
  H   H201      1.0  0.45489  0.52218  0.76017  1.0000
  C   C172      1.0  0.17964  0.65201  0.52483  1.0000
  N   N11       1.0  0.25236  0.63201  0.53661  1.0000
  C   C173      1.0  0.21112  0.64013  0.55483  1.0000
  C   C174      1.0  0.33029  0.59605  0.93715  1.0000
  C   C175      1.0  0.04246  0.56254  0.75535  1.0000
  H   H202      1.0  0.16138  0.65707  0.52187  1.0000
  C   C176      1.0  0.42863  0.52387  0.97992  1.0000
  H   H203      1.0  0.29650  0.55177  0.95887  1.0000
  H   H204      1.0  0.24819  0.61091  0.57245  1.0000
  H   H205      1.0  0.46456  0.60276  0.77378  1.0000
  C   C177      1.0  0.31782  0.57529  0.93692  1.0000
  C   C178      1.0  0.32807  0.64618  0.50902  1.0000
  H   H206      1.0  0.43619  0.55300  0.95374  1.0000
  H   H207      1.0  0.13515  0.61031  0.55765  1.0000
  C   C179      1.0  0.30553  0.56823  0.95993  1.0000
  H   H208      1.0  0.31943  0.58924  0.49190  1.0000
  H   H209      1.0  0.42307  0.58156  0.74838  1.0000
  H   H210      1.0  0.25579  0.64125  0.57872  1.0000
  H   H211      1.0  0.47325  0.55461  0.84986  1.0000
  C   C180      1.0  0.43960  0.57072  0.74834  1.0000
  C   C181      1.0  0.14601  0.60340  0.54128  1.0000
  H   H212      1.0  0.21604  0.63647  0.57545  1.0000
  H   H213      1.0  0.09645  0.62193  0.77599  1.0000
  Fe  Fe27      1.0  0.10160  0.65423  0.59499  1.0000
  H   H214      1.0  0.33064  0.65731  0.52644  1.0000
  C   C182      1.0  0.21857  0.64414  0.50689  1.0000
  C   C183      1.0  0.08048  0.62520  0.76476  1.0000
  H   H215      1.0  0.17317  0.59088  0.56790  1.0000
  H   H216      1.0  0.02161  0.63157  0.77368  1.0000
  H   H217      1.0  0.42851  0.51124  0.96354  1.0000
  N   N12       1.0  0.44945  0.56830  0.77589  1.0000
  C   C184      1.0  0.16747  0.59251  0.54709  1.0000
  H   H218      1.0  0.06308  0.57817  0.69348  1.0000
  C   C185      1.0  0.25861  0.61132  0.51957  1.0000
  C   C186      1.0  0.19507  0.65077  0.50296  1.0000
  C   C187      1.0  0.43196  0.55667  0.79340  1.0000
  C   C188      1.0  0.33054  0.60984  0.96037  1.0000
  H   H219      1.0  0.34043  0.60110  0.91956  1.0000
  C   C189      1.0  0.01330  0.57775  0.80177  1.0000
  H   H220      1.0  0.09851  0.62701  0.72616  1.0000
  C   C190      1.0  0.17433  0.58601  0.49928  1.0000
  H   H221      1.0  0.12182  0.61426  0.51113  1.0000
  H   H222      1.0  0.02207  0.59155  0.68851  1.0000
  H   H223      1.0  0.47760  0.44867  0.93043  1.0000
  C   C191      1.0  0.19603  0.64560  0.64048  1.0000
  H   H224      1.0  0.24700  0.59634  0.52406  1.0000
  N   N13       1.0  0.00262  0.56824  0.77687  1.0000
  C   C192      1.0  0.18769  0.64671  0.55066  1.0000
  C   C193      1.0  0.43311  0.54734  0.97436  1.0000
  H   H225      1.0  0.28587  0.64826  0.53255  1.0000
  C   C194      1.0  0.31850  0.60288  0.98360  1.0000
  H   H226      1.0  0.34092  0.62559  0.96065  1.0000
  H   H227      1.0  0.17567  0.64747  0.56768  1.0000
  H   H228      1.0  0.99799  0.53361  0.92206  1.0000
  H   H229      1.0  0.49054  0.49760  0.76073  1.0000
  H   H230      1.0  0.46433  0.43317  0.97383  1.0000
  H   H231      1.0  0.41709  0.63898  0.70763  1.0000
  C   C195      1.0  0.49214  0.55270  0.84928  1.0000
  C   C196      1.0  0.48153  0.44084  0.97218  1.0000
  H   H232      1.0  0.25757  0.61519  0.49763  1.0000
  H   H233      1.0  0.99411  0.58744  0.72512  1.0000
  H   H234      1.0  0.01825  0.59632  0.79894  1.0000
  C   C197      1.0  0.45271  0.59232  0.78679  1.0000
  C   C198      1.0  0.26705  0.65199  0.52841  1.0000
  C   C199      1.0  0.08858  0.65547  0.51993  1.0000
  H   H235      1.0  0.00226  0.56452  0.92344  1.0000
  H   H236      1.0  0.45224  0.57928  0.73446  1.0000
  C   C200      1.0  0.47101  0.53012  0.76651  1.0000
  H   H237      1.0  0.39645  0.65936  0.79600  1.0000
  C   C201      1.0  0.47143  0.55399  0.77488  1.0000
  C   C202      1.0  0.49132  0.51592  0.76659  1.0000
  C   C203      1.0  0.21642  0.65830  0.64527  1.0000
  H   H238      1.0  0.26568  0.55498  0.98723  1.0000
  H   H239      1.0  0.48599  0.48364  0.90759  1.0000
  C   C204      1.0  0.07792  0.58779  0.99032  1.0000
  H   H240      1.0  0.49184  0.51492  0.84520  1.0000
  H   H241      1.0  0.43567  0.58211  0.99060  1.0000
  C   C205      1.0  0.15229  0.59663  0.49268  1.0000
  Fe  Fe28      1.0  0.99250  0.65760  0.86984  1.0000
  H   H242      1.0  0.09183  0.99124  0.99363  1.0000
  S   S53       1.0  0.36095  0.70759  0.32560  1.0000
  Fe  Fe29      1.0  0.28824  0.87992  0.35654  1.0000
  S   S54       1.0  0.32384  0.89408  0.36488  1.0000
  S   S55       1.0  0.25532  0.90028  0.36567  1.0000
  Fe  Fe30      1.0  0.30727  0.83280  0.33737  1.0000
  S   S56       1.0  0.34440  0.84327  0.34422  1.0000
  S   S57       1.0  0.29501  0.79825  0.32109  1.0000
  Fe  Fe31      1.0  0.33084  0.85852  0.38372  1.0000
  S   S58       1.0  0.34558  0.84643  0.42436  1.0000
  Fe  Fe32      1.0  0.33320  0.87751  0.32441  1.0000
  S   S59       1.0  0.35335  0.89546  0.29020  1.0000
  S   S60       1.0  0.29442  0.84569  0.37750  1.0000
  S   S61       1.0  0.29691  0.86582  0.31544  1.0000
  Fe  Fe33      1.0  0.33258  0.93626  0.13401  1.0000
  S   S62       1.0  0.32603  0.97389  0.14546  1.0000
  S   S63       1.0  0.32547  0.90753  0.16555  1.0000
  Fe  Fe34      1.0  0.33924  0.94902  0.07315  1.0000
  H   H243      1.0  0.17092  0.66534  0.35514  1.0000
  S   S64       1.0  0.34679  0.94325  0.02768  1.0000
  C   C206      1.0  0.06665  0.86571  0.04358  1.0000
  Fe  Fe35      1.0  0.30230  0.97512  0.10897  1.0000
  Fe  Fe36      1.0  0.33761  0.67732  0.33500  1.0000
  S   S65       1.0  0.36419  0.94432  0.10803  1.0000
  S   S66       1.0  0.30814  0.93725  0.09796  1.0000
  C   C207      1.0  0.02793  0.95564  0.22783  1.0000
  H   H244      1.0  0.39334  0.88223  0.20955  1.0000
  Fe  Fe37      1.0  0.12318  0.96207  0.10706  1.0000
  S   S67       1.0  0.10429  0.92750  0.10641  1.0000
  H   H245      1.0  0.23893  0.90895  0.21785  1.0000
  C   C208      1.0  0.03252  0.93492  0.27974  1.0000
  S   S68       1.0  0.05708  0.95561  0.12526  1.0000
  Fe  Fe38      1.0  0.08830  0.93912  0.14613  1.0000
  S   S69       1.0  0.08434  0.91176  0.17980  1.0000
  Fe  Fe39      1.0  0.07486  0.94695  0.08561  1.0000
  S   S70       1.0  0.04995  0.93460  0.05226  1.0000
  S   S71       1.0  0.10854  0.97255  0.14796  1.0000
  H   H246      1.0  0.13060  0.96691  0.04598  1.0000
  Fe  Fe40      1.0  0.13531  0.85000  0.35354  1.0000
  S   S72       1.0  0.12642  0.88768  0.36240  1.0000
  S   S73       1.0  0.17005  0.83573  0.33875  1.0000
  Fe  Fe41      1.0  0.08699  0.83424  0.36810  1.0000
  S   S74       1.0  0.07397  0.87118  0.37755  1.0000
  S   S75       1.0  0.06664  0.80161  0.37734  1.0000
  Fe  Fe42      1.0  0.09342  0.88121  0.33923  1.0000
  S   S76       1.0  0.08516  0.91092  0.30916  1.0000
  Fe  Fe43      1.0  0.10829  0.87429  0.39957  1.0000
  S   S77       1.0  0.11759  0.89131  0.43983  1.0000
  S   S78       1.0  0.10345  0.84395  0.32837  1.0000
  S   S79       1.0  0.12000  0.83705  0.39212  1.0000
  C   C209      1.0  0.10242  0.88558  0.47038  1.0000
  H   H247      1.0  0.31617  0.70645  0.42759  1.0000
  H   H248      1.0  0.07417  0.87566  0.06000  1.0000
  S   S80       1.0  0.31346  0.66121  0.30510  1.0000
  S   S81       1.0  0.09411  0.98112  0.08421  1.0000
  H   H249      1.0  0.35613  0.68402  0.27242  1.0000
  C   C210      1.0  0.08644  0.91196  0.21576  1.0000
  C   C211      1.0  0.08946  0.93258  0.23070  1.0000
  C   C212      1.0  0.08930  0.93188  0.25922  1.0000
  C   C213      1.0  0.08677  0.91054  0.27321  1.0000
  C   C214      1.0  0.08478  0.88981  0.25828  1.0000
  C   C215      1.0  0.08438  0.89059  0.22978  1.0000
  H   H250      1.0  0.09150  0.94912  0.22039  1.0000
  H   H251      1.0  0.09084  0.94804  0.27053  1.0000
  H   H252      1.0  0.08269  0.87327  0.26867  1.0000
  H   H253      1.0  0.08208  0.87450  0.21851  1.0000
  C   C216      1.0  0.05123  0.92250  0.01900  1.0000
  C   C217      1.0  0.13096  0.95643  0.02700  1.0000
  H   H254      1.0  0.15528  0.92102  0.31951  1.0000
  C   C218      1.0  0.09524  0.73157  0.34388  1.0000
  C   C219      1.0  0.08249  0.73213  0.36805  1.0000
  C   C220      1.0  0.07372  0.75371  0.37821  1.0000
  C   C221      1.0  0.07829  0.77483  0.36470  1.0000
  C   C222      1.0  0.09149  0.77424  0.34086  1.0000
  C   C223      1.0  0.09951  0.75264  0.33024  1.0000
  H   H255      1.0  0.07902  0.71595  0.37865  1.0000
  H   H256      1.0  0.06337  0.75407  0.39657  1.0000
  H   H257      1.0  0.09474  0.79036  0.33009  1.0000
  H   H258      1.0  0.10891  0.75221  0.31123  1.0000
  C   C224      1.0  0.33811  0.84292  0.47935  1.0000
  C   C225      1.0  0.38181  0.86736  0.21096  1.0000
  H   H259      1.0  0.16837  0.72299  0.34026  1.0000
  C   C226      1.0  0.18998  0.96723  0.09873  1.0000
  C   C227      1.0  0.20947  0.95524  0.08724  1.0000
  C   C228      1.0  0.23265  0.96252  0.09210  1.0000
  H   H260      1.0  0.37047  0.75656  0.33579  1.0000
  H   H261      1.0  0.33731  0.81716  0.21604  1.0000
  H   H262      1.0  0.20664  0.94012  0.07450  1.0000
  H   H263      1.0  0.24734  0.95300  0.08313  1.0000
  C   C229      1.0  0.36243  0.92467  0.00425  1.0000
  C   C230      1.0  0.32209  0.72460  0.42316  1.0000
  H   H264      1.0  0.36890  0.87175  0.17050  1.0000
  C   C231      1.0  0.23168  0.88225  0.35864  1.0000
  C   C232      1.0  0.23539  0.86065  0.34564  1.0000
  C   C233      1.0  0.21633  0.84665  0.33912  1.0000
  C   C234      1.0  0.19360  0.85385  0.34637  1.0000
  C   C235      1.0  0.19000  0.87518  0.35992  1.0000
  C   C236      1.0  0.20898  0.88952  0.36578  1.0000
  H   H265      1.0  0.25286  0.85486  0.34009  1.0000
  H   H266      1.0  0.21926  0.83031  0.32836  1.0000
  H   H267      1.0  0.17277  0.88055  0.36644  1.0000
  H   H268      1.0  0.20609  0.90606  0.37618  1.0000
  C   C237      1.0  0.33721  0.85774  0.45661  1.0000
  C   C238      1.0  0.33093  0.88140  0.46030  1.0000
  H   H269      1.0  0.16734  0.72702  0.37658  1.0000
  H   H270      1.0  0.07925  0.86001  0.45371  1.0000
  H   H271      1.0  0.33077  0.89315  0.44315  1.0000
  H   H272      1.0  0.03145  0.93653  0.17541  1.0000
  C   C239      1.0  0.34352  0.90067  0.25640  1.0000
  C   C240      1.0  0.35571  0.91651  0.23991  1.0000
  C   C241      1.0  0.34975  0.91973  0.21243  1.0000
  C   C242      1.0  0.33192  0.90656  0.20082  1.0000
  C   C243      1.0  0.31955  0.89095  0.21739  1.0000
  C   C244      1.0  0.32493  0.88838  0.24504  1.0000
  H   H273      1.0  0.37010  0.92616  0.24836  1.0000
  H   H274      1.0  0.35957  0.93172  0.20003  1.0000
  H   H275      1.0  0.30591  0.88045  0.20866  1.0000
  H   H276      1.0  0.31509  0.87638  0.25728  1.0000
  C   C245      1.0  0.34307  0.73307  0.32425  1.0000
  C   C246      1.0  0.31939  0.73129  0.31756  1.0000
  C   C247      1.0  0.30495  0.75145  0.31652  1.0000
  C   C248      1.0  0.31389  0.77349  0.32288  1.0000
  C   C249      1.0  0.33753  0.77532  0.33000  1.0000
  C   C250      1.0  0.35220  0.75514  0.33032  1.0000
  H   H277      1.0  0.31214  0.71438  0.31286  1.0000
  H   H278      1.0  0.28672  0.74990  0.31092  1.0000
  H   H279      1.0  0.34452  0.79219  0.33524  1.0000
  H   H280      1.0  0.34100  0.83936  0.17407  1.0000
  N   N14       1.0  0.17230  0.75889  0.35379  1.0000
  C   C251      1.0  0.16125  0.77408  0.37490  1.0000
  C   C252      1.0  0.16521  0.76795  0.32693  1.0000
  C   C253      1.0  0.19821  0.75932  0.35592  1.0000
  C   C254      1.0  0.21010  0.78099  0.35496  1.0000
  C   C255      1.0  0.21244  0.73856  0.35769  1.0000
  C   C256      1.0  0.23459  0.78185  0.35545  1.0000
  C   C257      1.0  0.23694  0.73962  0.35820  1.0000
  C   C258      1.0  0.24797  0.76119  0.35700  1.0000
  H   H281      1.0  0.16723  0.76879  0.39540  1.0000
  H   H282      1.0  0.14171  0.77315  0.37453  1.0000
  H   H283      1.0  0.17302  0.75703  0.31041  1.0000
  H   H284      1.0  0.17074  0.78635  0.32366  1.0000
  H   H285      1.0  0.14584  0.76809  0.32451  1.0000
  H   H286      1.0  0.20051  0.79744  0.35324  1.0000
  H   H287      1.0  0.20517  0.72123  0.35834  1.0000
  H   H288      1.0  0.24334  0.79857  0.35408  1.0000
  H   H289      1.0  0.24746  0.72353  0.35904  1.0000
  H   H290      1.0  0.26696  0.76194  0.35692  1.0000
  N   N15       1.0  0.25745  0.94155  0.18079  1.0000
  S   S82       1.0  0.33174  0.98750  0.08199  1.0000
  H   H291      1.0  0.14938  0.94995  0.02481  1.0000
  H   H292      1.0  0.37511  0.68692  0.44321  1.0000
  C   C259      1.0  0.23362  0.93175  0.18250  1.0000
  C   C260      1.0  0.21629  0.93841  0.16336  1.0000
  C   C261      1.0  0.26764  0.89017  0.43491  1.0000
  C   C262      1.0  0.20637  0.67288  0.34386  1.0000
  C   C263      1.0  0.22578  0.85864  0.42909  1.0000
  C   C264      1.0  0.03310  0.84765  0.02298  1.0000
  C   C265      1.0  0.02902  0.92084  0.25718  1.0000
  H   H293      1.0  0.31254  0.73668  0.43720  1.0000
  S   S83       1.0  0.30978  0.68340  0.36592  1.0000
  H   H294      1.0  0.22011  0.95068  0.14746  1.0000
  H   H295      1.0  0.21352  0.89903  0.47876  1.0000
  H   H296      1.0  0.28643  0.94153  0.15278  1.0000
  H   H297      1.0  0.45375  0.98382  0.03165  1.0000
  C   C266      1.0  0.04311  0.85980  0.04446  1.0000
  C   C267      1.0  0.07233  0.91545  0.00670  1.0000
  H   H298      1.0  0.40063  0.68323  0.27620  1.0000
  H   H299      1.0  0.25082  0.91239  0.47791  1.0000
  H   H300      1.0  0.10688  0.66706  0.09818  1.0000
  H   H301      1.0  0.01374  0.92503  0.01387  1.0000
  H   H302      1.0  0.40374  0.67803  0.24066  1.0000
  H   H303      1.0  0.15886  0.93891  0.28944  1.0000
  C   C268      1.0  0.37560  0.90491  0.01232  1.0000
  H   H304      1.0  0.13387  0.90799  0.25166  1.0000
  S   S84       1.0  0.11630  0.66434  0.39495  1.0000
  H   H305      1.0  0.29131  0.94075  0.20028  1.0000
  C   C269      1.0  0.01796  0.95056  0.17953  1.0000
  H   H306      1.0  0.39753  0.87554  0.99948  1.0000
  H   H307      1.0  0.34326  0.82466  0.47681  1.0000
  H   H308      1.0  0.25850  0.84641  0.48005  1.0000
  C   C270      1.0  0.41367  0.96540  0.02692  1.0000
  C   C271      1.0  0.23465  0.88885  0.28672  1.0000
  H   H309      1.0  0.03775  0.96988  0.29432  1.0000
  H   H310      1.0  0.18573  0.86412  0.26224  1.0000
  H   H311      1.0  0.12801  0.88395  0.29430  1.0000
  C   C272      1.0  0.35876  0.71124  0.40435  1.0000
  H   H312      1.0  0.25825  0.90657  0.42849  1.0000
  H   H313      1.0  0.32896  0.67485  0.48078  1.0000
  H   H314      1.0  0.24786  0.97331  0.20215  1.0000
  H   H315      1.0  0.34540  0.76363  0.43384  1.0000
  C   C273      1.0  0.19613  0.87711  0.27233  1.0000
  H   H316      1.0  0.01509  0.95977  0.15995  1.0000
  C   C274      1.0  0.03425  0.95913  0.27675  1.0000
  C   C275      1.0  0.23008  0.66852  0.34928  1.0000
  H   H317      1.0  0.35356  0.71728  0.38379  1.0000
  H   H318      1.0  0.42545  0.95837  0.04298  1.0000
  N   N16       1.0  0.34790  0.72612  0.42588  1.0000
  C   C276      1.0  0.35486  0.75072  0.42068  1.0000
  C   C277      1.0  0.20438  0.90600  0.20294  1.0000
  H   H319      1.0  0.15030  0.86458  0.28173  1.0000
  H   H320      1.0  0.01480  0.84337  0.02475  1.0000
  C   C278      1.0  0.04630  0.84161  0.99949  1.0000
  H   H321      1.0  0.05559  0.98894  0.20781  1.0000
  C   C279      1.0  0.22697  0.91521  0.20249  1.0000
  N   N17       1.0  0.02566  0.96694  0.20100  1.0000
  C   C280      1.0  0.34685  0.73225  0.47628  1.0000
  C   C281      1.0  0.21143  0.88631  0.46283  1.0000
  H   H322      1.0  0.19980  0.89314  0.21803  1.0000
  S   S85       1.0  0.10680  0.70517  0.33018  1.0000
  H   H323      1.0  0.08645  0.96584  0.01471  1.0000
  H   H324      1.0  0.22803  0.85703  0.26503  1.0000
  C   C282      1.0  0.36803  0.86148  0.18891  1.0000
  H   H325      1.0  0.27662  0.89660  0.48763  1.0000
  C   C283      1.0  0.13856  0.99078  0.00025  1.0000
  C   C284      1.0  0.07038  0.84768  0.99937  1.0000
  C   C285      1.0  0.18407  0.86655  0.43362  1.0000
  Fe  Fe44      1.0  0.07774  0.98867  0.12491  1.0000
  N   N18       1.0  0.36142  0.82282  0.26352  1.0000
  C   C286      1.0  0.37863  0.82923  0.28462  1.0000
  C   C287      1.0  0.33764  0.82749  0.27464  1.0000
  C   C288      1.0  0.36427  0.79720  0.25846  1.0000
  C   C289      1.0  0.36419  0.83608  0.23801  1.0000
  C   C290      1.0  0.37991  0.85504  0.23525  1.0000
  C   C291      1.0  0.35027  0.83071  0.21518  1.0000
  C   C292      1.0  0.35224  0.84325  0.19104  1.0000
  H   H326      1.0  0.37659  0.81848  0.30323  1.0000
  H   H327      1.0  0.39698  0.82656  0.27739  1.0000
  H   H328      1.0  0.37619  0.84789  0.29118  1.0000
  H   H329      1.0  0.33519  0.84641  0.27966  1.0000
  H   H330      1.0  0.33457  0.81734  0.29343  1.0000
  H   H331      1.0  0.32351  0.82267  0.26042  1.0000
  H   H332      1.0  0.38135  0.79312  0.24838  1.0000
  H   H333      1.0  0.36359  0.78690  0.27759  1.0000
  H   H334      1.0  0.35007  0.79018  0.24567  1.0000
  H   H335      1.0  0.39036  0.86131  0.25181  1.0000
  C   C293      1.0  0.16252  0.73501  0.35683  1.0000
  H   H336      1.0  0.02510  0.91879  0.21490  1.0000
  C   C294      1.0  0.23673  0.98222  0.10823  1.0000
  C   C295      1.0  0.03022  0.91976  0.00456  1.0000
  C   C296      1.0  0.32606  0.89017  0.48643  1.0000
  H   H337      1.0  0.16517  0.79297  0.37211  1.0000
  H   H338      1.0  0.37633  0.90029  0.03348  1.0000
  C   C297      1.0  0.08457  0.86914  0.47180  1.0000
  H   H339      1.0  0.17034  0.90581  0.18406  1.0000
  H   H340      1.0  0.36123  0.68182  0.23714  1.0000
  H   H341      1.0  0.03249  0.86507  0.06174  1.0000
  H   H342      1.0  0.14301  0.73539  0.35599  1.0000
  H   H343      1.0  0.37399  0.75287  0.42409  1.0000
  C   C298      1.0  0.19376  0.92924  0.16406  1.0000
  H   H344      1.0  0.06197  0.96192  0.19029  1.0000
  C   C299      1.0  0.22481  0.90886  0.29873  1.0000
  C   C300      1.0  0.22035  0.87296  0.27360  1.0000
  C   C301      1.0  0.25790  0.89437  0.48188  1.0000
  H   H345      1.0  0.09855  0.86439  0.02049  1.0000
  H   H346      1.0  0.13188  0.92487  0.29617  1.0000
  C   C302      1.0  0.20061  0.91317  0.29764  1.0000
  H   H347      1.0  0.19421  0.92873  0.30800  1.0000
  H   H348      1.0  0.37879  0.97407  0.06005  1.0000
  C   C303      1.0  0.18547  0.89736  0.28431  1.0000
  H   H349      1.0  0.15326  0.87721  0.31452  1.0000
  H   H350      1.0  0.08854  0.91680  0.01769  1.0000
  N   N19       1.0  0.15978  0.90140  0.28246  1.0000
  C   C304      1.0  0.15127  0.92251  0.29755  1.0000
  C   C305      1.0  0.14735  0.88092  0.29362  1.0000
  H   H351      1.0  0.04245  0.79511  0.99282  1.0000
  H   H352      1.0  0.16623  0.86400  0.42677  1.0000
  C   C306      1.0  0.15304  0.90442  0.25377  1.0000
  H   H353      1.0  0.27642  0.91367  0.20111  1.0000
  H   H354      1.0  0.16232  0.91941  0.24444  1.0000
  H   H355      1.0  0.04746  0.98590  0.17328  1.0000
  H   H356      1.0  0.24568  0.97563  0.16617  1.0000
  C   C307      1.0  0.35482  0.71900  0.45357  1.0000
  H   H357      1.0  0.25333  0.88532  0.28839  1.0000
  H   H358      1.0  0.17379  0.89215  0.46332  1.0000
  H   H359      1.0  0.39926  0.95253  0.02523  1.0000
  H   H360      1.0  0.26697  0.93785  0.22280  1.0000
  C   C308      1.0  0.04865  0.97633  0.19282  1.0000
  C   C309      1.0  0.26826  0.93498  0.15450  1.0000
  H   H361      1.0  0.07562  0.66328  0.09900  1.0000
  H   H362      1.0  0.31620  0.72909  0.40234  1.0000
  Fe  Fe45      1.0  0.35598  0.98252  0.11733  1.0000
  H   H363      1.0  0.19928  0.84261  0.40463  1.0000
  H   H364      1.0  0.25856  0.94250  0.13705  1.0000
  C   C310      1.0  0.35907  0.67116  0.25567  1.0000
  H   H365      1.0  0.15694  0.88843  0.24155  1.0000
  H   H366      1.0  0.23966  0.84979  0.41785  1.0000
  N   N20       1.0  0.12278  0.97055  0.00357  1.0000
  C   C311      1.0  0.26795  0.85632  0.46416  1.0000
  C   C312      1.0  0.09901  0.98013  0.01024  1.0000
  H   H367      1.0  0.15723  0.98516  0.99788  1.0000
  C   C313      1.0  0.08032  0.85939  0.02125  1.0000
  H   H368      1.0  0.26930  0.91556  0.15185  1.0000
  C   C314      1.0  0.25607  0.96755  0.18277  1.0000
  H   H369      1.0  0.28599  0.89476  0.43994  1.0000
  H   H370      1.0  0.09415  0.66923  0.45279  1.0000
  C   C315      1.0  0.23090  0.87448  0.45035  1.0000
  H   H371      1.0  0.23597  0.92063  0.30992  1.0000
  C   C316      1.0  0.18842  0.88242  0.45433  1.0000
  H   H372      1.0  0.20133  0.68433  0.32736  1.0000
  C   C317      1.0  0.36891  0.69864  0.45897  1.0000
  S   S86       1.0  0.16113  0.95725  0.09125  1.0000
  C   C318      1.0  0.39237  0.98784  0.06015  1.0000
  H   H373      1.0  0.27009  0.84478  0.44616  1.0000
  H   H374      1.0  0.01402  0.80699  0.00175  1.0000
  C   C319      1.0  0.02693  0.93088  0.23152  1.0000
  H   H375      1.0  0.03480  0.92693  0.29947  1.0000
  C   C320      1.0  0.18780  0.91303  0.18380  1.0000
  C   C321      1.0  0.19406  0.98679  0.11510  1.0000
  C   C322      1.0  0.27356  0.93303  0.20232  1.0000
  N   N21       1.0  0.25557  0.87885  0.45790  1.0000
  S   S87       1.0  0.25142  0.67981  0.32787  1.0000
  H   H376      1.0  0.37824  0.71156  0.40511  1.0000
  C   C323      1.0  0.40113  0.66920  0.26041  1.0000
  Fe  Fe46      1.0  0.28663  0.66420  0.33797  1.0000
  C   C324      1.0  0.20270  0.85453  0.42120  1.0000
  H   H377      1.0  0.26869  0.87858  0.41685  1.0000
  H   H378      1.0  0.11978  0.94091  0.03032  1.0000
  Fe  Fe47      1.0  0.10489  0.67045  0.35210  1.0000
  H   H379      1.0  0.35099  0.75619  0.39952  1.0000
  H   H380      1.0  0.18095  0.93465  0.14896  1.0000
  H   H381      1.0  0.27375  0.97548  0.18128  1.0000
  H   H382      1.0  0.02872  0.90190  0.25953  1.0000
  C   C325      1.0  0.03213  0.96940  0.25121  1.0000
  H   H383      1.0  0.33577  0.74771  0.47388  1.0000
  H   H384      1.0  0.35306  0.69268  0.40580  1.0000
  H   H385      1.0  0.32196  0.90867  0.48910  1.0000
  H   H386      1.0  0.28609  0.85918  0.47161  1.0000
  H   H387      1.0  0.00114  0.94218  0.18502  1.0000
  C   C326      1.0  0.18918  0.66182  0.35925  1.0000
  H   H388      1.0  0.42306  0.96521  0.00719  1.0000
  H   H389      1.0  0.37377  0.98186  0.00984  1.0000
  H   H390      1.0  0.40495  0.98352  0.07665  1.0000
  C   C327      1.0  0.00823  0.98669  0.20209  1.0000
  H   H391      1.0  0.38509  0.67640  0.48915  1.0000
  H   H392      1.0  0.03422  0.98817  0.24988  1.0000
  N   N22       1.0  0.40444  0.98931  0.03369  1.0000
  H   H393      1.0  0.37494  0.66018  0.30391  1.0000
  C   C328      1.0  0.37478  0.69227  0.48543  1.0000
  S   S88       1.0  0.26565  0.99201  0.11567  1.0000
  H   H394      1.0  0.09921  0.99158  0.02844  1.0000
  H   H395      1.0  0.38056  0.66091  0.20577  1.0000
  H   H396      1.0  0.34273  0.66100  0.25342  1.0000
  C   C329      1.0  0.38763  0.89087  0.99291  1.0000
  S   S89       1.0  0.34934  0.71611  0.58083  1.0000
  H   H397      1.0  0.36849  0.72539  0.63375  1.0000
  S   S90       1.0  0.41320  0.69801  0.87349  1.0000
  Fe  Fe48      1.0  0.29789  0.83333  0.62059  1.0000
  S   S91       1.0  0.33421  0.84429  0.60883  1.0000
  S   S92       1.0  0.28409  0.79706  0.62718  1.0000
  Fe  Fe49      1.0  0.28056  0.88308  0.62893  1.0000
  S   S93       1.0  0.31577  0.89809  0.61921  1.0000
  S   S94       1.0  0.24720  0.90405  0.63636  1.0000
  Fe  Fe50      1.0  0.31606  0.87251  0.58409  1.0000
  S   S95       1.0  0.32100  0.88783  0.54160  1.0000
  Fe  Fe51      1.0  0.33072  0.86860  0.64502  1.0000
  S   S96       1.0  0.36161  0.86825  0.67496  1.0000
  S   S97       1.0  0.28017  0.85915  0.59315  1.0000
  S   S98       1.0  0.29524  0.85607  0.65744  1.0000
  Fe  Fe52      1.0  0.43449  0.84007  0.85788  1.0000
  S   S99       1.0  0.39682  0.84714  0.86886  1.0000
  S   S100      1.0  0.45094  0.80269  0.85534  1.0000
  Fe  Fe53      1.0  0.44463  0.89372  0.85202  1.0000
  S   S101      1.0  0.40699  0.90316  0.86264  1.0000
  C   C330      1.0  0.39476  0.73385  0.66295  1.0000
  Fe  Fe54      1.0  0.41008  0.87620  0.89579  1.0000
  S   S102      1.0  0.40209  0.87750  0.94166  1.0000
  Fe  Fe55      1.0  0.39723  0.87343  0.83461  1.0000
  S   S103      1.0  0.36684  0.87690  0.80424  1.0000
  S   S104      1.0  0.44818  0.86789  0.88629  1.0000
  S   S105      1.0  0.43443  0.86524  0.82245  1.0000
  S   S106      1.0  0.14127  0.71383  0.65255  1.0000
  C   C331      1.0  0.10317  0.95185  0.96284  1.0000
  H   H398      1.0  0.00841  0.85574  0.70485  1.0000
  S   S107      1.0  0.03600  0.84770  0.88035  1.0000
  H   H399      1.0  0.22036  0.76108  0.60874  1.0000
  H   H400      1.0  0.24903  0.88692  0.49990  1.0000
  Fe  Fe56      1.0  0.02109  0.86361  0.84244  1.0000
  S   S108      1.0  0.03598  0.85255  0.80120  1.0000
  Fe  Fe57      1.0  0.02502  0.88114  0.90172  1.0000
  S   S109      1.0  0.05308  0.89351  0.93159  1.0000
  C   C332      1.0  0.33272  0.85159  0.50546  1.0000
  Fe  Fe58      1.0  0.12239  0.84930  0.62572  1.0000
  S   S110      1.0  0.10498  0.88462  0.61922  1.0000
  S   S111      1.0  0.16031  0.83762  0.62422  1.0000
  Fe  Fe59      1.0  0.07617  0.82485  0.63365  1.0000
  S   S112      1.0  0.05488  0.85781  0.62776  1.0000
  S   S113      1.0  0.06063  0.79024  0.64384  1.0000
  Fe  Fe60      1.0  0.07974  0.86468  0.59304  1.0000
  S   S114      1.0  0.06473  0.87094  0.55098  1.0000
  Fe  Fe61      1.0  0.08176  0.87425  0.65456  1.0000
  S   S115      1.0  0.07315  0.89750  0.69107  1.0000
  S   S116      1.0  0.09889  0.83020  0.59748  1.0000
  S   S117      1.0  0.10134  0.84057  0.66248  1.0000
  H   H401      1.0  0.09545  0.74090  0.59621  1.0000
  C   C333      1.0  0.41988  0.69971  0.79444  1.0000
  H   H402      1.0  0.39286  0.77961  0.70639  1.0000
  C   C334      1.0  0.10452  0.93824  0.93932  1.0000
  C   C335      1.0  0.04644  0.86592  0.77112  1.0000
  C   C336      1.0  0.05255  0.85131  0.74916  1.0000
  C   C337      1.0  0.06074  0.86075  0.72468  1.0000
  C   C338      1.0  0.06305  0.88503  0.72183  1.0000
  C   C339      1.0  0.05716  0.89971  0.74384  1.0000
  C   C340      1.0  0.04883  0.89024  0.76837  1.0000
  H   H403      1.0  0.05072  0.83250  0.75101  1.0000
  H   H404      1.0  0.06499  0.84920  0.70794  1.0000
  H   H405      1.0  0.05883  0.91851  0.74184  1.0000
  H   H406      1.0  0.04438  0.90172  0.78510  1.0000
  C   C341      1.0  0.20235  0.72176  0.62841  1.0000
  C   C342      1.0  0.06536  0.68797  0.82310  1.0000
  C   C343      1.0  0.05148  0.90389  0.96558  1.0000
  H   H407      1.0  0.33934  0.68589  0.72164  1.0000
  C   C344      1.0  0.38721  0.92488  0.69333  1.0000
  H   H408      1.0  0.23269  0.84445  0.57372  1.0000
  H   H409      1.0  0.42415  0.70113  0.81629  1.0000
  N   N23       1.0  0.06552  0.73531  0.57083  1.0000
  H   H410      1.0  0.34273  0.75844  0.64549  1.0000
  H   H411      1.0  0.32511  0.77154  0.70650  1.0000
  H   H412      1.0  0.03363  0.71230  0.85121  1.0000
  H   H413      1.0  0.21131  0.91225  0.54458  1.0000
  S   S118      1.0  0.13885  0.66196  0.60521  1.0000
  C   C345      1.0  0.42425  0.92698  0.71677  1.0000
  C   C346      1.0  0.00243  0.74946  0.90891  1.0000
  C   C347      1.0  0.11934  0.73568  0.65291  1.0000
  C   C348      1.0  0.09633  0.73011  0.65983  1.0000
  C   C349      1.0  0.07838  0.74714  0.65775  1.0000
  C   C350      1.0  0.08347  0.76977  0.64884  1.0000
  C   C351      1.0  0.10665  0.77558  0.64291  1.0000
  C   C352      1.0  0.12460  0.75854  0.64498  1.0000
  H   H414      1.0  0.09237  0.71270  0.66692  1.0000
  H   H415      1.0  0.06050  0.74269  0.66263  1.0000
  H   H416      1.0  0.11076  0.79304  0.63617  1.0000
  H   H417      1.0  0.14241  0.76290  0.63967  1.0000
  C   C353      1.0  0.36186  0.93031  0.97654  1.0000
  H   H418      1.0  0.14288  0.86530  0.57923  1.0000
  H   H419      1.0  0.43422  0.89041  0.76579  1.0000
  C   C354      1.0  0.38686  0.89637  0.96515  1.0000
  H   H420      1.0  0.06607  0.81470  0.95733  1.0000
  N   N24       1.0  0.04505  0.70110  0.81144  1.0000
  H   H421      1.0  0.41273  0.83089  0.97410  1.0000
  C   C355      1.0  0.36665  0.70568  0.50720  1.0000
  C   C356      1.0  0.22276  0.88607  0.63242  1.0000
  C   C357      1.0  0.22577  0.86168  0.63274  1.0000
  C   C358      1.0  0.20640  0.84720  0.63001  1.0000
  C   C359      1.0  0.18383  0.85692  0.62714  1.0000
  C   C360      1.0  0.18068  0.88135  0.62651  1.0000
  C   C361      1.0  0.20017  0.89594  0.62932  1.0000
  H   H422      1.0  0.24305  0.85390  0.63536  1.0000
  H   H423      1.0  0.20902  0.82838  0.63002  1.0000
  H   H424      1.0  0.16337  0.88899  0.62365  1.0000
  H   H425      1.0  0.19783  0.91484  0.62892  1.0000
  C   C362      1.0  0.36233  0.86948  0.71104  1.0000
  C   C363      1.0  0.38382  0.86553  0.72441  1.0000
  C   C364      1.0  0.38544  0.86711  0.75285  1.0000
  C   C365      1.0  0.36562  0.87304  0.76839  1.0000
  C   C366      1.0  0.34406  0.87661  0.75504  1.0000
  C   C367      1.0  0.34236  0.87469  0.72663  1.0000
  H   H426      1.0  0.39941  0.86150  0.71264  1.0000
  H   H427      1.0  0.40205  0.86394  0.76273  1.0000
  H   H428      1.0  0.32857  0.88115  0.76676  1.0000
  H   H429      1.0  0.32569  0.87781  0.71678  1.0000
  H   H430      1.0  0.21163  0.78820  0.64256  1.0000
  C   C368      1.0  0.32693  0.87539  0.50920  1.0000
  C   C369      1.0  0.37540  0.92556  0.71797  1.0000
  H   H431      1.0  0.33368  0.84003  0.52275  1.0000
  C   C370      1.0  0.42393  0.72681  0.86668  1.0000
  C   C371      1.0  0.40853  0.74633  0.86966  1.0000
  C   C372      1.0  0.41620  0.76951  0.86536  1.0000
  C   C373      1.0  0.43963  0.77366  0.85866  1.0000
  C   C374      1.0  0.45494  0.75410  0.85521  1.0000
  C   C375      1.0  0.44714  0.73085  0.85894  1.0000
  H   H432      1.0  0.39052  0.74353  0.87554  1.0000
  H   H433      1.0  0.40403  0.78417  0.86743  1.0000
  H   H434      1.0  0.47308  0.75697  0.84992  1.0000
  H   H435      1.0  0.45930  0.71616  0.85657  1.0000
  C   C376      1.0  0.33022  0.73854  0.59186  1.0000
  C   C377      1.0  0.31149  0.73330  0.60897  1.0000
  C   C378      1.0  0.29719  0.75139  0.61943  1.0000
  C   C379      1.0  0.30132  0.77473  0.61242  1.0000
  C   C380      1.0  0.31961  0.77997  0.59468  1.0000
  C   C381      1.0  0.33418  0.76185  0.58451  1.0000
  H   H436      1.0  0.30819  0.71532  0.61448  1.0000
  H   H437      1.0  0.28331  0.74725  0.63343  1.0000
  H   H438      1.0  0.32266  0.79793  0.58888  1.0000
  H   H439      1.0  0.34864  0.76592  0.57122  1.0000
  H   H440      1.0  0.07140  0.71471  0.53435  1.0000
  N   N25       1.0  0.41867  0.80487  0.94297  1.0000
  H   H441      1.0  0.19465  0.82879  0.56347  1.0000
  C   C382      1.0  0.39662  0.81090  0.92856  1.0000
  H   H442      1.0  0.07115  0.68998  0.72267  1.0000
  H   H443      1.0  0.36259  0.71524  0.80250  1.0000
  C   C383      1.0  0.14598  0.93190  0.94616  1.0000
  C   C384      1.0  0.06358  0.72627  0.73202  1.0000
  C   C385      1.0  0.18552  0.88516  0.54122  1.0000
  H   H444      1.0  0.08882  0.90039  0.97121  1.0000
  C   C386      1.0  0.15245  0.82785  0.54715  1.0000
  H   H445      1.0  0.15591  0.79415  0.69976  1.0000
  H   H446      1.0  0.05428  0.76072  0.74668  1.0000
  H   H447      1.0  0.00557  0.83450  0.95014  1.0000
  C   C387      1.0  0.38749  0.67515  0.80472  1.0000
  C   C388      1.0  0.07019  0.80421  0.53499  1.0000
  H   H448      1.0  0.06079  0.67577  0.76739  1.0000
  C   C389      1.0  0.20754  0.89386  0.54775  1.0000
  H   H449      1.0  0.02943  0.66952  0.79609  1.0000
  C   C390      1.0  0.07240  0.90606  0.98030  1.0000
  H   H450      1.0  0.16095  0.94785  0.98073  1.0000
  H   H451      1.0  0.45757  0.78082  0.91932  1.0000
  H   H452      1.0  0.05675  0.84336  0.94488  1.0000
  H   H453      1.0  0.39273  0.83015  0.92900  1.0000
  H   H454      1.0  0.43969  0.81636  0.90935  1.0000
  H   H455      1.0  0.13852  0.88581  0.55235  1.0000
  C   C391      1.0  0.05130  0.71013  0.78436  1.0000
  C   C392      1.0  0.05923  0.69443  0.76379  1.0000
  H   H456      1.0  0.09147  0.78725  0.50460  1.0000
  C   C393      1.0  0.42364  0.77930  0.94062  1.0000
  C   C394      1.0  0.99591  0.76976  0.89423  1.0000
  H   H457      1.0  0.12042  0.86072  0.55450  1.0000
  H   H458      1.0  0.04136  0.81763  0.93563  1.0000
  C   C395      1.0  0.23284  0.72547  0.66174  1.0000
  C   C396      1.0  0.14486  0.94555  0.96966  1.0000
  H   H459      1.0  0.43186  0.80672  0.98349  1.0000
  C   C397      1.0  0.04956  0.73436  0.77744  1.0000
  H   H460      1.0  0.10235  0.72729  0.56427  1.0000
  N   N26       1.0  0.14779  0.88317  0.70755  1.0000
  C   C398      1.0  0.14245  0.90402  0.72473  1.0000
  C   C399      1.0  0.14002  0.88831  0.67965  1.0000
  C   C400      1.0  0.13350  0.86359  0.71801  1.0000
  C   C401      1.0  0.17332  0.87783  0.70711  1.0000
  C   C402      1.0  0.18943  0.89554  0.70005  1.0000
  C   C403      1.0  0.18285  0.85489  0.71176  1.0000
  C   C404      1.0  0.21349  0.89068  0.69806  1.0000
  C   C405      1.0  0.20696  0.85019  0.70939  1.0000
  C   C406      1.0  0.22222  0.86804  0.70251  1.0000
  H   H461      1.0  0.14979  0.92042  0.71641  1.0000
  H   H462      1.0  0.12314  0.90747  0.72646  1.0000
  H   H463      1.0  0.14946  0.90151  0.74549  1.0000
  H   H464      1.0  0.14369  0.87303  0.66613  1.0000
  H   H465      1.0  0.14904  0.90366  0.67085  1.0000
  H   H466      1.0  0.12090  0.89240  0.67880  1.0000
  H   H467      1.0  0.13855  0.85880  0.73900  1.0000
  H   H468      1.0  0.11440  0.86834  0.71843  1.0000
  H   H469      1.0  0.13510  0.84773  0.70497  1.0000
  H   H470      1.0  0.18353  0.91314  0.69506  1.0000
  H   H471      1.0  0.17206  0.84018  0.71678  1.0000
  H   H472      1.0  0.22539  0.90435  0.69188  1.0000
  H   H473      1.0  0.21386  0.83252  0.71246  1.0000
  H   H474      1.0  0.24083  0.86428  0.69997  1.0000
  C   C407      1.0  0.02513  0.68494  0.80900  1.0000
  H   H475      1.0  0.01403  0.90907  0.96707  1.0000
  H   H476      1.0  0.02186  0.72944  0.82442  1.0000
  C   C408      1.0  0.37441  0.68884  0.70652  1.0000
  C   C409      1.0  0.39791  0.69158  0.71305  1.0000
  C   C410      1.0  0.05062  0.82618  0.95272  1.0000
  H   H477      1.0  0.08934  0.74828  0.52508  1.0000
  N   N27       1.0  0.39435  0.69665  0.79008  1.0000
  H   H478      1.0  0.15513  0.82422  0.56903  1.0000
  H   H479      1.0  0.00519  0.93085  0.70535  1.0000
  N   N28       1.0  0.34910  0.79263  0.68381  1.0000
  C   C411      1.0  0.35694  0.80685  0.70718  1.0000
  C   C412      1.0  0.34809  0.80832  0.66004  1.0000
  C   C413      1.0  0.32501  0.78464  0.68986  1.0000
  C   C414      1.0  0.36474  0.77224  0.67755  1.0000
  C   C415      1.0  0.35871  0.75620  0.65686  1.0000
  C   C416      1.0  0.38657  0.76818  0.69071  1.0000
  C   C417      1.0  0.37346  0.73727  0.64983  1.0000
  H   H480      1.0  0.37405  0.81527  0.70304  1.0000
  H   H481      1.0  0.34446  0.82169  0.71163  1.0000
  H   H482      1.0  0.35834  0.79612  0.72587  1.0000
  H   H483      1.0  0.36582  0.81471  0.65450  1.0000
  H   H484      1.0  0.33679  0.82409  0.66405  1.0000
  H   H485      1.0  0.34077  0.79952  0.64198  1.0000
  H   H486      1.0  0.31314  0.79958  0.69577  1.0000
  H   H487      1.0  0.31650  0.77654  0.67204  1.0000
  C   C418      1.0  0.40723  0.76291  0.95048  1.0000
  C   C419      1.0  0.36403  0.69164  0.75383  1.0000
  C   C420      1.0  0.40128  0.74920  0.68342  1.0000
  H   H488      1.0  0.40626  0.71933  0.65702  1.0000
  C   C421      1.0  0.03031  0.91058  0.97802  1.0000
  H   H489      1.0  0.07023  0.67202  0.81120  1.0000
  C   C422      1.0  0.18565  0.74491  0.67927  1.0000
  C   C423      1.0  0.16963  0.75913  0.69354  1.0000
  H   H490      1.0  0.41796  0.74653  0.69347  1.0000
  H   H491      1.0  0.00038  0.84501  0.98328  1.0000
  H   H492      1.0  0.13426  0.82228  0.54259  1.0000
  H   H493      1.0  0.38704  0.71956  0.82398  1.0000
  H   H494      1.0  0.13221  0.85035  0.50691  1.0000
  H   H495      1.0  0.42621  0.71606  0.78478  1.0000
  C   C424      1.0  0.02736  0.80591  0.98535  1.0000
  C   C425      1.0  0.12340  0.95596  0.97877  1.0000
  C   C426      1.0  0.06667  0.75904  0.55871  1.0000
  H   H496      1.0  0.05410  0.74553  0.61080  1.0000
  C   C427      1.0  0.37397  0.91634  0.95714  1.0000
  H   H497      1.0  0.01916  0.79613  0.96835  1.0000
  C   C428      1.0  0.43746  0.81955  0.93140  1.0000
  C   C429      1.0  0.08004  0.87631  0.52037  1.0000
  C   C430      1.0  0.38192  0.71716  0.80244  1.0000
  H   H498      1.0  0.21335  0.70996  0.61537  1.0000
  H   H499      1.0  0.05495  0.70038  0.55942  1.0000
  H   H500      1.0  0.21498  0.67575  0.65364  1.0000
  H   H501      1.0  0.05883  0.85274  0.49718  1.0000
  C   C431      1.0  0.05540  0.77917  0.57037  1.0000
  H   H502      1.0  0.39804  0.72647  0.95459  1.0000
  H   H503      1.0  0.45015  0.94199  0.92040  1.0000
  H   H504      1.0  0.43337  0.83864  0.93374  1.0000
  H   H505      1.0  0.00266  0.89317  0.80100  1.0000
  C   C432      1.0  0.13868  0.86683  0.55737  1.0000
  C   C433      1.0  0.38784  0.69450  0.76126  1.0000
  H   H506      1.0  0.38607  0.73366  0.79154  1.0000
  H   H507      1.0  0.46372  0.73885  0.91564  1.0000
  C   C434      1.0  0.16887  0.78330  0.68932  1.0000
  H   H508      1.0  0.10310  0.68475  0.49842  1.0000
  H   H509      1.0  0.43033  0.68436  0.78676  1.0000
  H   H510      1.0  0.26207  0.66824  0.53976  1.0000
  H   H511      1.0  0.40217  0.90978  0.79315  1.0000
  C   C435      1.0  0.41158  0.92573  0.69270  1.0000
  C   C436      1.0  0.15018  0.85643  0.51182  1.0000
  C   C437      1.0  0.06524  0.70241  0.73805  1.0000
  C   C438      1.0  0.35750  0.68884  0.72684  1.0000
  H   H512      1.0  0.16254  0.92402  0.93969  1.0000
  N   N29       1.0  0.15578  0.85308  0.54082  1.0000
  C   C439      1.0  0.19752  0.84685  0.55804  1.0000
  C   C440      1.0  0.44814  0.74563  0.92584  1.0000
  H   H513      1.0  0.35175  0.94552  0.96995  1.0000
  S   S119      1.0  0.01330  0.89853  0.86258  1.0000
  C   C441      1.0  0.08912  0.72828  0.58078  1.0000
  H   H514      1.0  0.19226  0.71005  0.64191  1.0000
  C   C442      1.0  0.20037  0.77927  0.65657  1.0000
  H   H515      1.0  0.24522  0.71381  0.65017  1.0000
  H   H516      1.0  0.06150  0.68156  0.84386  1.0000
  H   H517      1.0  0.43411  0.71132  0.93233  1.0000
  S   S120      1.0  0.30575  0.66536  0.58411  1.0000
  C   C443      1.0  0.17972  0.86142  0.54643  1.0000
  C   C444      1.0  0.99851  0.72668  0.89860  1.0000
  C   C445      1.0  0.04887  0.73395  0.59389  1.0000
  H   H518      1.0  0.04522  0.77841  0.58877  1.0000
  C   C446      1.0  0.38788  0.92647  0.74219  1.0000
  C   C447      1.0  0.09765  0.89302  0.51884  1.0000
  H   H519      1.0  0.39966  0.94152  0.79404  1.0000
  H   H520      1.0  0.45043  0.95070  0.78782  1.0000
  H   H521      1.0  0.42066  0.92508  0.67343  1.0000
  H   H522      1.0  0.07148  0.82149  0.52609  1.0000
  H   H523      1.0  0.36836  0.67197  0.80393  1.0000
  H   H524      1.0  0.01037  0.75136  0.92856  1.0000
  H   H525      1.0  0.17278  0.89738  0.53281  1.0000
  H   H526      1.0  0.18365  0.81218  0.66779  1.0000
  H   H527      1.0  0.05226  0.73252  0.83425  1.0000
  H   H528      1.0  0.22335  0.71381  0.67586  1.0000
  H   H529      1.0  0.24131  0.88616  0.56519  1.0000
  H   H530      1.0  0.08873  0.93483  0.92786  1.0000
  C   C448      1.0  0.43147  0.73008  0.93528  1.0000
  C   C449      1.0  0.09449  0.66807  0.49650  1.0000
  H   H531      1.0  0.04345  0.74764  0.79153  1.0000
  C   C450      1.0  0.05797  0.71797  0.55032  1.0000
  C   C451      1.0  0.03801  0.71977  0.83104  1.0000
  H   H532      1.0  0.12660  0.91742  0.91301  1.0000
  C   C452      1.0  0.00747  0.89333  0.70212  1.0000
  H   H533      1.0  0.04141  0.72384  0.54035  1.0000
  H   H534      1.0  0.04830  0.71589  0.60248  1.0000
  H   H535      1.0  0.24352  0.73760  0.67406  1.0000
  H   H536      1.0  0.42306  0.92667  0.81093  1.0000
  S   S121      1.0  0.46606  0.92600  0.83908  1.0000
  H   H537      1.0  0.45348  0.90649  0.78732  1.0000
  H   H538      1.0  0.03072  0.73902  0.58771  1.0000
  C   C453      1.0  0.41217  0.92635  0.79237  1.0000
  H   H539      1.0  0.45298  0.95096  0.75192  1.0000
  C   C454      1.0  0.44353  0.90729  0.76801  1.0000
  H   H540      1.0  0.45457  0.81630  0.94157  1.0000
  N   N30       1.0  0.42673  0.92755  0.76750  1.0000
  C   C455      1.0  0.41587  0.81156  0.97178  1.0000
  Fe  Fe62      1.0  0.33832  0.68200  0.59900  1.0000
  H   H541      1.0  0.35643  0.92446  0.71832  1.0000
  H   H542      1.0  0.34628  0.73579  0.51982  1.0000
  H   H543      1.0  0.42818  0.96525  0.76785  1.0000
  C   C456      1.0  0.01417  0.84318  0.96754  1.0000
  H   H544      1.0  0.45692  0.90810  0.75174  1.0000
  C   C457      1.0  0.44014  0.94958  0.76875  1.0000
  S   S122      1.0  0.33004  0.67638  0.64272  1.0000
  N   N31       1.0  0.21672  0.73872  0.64362  1.0000
  H   H545      1.0  0.18919  0.73104  0.61549  1.0000
  C   C458      1.0  0.22451  0.87917  0.55932  1.0000
  H   H546      1.0  0.18507  0.72618  0.68277  1.0000
  C   C459      1.0  0.41282  0.92703  0.74231  1.0000
  C   C460      1.0  0.40466  0.69450  0.73995  1.0000
  H   H547      1.0  0.08109  0.69918  0.82410  1.0000
  Fe  Fe63      1.0  0.12531  0.67930  0.64253  1.0000
  H   H548      1.0  0.37741  0.92321  0.67470  1.0000
  H   H549      1.0  0.06833  0.73243  0.71209  1.0000
  S   S123      1.0  0.08781  0.67424  0.63126  1.0000
  H   H550      1.0  0.24295  0.73904  0.61193  1.0000
  C   C461      1.0  0.00061  0.91430  0.71460  1.0000
  H   H551      1.0  0.16458  0.81634  0.53518  1.0000
  H   H552      1.0  0.08908  0.71056  0.59019  1.0000
  H   H553      1.0  0.12203  0.91090  0.49289  1.0000
  C   C462      1.0  0.20114  0.75444  0.65984  1.0000
  H   H554      1.0  0.44313  0.92759  0.71522  1.0000
  H   H555      1.0  0.39779  0.80551  0.90701  1.0000
  C   C463      1.0  0.00234  0.87199  0.71425  1.0000
  C   C464      1.0  0.23136  0.75135  0.62367  1.0000
  H   H556      1.0  0.24318  0.76400  0.63372  1.0000
  C   C465      1.0  0.12583  0.92823  0.93104  1.0000
  C   C466      1.0  0.07320  0.86484  0.49658  1.0000
  H   H557      1.0  0.10207  0.90300  0.53662  1.0000
  H   H558      1.0  0.37307  0.92086  0.93595  1.0000
  C   C467      1.0  0.18441  0.79337  0.67116  1.0000
  H   H559      1.0  0.37752  0.92602  0.76048  1.0000
  C   C468      1.0  0.21959  0.85569  0.56414  1.0000
  H   H560      1.0  0.15716  0.75116  0.70716  1.0000
  H   H561      1.0  0.35031  0.69093  0.76890  1.0000
  H   H562      1.0  0.38109  0.80238  0.93750  1.0000
  S   S124      1.0  0.00009  0.79809  0.90904  1.0000
  N   N32       1.0  0.03503  0.82945  0.97663  1.0000
  C   C469      1.0  0.44433  0.76989  0.92820  1.0000
  H   H563      1.0  0.08590  0.95840  0.96836  1.0000
  C   C470      1.0  0.05571  0.74218  0.75162  1.0000
  C   C471      1.0  0.41108  0.73869  0.94764  1.0000
  C   C472      1.0  0.07999  0.76266  0.53482  1.0000
  H   H564      1.0  0.36940  0.68584  0.68570  1.0000
  C   C473      1.0  0.35271  0.72562  0.50265  1.0000
  H   H565      1.0  0.01992  0.67785  0.82899  1.0000
  C   C474      1.0  0.46838  0.96913  0.89933  1.0000
  S   S125      1.0  0.09494  0.66796  0.55201  1.0000
  H   H566      1.0  0.37084  0.70043  0.52772  1.0000
  C   C475      1.0  0.08153  0.78492  0.52309  1.0000
  Fe  Fe64      1.0  0.99997  0.83482  0.88945  1.0000
  C   C476      1.0  0.48607  0.98578  0.90043  1.0000
  H   H567      1.0  0.01746  0.89360  0.68343  1.0000
  H   H568      1.0  0.00343  0.71135  0.91031  1.0000
  H   H569      1.0  0.40069  0.80298  0.98147  1.0000
  H   H570      1.0  0.48576  0.96960  0.82172  1.0000
  H   H571      1.0  0.42320  0.69613  0.74350  1.0000
  H   H572      1.0  0.41102  0.69055  0.69717  1.0000
  S   S126      1.0  0.26343  0.66594  0.64476  1.0000
  C   C477      1.0  0.05717  0.80135  0.55853  1.0000
  H   H573      1.0  0.04856  0.81655  0.56781  1.0000
  H   H574      1.0  0.39106  0.76873  0.96001  1.0000
  C   C478      1.0  0.46351  0.95525  0.92169  1.0000
  H   H575      1.0  0.39214  0.67606  0.82649  1.0000
  H   H576      1.0  0.16287  0.84663  0.49867  1.0000
  H   H577      1.0  0.45881  0.96647  0.88071  1.0000
  H   H578      1.0  0.47240  0.94712  0.96271  1.0000
  H   H579      1.0  0.08179  0.84410  0.98236  1.0000
  H   H580      1.0  0.01915  0.86119  0.96122  1.0000
  H   H581      1.0  0.00941  0.69405  0.80036  1.0000
  C   C479      1.0  0.47610  0.95816  0.94546  1.0000
  H   H582      1.0  0.15051  0.87514  0.50566  1.0000
  C   C480      1.0  0.10871  0.89767  0.49396  1.0000
  H   H583      1.0  0.53965  0.09087  0.32574  1.0000
  S   S127      1.0  0.62044  0.29264  0.29810  1.0000
  H   H584      1.0  0.56364  0.14651  0.99727  1.0000
  S   S128      1.0  0.53120  0.15264  0.09554  1.0000
  H   H585      1.0  0.50260  0.08537  0.44062  1.0000
  S   S129      1.0  0.50888  0.10074  0.10875  1.0000
  Fe  Fe65      1.0  0.51398  0.13504  0.13123  1.0000
  S   S130      1.0  0.52369  0.14465  0.17502  1.0000
  Fe  Fe66      1.0  0.52299  0.11964  0.07200  1.0000
  S   S131      1.0  0.55018  0.10294  0.04305  1.0000
  Fe  Fe67      1.0  0.62862  0.16023  0.34054  1.0000
  S   S132      1.0  0.61583  0.12356  0.34624  1.0000
  S   S133      1.0  0.66475  0.17247  0.32897  1.0000
  Fe  Fe68      1.0  0.58040  0.18117  0.35168  1.0000
  S   S134      1.0  0.56379  0.14614  0.35829  1.0000
  S   S135      1.0  0.56195  0.21580  0.35841  1.0000
  Fe  Fe69      1.0  0.59645  0.13826  0.38255  1.0000
  S   S136      1.0  0.60058  0.11939  0.42292  1.0000
  Fe  Fe70      1.0  0.58463  0.13517  0.32112  1.0000
  S   S137      1.0  0.57343  0.11209  0.28545  1.0000
  S   S138      1.0  0.61142  0.17406  0.37816  1.0000
  S   S139      1.0  0.59896  0.17085  0.31332  1.0000
  S   S140      1.0  0.91662  0.29851  0.09076  1.0000
  S   S141      1.0  0.85843  0.29303  0.37155  1.0000
  Fe  Fe71      1.0  0.83560  0.13208  0.32928  1.0000
  S   S142      1.0  0.79995  0.14518  0.31677  1.0000
  S   S143      1.0  0.86559  0.12307  0.29988  1.0000
  Fe  Fe72      1.0  0.82501  0.14145  0.39064  1.0000
  S   S144      1.0  0.78897  0.15579  0.38175  1.0000
  S   S145      1.0  0.84148  0.14544  0.43249  1.0000
  Fe  Fe73      1.0  0.78663  0.12564  0.35282  1.0000
  S   S146      1.0  0.75286  0.10587  0.35193  1.0000
  Fe  Fe74      1.0  0.80557  0.17397  0.34675  1.0000
  S   S147      1.0  0.79404  0.21029  0.33477  1.0000
  S   S148      1.0  0.82197  0.10970  0.36355  1.0000
  S   S149      1.0  0.84201  0.16223  0.35742  1.0000
  Fe  Fe75      1.0  0.93352  0.16050  0.11232  1.0000
  S   S150      1.0  0.89471  0.15908  0.10639  1.0000
  S   S151      1.0  0.95477  0.19415  0.11631  1.0000
  Fe  Fe76      1.0  0.93923  0.10605  0.11277  1.0000
  S   S152      1.0  0.90012  0.10150  0.10776  1.0000
  C   C481      1.0  0.56356  0.29716  0.25625  1.0000
  Fe  Fe77      1.0  0.90188  0.12986  0.07623  1.0000
  S   S153      1.0  0.89078  0.13061  0.03161  1.0000
  Fe  Fe78      1.0  0.89604  0.13091  0.13861  1.0000
  S   S154      1.0  0.86717  0.13473  0.17100  1.0000
  S   S155      1.0  0.94085  0.13340  0.08018  1.0000
  S   S156      1.0  0.93490  0.13346  0.14580  1.0000
  C   C482      1.0  0.53654  0.09098  0.36924  1.0000
  C   C483      1.0  0.52870  0.29267  0.32888  1.0000
  C   C484      1.0  0.84030  0.14938  0.48788  1.0000
  H   H586      1.0  0.72614  0.12423  0.48432  1.0000
  C   C485      1.0  0.83102  0.13789  0.46524  1.0000
  C   C486      1.0  0.81527  0.11968  0.46943  1.0000
  C   C487      1.0  0.85476  0.32549  0.44492  1.0000
  H   H587      1.0  0.86446  0.28507  0.20671  1.0000
  H   H588      1.0  0.80759  0.11091  0.45237  1.0000
  H   H589      1.0  0.52809  0.32506  0.38604  1.0000
  C   C488      1.0  0.86560  0.12606  0.26398  1.0000
  C   C489      1.0  0.88691  0.12352  0.24968  1.0000
  C   C490      1.0  0.88780  0.12605  0.22130  1.0000
  C   C491      1.0  0.86731  0.13111  0.20678  1.0000
  C   C492      1.0  0.84603  0.13378  0.22112  1.0000
  C   C493      1.0  0.84514  0.13125  0.24947  1.0000
  H   H590      1.0  0.90286  0.11944  0.26061  1.0000
  H   H591      1.0  0.90430  0.12391  0.21063  1.0000
  H   H592      1.0  0.83004  0.13757  0.21013  1.0000
  H   H593      1.0  0.82855  0.13300  0.26001  1.0000
  C   C494      1.0  0.84027  0.26970  0.36318  1.0000
  C   C495      1.0  0.84885  0.24655  0.36422  1.0000
  C   C496      1.0  0.83458  0.22807  0.35607  1.0000
  C   C497      1.0  0.81193  0.23277  0.34644  1.0000
  C   C498      1.0  0.80336  0.25591  0.34570  1.0000
  C   C499      1.0  0.81732  0.27425  0.35457  1.0000
  H   H594      1.0  0.86656  0.24293  0.37098  1.0000
  H   H595      1.0  0.84136  0.21035  0.35681  1.0000
  H   H596      1.0  0.78587  0.25969  0.33829  1.0000
  H   H597      1.0  0.81026  0.29191  0.35442  1.0000
  C   C500      1.0  0.92732  0.26982  0.09938  1.0000
  C   C501      1.0  0.94904  0.26584  0.11180  1.0000
  C   C502      1.0  0.95716  0.24264  0.11688  1.0000
  C   C503      1.0  0.94360  0.22313  0.10993  1.0000
  C   C504      1.0  0.92170  0.22716  0.09799  1.0000
  C   C505      1.0  0.91373  0.25032  0.09258  1.0000
  H   H598      1.0  0.95985  0.28059  0.11693  1.0000
  H   H599      1.0  0.97414  0.23978  0.12610  1.0000
  H   H600      1.0  0.91102  0.21241  0.09251  1.0000
  H   H601      1.0  0.89694  0.25306  0.08290  1.0000
  C   C506      1.0  0.68892  0.15385  0.33645  1.0000
  C   C507      1.0  0.71165  0.16234  0.33314  1.0000
  C   C508      1.0  0.73129  0.14790  0.33863  1.0000
  C   C509      1.0  0.72832  0.12460  0.34672  1.0000
  C   C510      1.0  0.70559  0.11603  0.34987  1.0000
  C   C511      1.0  0.68591  0.13070  0.34503  1.0000
  H   H602      1.0  0.71417  0.18003  0.32597  1.0000
  H   H603      1.0  0.74873  0.15464  0.33595  1.0000
  H   H604      1.0  0.70321  0.09804  0.35613  1.0000
  H   H605      1.0  0.66849  0.12398  0.34772  1.0000
  C   C512      1.0  0.59329  0.13083  0.45540  1.0000
  C   C513      1.0  0.57709  0.14939  0.45892  1.0000
  N   N33       1.0  0.52238  0.17503  0.99878  1.0000
  C   C514      1.0  0.98992  0.05950  0.11627  1.0000
  H   H606      1.0  0.53393  0.27523  0.32199  1.0000
  H   H607      1.0  0.56991  0.15837  0.44150  1.0000
  C   C515      1.0  0.88178  0.10327  0.46647  1.0000
  C   C516      1.0  0.53841  0.13512  0.20503  1.0000
  C   C517      1.0  0.54651  0.11197  0.20880  1.0000
  C   C518      1.0  0.55721  0.10526  0.23344  1.0000
  C   C519      1.0  0.56019  0.12158  0.25454  1.0000
  C   C520      1.0  0.55226  0.14474  0.25065  1.0000
  C   C521      1.0  0.54133  0.15137  0.22618  1.0000
  H   H608      1.0  0.54441  0.09921  0.19284  1.0000
  H   H609      1.0  0.56322  0.08728  0.23615  1.0000
  H   H610      1.0  0.55428  0.15753  0.26661  1.0000
  H   H611      1.0  0.53507  0.16929  0.22362  1.0000
  H   H612      1.0  0.75961  0.05864  0.99808  1.0000
  H   H613      1.0  0.97884  0.14753  0.11736  1.0000
  C   C522      1.0  0.74071  0.13578  0.48714  1.0000
  C   C523      1.0  0.60339  0.27169  0.31445  1.0000
  C   C524      1.0  0.59923  0.25020  0.30187  1.0000
  C   C525      1.0  0.58605  0.23319  0.31514  1.0000
  C   C526      1.0  0.57722  0.23753  0.34111  1.0000
  C   C527      1.0  0.58123  0.25911  0.35360  1.0000
  C   C528      1.0  0.59427  0.27620  0.34027  1.0000
  H   H614      1.0  0.60609  0.24675  0.28182  1.0000
  H   H615      1.0  0.58235  0.21689  0.30506  1.0000
  H   H616      1.0  0.57471  0.26240  0.37383  1.0000
  H   H617      1.0  0.59772  0.29261  0.35034  1.0000
  H   H618      1.0  0.55965  0.29892  0.00575  1.0000
  H   H619      1.0  0.51969  0.09993  0.36832  1.0000
  H   H620      1.0  0.49729  0.14737  0.00026  1.0000
  H   H621      1.0  0.57895  0.07213  0.32539  1.0000
  C   C529      1.0  0.72740  0.11591  0.27938  1.0000
  H   H622      1.0  0.86299  0.29655  0.01056  1.0000
  C   C530      1.0  0.72040  0.13864  0.27232  1.0000
  H   H623      1.0  0.56094  0.26050  0.24705  1.0000
  H   H624      1.0  0.73304  0.15260  0.27305  1.0000
  N   N34       1.0  0.67023  0.25122  0.34837  1.0000
  C   C531      1.0  0.66696  0.24384  0.31996  1.0000
  H   H625      1.0  0.93556  0.06457  0.04704  1.0000
  C   C532      1.0  0.66255  0.27625  0.35088  1.0000
  C   C533      1.0  0.69514  0.24720  0.35581  1.0000
  C   C534      1.0  0.71120  0.26587  0.35874  1.0000
  H   H626      1.0  0.67103  0.22478  0.31704  1.0000
  H   H627      1.0  0.64855  0.24692  0.31324  1.0000
  H   H628      1.0  0.67851  0.25379  0.30608  1.0000
  C   C535      1.0  0.65450  0.23719  0.36581  1.0000
  H   H629      1.0  0.63562  0.24132  0.36182  1.0000
  H   H630      1.0  0.64089  0.10428  0.28665  1.0000
  H   H631      1.0  0.66608  0.28326  0.37141  1.0000
  H   H632      1.0  0.67108  0.28756  0.33553  1.0000
  H   H633      1.0  0.64342  0.27861  0.34738  1.0000
  H   H634      1.0  0.70613  0.28409  0.35612  1.0000
  H   H635      1.0  0.92886  0.28173  0.19197  1.0000
  N   N35       1.0  0.85982  0.20094  0.27762  1.0000
  C   C536      1.0  0.86070  0.19726  0.24797  1.0000
  C   C537      1.0  0.88118  0.18966  0.28936  1.0000
  C   C538      1.0  0.83930  0.18854  0.28875  1.0000
  C   C539      1.0  0.85750  0.22640  0.28361  1.0000
  C   C540      1.0  0.87485  0.23904  0.29786  1.0000
  C   C541      1.0  0.83720  0.23931  0.27537  1.0000
  C   C542      1.0  0.87170  0.26294  0.30377  1.0000
  C   C543      1.0  0.83420  0.26316  0.28155  1.0000
  C   C544      1.0  0.85140  0.27494  0.29577  1.0000
  H   H636      1.0  0.87545  0.20693  0.23867  1.0000
  H   H637      1.0  0.86326  0.17831  0.24275  1.0000
  H   H638      1.0  0.84423  0.20317  0.23793  1.0000
  H   H639      1.0  0.89749  0.19721  0.28095  1.0000
  H   H640      1.0  0.88220  0.17047  0.28484  1.0000
  H   H641      1.0  0.88123  0.19122  0.31179  1.0000
  H   H642      1.0  0.82259  0.19336  0.27856  1.0000
  H   H643      1.0  0.84133  0.16914  0.28689  1.0000
  H   H644      1.0  0.83688  0.19268  0.31051  1.0000
  H   H645      1.0  0.89071  0.23078  0.30535  1.0000
  H   H646      1.0  0.82315  0.23086  0.26477  1.0000
  H   H647      1.0  0.88462  0.27210  0.31565  1.0000
  H   H648      1.0  0.81811  0.27241  0.27610  1.0000
  H   H649      1.0  0.84871  0.29323  0.30139  1.0000
  H   H650      1.0  0.65788  0.24055  0.38756  1.0000
  C   C545      1.0  0.54782  0.08595  0.34473  1.0000
  H   H651      1.0  0.85686  0.32528  0.42253  1.0000
  H   H652      1.0  0.55660  0.16990  0.48758  1.0000
  H   H653      1.0  0.65897  0.16214  0.23608  1.0000
  H   H654      1.0  0.84780  0.31383  0.03575  1.0000
  C   C546      1.0  0.86689  0.22015  0.17372  1.0000
  C   C547      1.0  0.91746  0.28975  0.17617  1.0000
  H   H655      1.0  0.84823  0.05440  0.47202  1.0000
  C   C548      1.0  0.51155  0.08171  0.42098  1.0000
  H   H656      1.0  0.86033  0.28955  0.15770  1.0000
  H   H657      1.0  0.83223  0.06467  0.43182  1.0000
  C   C549      1.0  0.49782  0.16689  0.99973  1.0000
  H   H658      1.0  0.51632  0.29329  0.14395  1.0000
  H   H659      1.0  0.74534  0.11229  0.28561  1.0000
  H   H660      1.0  0.76148  0.23506  0.37258  1.0000
  H   H661      1.0  0.91173  0.30826  0.03356  1.0000
  C   C550      1.0  0.86908  0.24448  0.17664  1.0000
  C   C551      1.0  0.54726  0.28214  0.21465  1.0000
  C   C552      1.0  0.54280  0.30532  0.20492  1.0000
  C   C553      1.0  0.88663  0.20594  0.16894  1.0000
  H   H662      1.0  0.56439  0.30021  0.04103  1.0000
  H   H663      1.0  0.53357  0.14982  0.02878  1.0000
  N   N36       1.0  0.85443  0.30136  0.45634  1.0000
  C   C554      1.0  0.53336  0.16911  0.02511  1.0000
  N   N37       1.0  0.89305  0.28116  0.17792  1.0000
  H   H664      1.0  0.55055  0.06416  0.44438  1.0000
  C   C555      1.0  0.54722  0.08545  0.39437  1.0000
  H   H665      1.0  0.52124  0.12531  0.40591  1.0000
  H   H666      1.0  0.92389  0.20490  0.16279  1.0000
  H   H667      1.0  0.89651  0.05157  0.43223  1.0000
  H   H668      1.0  0.85689  0.26273  0.48959  1.0000
  H   H669      1.0  0.90451  0.30609  0.99864  1.0000
  H   H670      1.0  0.61493  0.10509  0.47594  1.0000
  H   H671      1.0  0.83414  0.28954  0.42243  1.0000
  C   C556      1.0  0.84316  0.07674  0.41978  1.0000
  H   H672      1.0  0.71663  0.08048  0.28562  1.0000
  H   H673      1.0  0.83317  0.27063  0.45105  1.0000
  C   C557      1.0  0.60249  0.11954  0.47839  1.0000
  H   H674      1.0  0.52361  0.17737  0.04229  1.0000
  C   C558      1.0  0.83386  0.28937  0.44493  1.0000
  C   C559      1.0  0.68776  0.10279  0.27260  1.0000
  H   H675      1.0  0.77982  0.16399  0.44707  1.0000
  H   H676      1.0  0.74590  0.13779  0.44395  1.0000
  H   H677      1.0  0.54018  0.20777  0.99488  1.0000
  H   H678      1.0  0.57990  0.07062  0.41130  1.0000
  H   H679      1.0  0.88487  0.18710  0.16630  1.0000
  H   H680      1.0  0.62912  0.12017  0.23025  1.0000
  H   H681      1.0  0.96974  0.12041  0.00310  1.0000
  Fe  Fe79      1.0  0.83692  0.32612  0.36741  1.0000
  C   C560      1.0  0.87490  0.11101  0.01071  1.0000
  H   H682      1.0  0.53849  0.08838  0.46346  1.0000
  C   C561      1.0  0.59631  0.20688  0.46083  1.0000
  H   H683      1.0  0.98727  0.11714  0.11778  1.0000
  C   C562      1.0  0.64787  0.11676  0.23559  1.0000
  H   H684      1.0  0.63020  0.15864  0.24978  1.0000
  H   H685      1.0  0.64971  0.09752  0.23898  1.0000
  H   H686      1.0  0.65884  0.12119  0.21773  1.0000
  N   N38       1.0  0.53529  0.09192  0.42005  1.0000
  C   C563      1.0  0.57006  0.07543  0.34447  1.0000
  H   H687      1.0  0.62134  0.12821  0.27989  1.0000
  C   C564      1.0  0.56958  0.15593  0.48511  1.0000
  C   C565      1.0  0.88346  0.28852  0.20460  1.0000
  C   C566      1.0  0.69700  0.14371  0.26575  1.0000
  C   C567      1.0  0.87616  0.28899  0.44698  1.0000
  H   H688      1.0  0.52596  0.12386  0.44166  1.0000
  H   H689      1.0  0.56616  0.31065  0.15827  1.0000
  C   C568      1.0  0.57059  0.30738  0.02133  1.0000
  C   C569      1.0  0.57203  0.24200  0.46200  1.0000
  C   C570      1.0  0.55747  0.27826  0.23999  1.0000
  H   H690      1.0  0.69270  0.16187  0.26155  1.0000
  H   H691      1.0  0.52518  0.22053  0.09617  1.0000
  N   N39       1.0  0.65482  0.13056  0.25958  1.0000
  C   C571      1.0  0.64020  0.12350  0.28288  1.0000
  C   C572      1.0  0.64922  0.15570  0.25400  1.0000
  C   C573      1.0  0.90453  0.31841  0.01610  1.0000
  H   H692      1.0  0.64615  0.13235  0.30158  1.0000
  H   H693      1.0  0.65329  0.16696  0.27175  1.0000
  S   S157      1.0  0.96277  0.07302  0.10614  1.0000
  C   C574      1.0  0.86942  0.08334  0.45732  1.0000
  C   C575      1.0  0.71113  0.09802  0.27949  1.0000
  C   C576      1.0  0.51466  0.23513  0.08872  1.0000
  H   H694      1.0  0.88529  0.30776  0.20787  1.0000
  C   C577      1.0  0.67989  0.12585  0.26576  1.0000
  H   H695      1.0  0.88099  0.31265  0.15764  1.0000
  H   H696      1.0  0.89193  0.29646  0.45668  1.0000
  H   H697      1.0  0.51290  0.10685  0.00216  1.0000
  H   H698      1.0  0.53972  0.27683  0.15867  1.0000
  C   C578      1.0  0.85821  0.06962  0.47736  1.0000
  H   H699      1.0  0.55034  0.12611  0.41886  1.0000
  H   H700      1.0  0.85255  0.16341  0.48492  1.0000
  C   C579      1.0  0.53087  0.29854  0.35604  1.0000
  H   H701      1.0  0.67578  0.08835  0.27327  1.0000
  H   H702      1.0  0.89018  0.11526  0.45281  1.0000
  H   H703      1.0  0.84978  0.21219  0.17471  1.0000
  C   C580      1.0  0.54801  0.08358  0.44449  1.0000
  C   C581      1.0  0.54851  0.09501  0.00819  1.0000
  H   H704      1.0  0.92045  0.09036  0.01076  1.0000
  C   C582      1.0  0.70439  0.22400  0.35872  1.0000
  H   H705      1.0  0.69355  0.20887  0.35575  1.0000
  C   C583      1.0  0.73479  0.26144  0.36488  1.0000
  H   H706      1.0  0.57168  0.29414  0.27574  1.0000
  H   H707      1.0  0.91814  0.30917  0.17908  1.0000
  H   H708      1.0  0.89283  0.27934  0.22133  1.0000
  H   H709      1.0  0.93937  0.02176  0.03949  1.0000
  C   C584      1.0  0.58324  0.22411  0.44735  1.0000
  H   H710      1.0  0.92532  0.28619  0.15595  1.0000
  C   C585      1.0  0.84961  0.07754  0.00376  1.0000
  H   H711      1.0  0.53784  0.28566  0.37013  1.0000
  S   S158      1.0  0.51941  0.30680  0.08847  1.0000
  C   C586      1.0  0.93277  0.03294  0.02339  1.0000
  H   H712      1.0  0.87854  0.29049  0.42469  1.0000
  H   H713      1.0  0.84141  0.07134  0.39828  1.0000
  C   C587      1.0  0.89126  0.25535  0.17480  1.0000
  H   H714      1.0  0.87605  0.26984  0.45116  1.0000
  H   H715      1.0  0.74677  0.27595  0.36678  1.0000
  H   H716      1.0  0.86253  0.08890  0.04269  1.0000
  H   H717      1.0  0.53818  0.26149  0.10343  1.0000
  C   C588      1.0  0.87934  0.29318  0.15642  1.0000
  H   H718      1.0  0.58403  0.08135  0.00719  1.0000
  N   N40       1.0  0.53249  0.31028  0.17804  1.0000
  C   C589      1.0  0.91103  0.24033  0.16978  1.0000
  H   H719      1.0  0.92855  0.24690  0.16737  1.0000
  C   C590      1.0  0.72801  0.21978  0.36487  1.0000
  C   C591      1.0  0.74314  0.23846  0.36807  1.0000
  H   H720      1.0  0.65641  0.21796  0.36215  1.0000
  C   C592      1.0  0.59823  0.20742  0.48900  1.0000
  H   H721      1.0  0.85323  0.25478  0.17998  1.0000
  H   H722      1.0  0.83975  0.06325  0.01220  1.0000
  C   C593      1.0  0.98303  0.14762  0.02869  1.0000
  C   C594      1.0  0.56836  0.08475  0.99547  1.0000
  C   C595      1.0  0.52205  0.20098  0.99617  1.0000
  C   C596      1.0  0.53298  0.11787  0.42173  1.0000
  C   C597      1.0  0.90862  0.21602  0.16704  1.0000
  H   H723      1.0  0.57732  0.32105  0.46251  1.0000
  H   H724      1.0  0.88560  0.28755  0.13603  1.0000
  C   C598      1.0  0.58109  0.06984  0.36871  1.0000
  H   H725      1.0  0.54320  0.26669  0.20304  1.0000
  C   C599      1.0  0.87817  0.05265  0.42463  1.0000
  H   H726      1.0  0.59868  0.06225  0.36845  1.0000
  H   H727      1.0  0.81717  0.29816  0.45157  1.0000
  C   C600      1.0  0.50861  0.27782  0.08332  1.0000
  C   C601      1.0  0.92616  0.02315  0.99866  1.0000
  C   C602      1.0  0.77089  0.15842  0.46530  1.0000
  C   C603      1.0  0.75188  0.14352  0.46364  1.0000
  C   C604      1.0  0.86251  0.09207  0.02115  1.0000
  C   C605      1.0  0.56994  0.07470  0.39336  1.0000
  H   H728      1.0  0.89983  0.09295  0.41478  1.0000
  H   H729      1.0  0.58157  0.22342  0.42551  1.0000
  C   C606      1.0  0.49399  0.23077  0.07457  1.0000
  H   H730      1.0  0.87847  0.04740  0.40294  1.0000
  H   H731      1.0  0.73479  0.20190  0.36669  1.0000
  C   C607      1.0  0.54930  0.32407  0.22205  1.0000
  H   H732      1.0  0.86797  0.03910  0.43542  1.0000
  C   C608      1.0  0.88079  0.09263  0.41006  1.0000
  H   H733      1.0  0.56175  0.25531  0.45143  1.0000
  H   H734      1.0  0.56546  0.09176  0.44628  1.0000
  C   C609      1.0  0.98581  0.10629  0.03894  1.0000
  N   N41       1.0  0.86803  0.07663  0.42844  1.0000
  H   H735      1.0  0.55162  0.17552  0.02641  1.0000
  H   H736      1.0  0.87351  0.11092  0.41120  1.0000
  H   H737      1.0  0.83518  0.09466  0.42180  1.0000
  H   H738      1.0  0.87921  0.08726  0.38850  1.0000
  C   C610      1.0  0.52472  0.28889  0.16364  1.0000
  C   C611      1.0  0.52198  0.25846  0.09282  1.0000
  H   H739      1.0  0.58910  0.30138  0.01823  1.0000
  H   H740      1.0  0.51940  0.30503  0.28933  1.0000
  H   H741      1.0  0.98189  0.08823  0.03394  1.0000
  C   C612      1.0  0.55012  0.32188  0.16077  1.0000
  H   H742      1.0  0.87317  0.29692  0.04494  1.0000
  C   C613      1.0  0.86545  0.30801  0.02852  1.0000
  C   C614      1.0  0.55943  0.32002  0.24732  1.0000
  H   H743      1.0  0.60469  0.19273  0.44940  1.0000
  C   C615      1.0  0.93073  0.05708  0.02769  1.0000
  H   H744      1.0  0.49976  0.08901  0.40515  1.0000
  H   H745      1.0  0.51256  0.06230  0.41819  1.0000
  H   H746      1.0  0.97697  0.16168  0.01555  1.0000
  H   H747      1.0  0.92815  0.00433  0.99682  1.0000
  H   H748      1.0  0.51320  0.20959  0.01388  1.0000
  C   C616      1.0  0.97891  0.12437  0.02164  1.0000
  H   H749      1.0  0.49884  0.31930  0.19552  1.0000
  C   C617      1.0  0.52051  0.30946  0.31057  1.0000
  C   C618      1.0  0.52485  0.32116  0.36503  1.0000
  H   H750      1.0  0.76617  0.02773  0.99557  1.0000
  H   H751      1.0  0.70648  0.32176  0.32905  1.0000
  Fe  Fe80      1.0  0.49503  0.16529  0.08410  1.0000
  H   H752      1.0  0.98649  0.03096  0.08798  1.0000
  C   C619      1.0  0.92221  0.07158  0.00721  1.0000
  H   H753      1.0  0.51147  0.27924  0.17561  1.0000
  C   C620      1.0  0.85294  0.30086  0.48623  1.0000
  C   C621      1.0  0.52837  0.09920  0.99272  1.0000
  C   C622      1.0  0.77888  0.16563  0.49045  1.0000
  H   H754      1.0  0.79407  0.17673  0.49165  1.0000
  C   C623      1.0  0.57380  0.24270  0.49017  1.0000
  H   H755      1.0  0.54307  0.32586  0.14027  1.0000
  H   H756      1.0  0.64927  0.05365  0.80875  1.0000
  Fe  Fe81      1.0  0.57980  0.01248  0.85998  1.0000
  S   S159      1.0  0.55966  0.04549  0.84881  1.0000
  Fe  Fe82      1.0  0.62429  0.04022  0.87536  1.0000
  S   S160      1.0  0.60548  0.07451  0.86671  1.0000
  S   S161      1.0  0.66189  0.04726  0.88955  1.0000
  Fe  Fe83      1.0  0.57408  0.05991  0.88794  1.0000
  S   S162      1.0  0.54769  0.07860  0.91650  1.0000
  Fe  Fe84      1.0  0.59322  0.05721  0.82848  1.0000
  S   S163      1.0  0.60525  0.07821  0.79131  1.0000
  S   S164      1.0  0.59351  0.02684  0.89942  1.0000
  S   S165      1.0  0.61258  0.02300  0.83695  1.0000
  Fe  Fe85      1.0  0.61238  0.17396  0.62205  1.0000
  S   S166      1.0  0.57526  0.16190  0.61886  1.0000
  S   S167      1.0  0.62661  0.20980  0.63070  1.0000
  Fe  Fe86      1.0  0.63236  0.12664  0.60569  1.0000
  S   S168      1.0  0.59706  0.11064  0.60041  1.0000
  S   S169      1.0  0.66660  0.10734  0.60037  1.0000
  Fe  Fe87      1.0  0.58743  0.14479  0.57981  1.0000
  S   S170      1.0  0.56784  0.15254  0.54055  1.0000
  Fe  Fe88      1.0  0.58846  0.12886  0.64002  1.0000
  S   S171      1.0  0.56956  0.10833  0.67327  1.0000
  S   S172      1.0  0.62364  0.15895  0.58218  1.0000
  S   S173      1.0  0.62457  0.14262  0.64609  1.0000
  S   S174      1.0  0.86476  0.30176  0.64551  1.0000
  Fe  Fe89      1.0  0.78478  0.15608  0.63083  1.0000
  S   S175      1.0  0.79172  0.11769  0.62349  1.0000
  S   S176      1.0  0.74900  0.17341  0.63394  1.0000
  Fe  Fe90      1.0  0.83620  0.16683  0.63084  1.0000
  S   S177      1.0  0.84659  0.12907  0.62288  1.0000
  S   S178      1.0  0.86682  0.19048  0.63754  1.0000
  Fe  Fe91      1.0  0.81750  0.12989  0.59222  1.0000
  S   S179      1.0  0.81464  0.11157  0.55121  1.0000
  Fe  Fe92      1.0  0.81980  0.12091  0.65503  1.0000
  S   S180      1.0  0.82765  0.09258  0.68691  1.0000
  S   S181      1.0  0.80907  0.16825  0.59808  1.0000
  S   S182      1.0  0.81103  0.15867  0.66431  1.0000
  Fe  Fe93      1.0  0.85566  0.02003  0.87010  1.0000
  S   S183      1.0  0.85903  0.05906  0.87766  1.0000
  Fe  Fe94      1.0  0.80101  0.02497  0.87163  1.0000
  S   S184      1.0  0.80190  0.06347  0.88048  1.0000
  H   H757      1.0  0.87339  0.02901  0.96242  1.0000
  Fe  Fe95      1.0  0.82953  0.06399  0.84755  1.0000
  S   S185      1.0  0.82626  0.09380  0.81648  1.0000
  Fe  Fe96      1.0  0.83129  0.05489  0.90952  1.0000
  S   S186      1.0  0.83169  0.06314  0.95499  1.0000
  S   S187      1.0  0.82790  0.02551  0.83774  1.0000
  S   S188      1.0  0.82858  0.01591  0.90277  1.0000
  C   C624      1.0  0.84924  0.08142  0.97568  1.0000
  H   H758      1.0  0.89176  0.12455  0.50044  1.0000
  C   C625      1.0  0.78683  0.25555  0.59474  1.0000
  N   N42       1.0  0.51907  0.00566  0.92586  1.0000
  C   C626      1.0  0.74850  0.14276  0.51317  1.0000
  C   C627      1.0  0.74797  0.26454  0.65107  1.0000
  H   H759      1.0  0.56525  0.22154  0.56841  1.0000
  C   C628      1.0  0.82491  0.09287  0.72293  1.0000
  C   C629      1.0  0.82998  0.07212  0.73743  1.0000
  C   C630      1.0  0.82958  0.07179  0.76598  1.0000
  C   C631      1.0  0.82447  0.09240  0.78050  1.0000
  C   C632      1.0  0.81881  0.11300  0.76602  1.0000
  C   C633      1.0  0.81873  0.11320  0.73748  1.0000
  H   H760      1.0  0.83463  0.05622  0.72650  1.0000
  H   H761      1.0  0.83396  0.05578  0.77672  1.0000
  H   H762      1.0  0.81464  0.12900  0.77697  1.0000
  H   H763      1.0  0.81407  0.12916  0.72684  1.0000
  C   C634      1.0  0.81967  0.12343  0.51852  1.0000
  C   C635      1.0  0.75615  0.07091  0.81146  1.0000
  C   C636      1.0  0.91191  0.00177  0.94920  1.0000
  H   H764      1.0  0.84216  0.15109  0.53154  1.0000
  C   C637      1.0  0.86360  0.27088  0.64272  1.0000
  C   C638      1.0  0.84268  0.25874  0.63863  1.0000
  C   C639      1.0  0.84318  0.23390  0.63689  1.0000
  C   C640      1.0  0.86455  0.22140  0.63918  1.0000
  C   C641      1.0  0.88522  0.23370  0.64314  1.0000
  C   C642      1.0  0.88475  0.25821  0.64490  1.0000
  H   H765      1.0  0.82627  0.26845  0.63698  1.0000
  H   H766      1.0  0.82722  0.22436  0.63392  1.0000
  H   H767      1.0  0.90177  0.22420  0.64486  1.0000
  H   H768      1.0  0.90094  0.26740  0.64800  1.0000
  C   C643      1.0  0.68882  0.12549  0.61209  1.0000
  C   C644      1.0  0.71098  0.11581  0.61751  1.0000
  C   C645      1.0  0.72914  0.13034  0.62578  1.0000
  C   C646      1.0  0.72549  0.15462  0.62792  1.0000
  C   C647      1.0  0.70303  0.16418  0.62354  1.0000
  C   C648      1.0  0.68468  0.14960  0.61578  1.0000
  H   H769      1.0  0.71414  0.09710  0.61532  1.0000
  H   H770      1.0  0.74588  0.12263  0.63055  1.0000
  H   H771      1.0  0.69988  0.18291  0.62554  1.0000
  H   H772      1.0  0.66752  0.15723  0.61204  1.0000
  C   C649      1.0  0.57874  0.14457  0.50808  1.0000
  H   H773      1.0  0.93037  0.99545  0.95155  1.0000
  H   H774      1.0  0.60266  0.11760  0.52207  1.0000
  C   C650      1.0  0.69042  0.03595  0.88114  1.0000
  C   C651      1.0  0.69428  0.01300  0.87170  1.0000
  C   C652      1.0  0.71741  0.00426  0.86760  1.0000
  C   C653      1.0  0.73694  0.01846  0.87225  1.0000
  C   C654      1.0  0.73299  0.04170  0.88056  1.0000
  C   C655      1.0  0.70994  0.05024  0.88538  1.0000
  H   H775      1.0  0.70880  0.11403  0.55381  1.0000
  H   H776      1.0  0.84977  0.06543  0.51963  1.0000
  H   H777      1.0  0.74773  0.05302  0.88338  1.0000
  H   H778      1.0  0.70723  0.06803  0.89261  1.0000
  C   C656      1.0  0.59415  0.08722  0.75917  1.0000
  C   C657      1.0  0.60772  0.10228  0.74312  1.0000
  C   C658      1.0  0.60029  0.10924  0.71711  1.0000
  C   C659      1.0  0.57921  0.10108  0.70658  1.0000
  C   C660      1.0  0.56558  0.08614  0.72267  1.0000
  C   C661      1.0  0.57293  0.07928  0.74879  1.0000
  H   H779      1.0  0.62406  0.10871  0.75090  1.0000
  H   H780      1.0  0.61081  0.12101  0.70524  1.0000
  H   H781      1.0  0.54922  0.07974  0.71482  1.0000
  H   H782      1.0  0.56227  0.06770  0.76076  1.0000
  C   C662      1.0  0.52837  0.09379  0.96485  1.0000
  C   C663      1.0  0.54837  0.08389  0.95205  1.0000
  C   C664      1.0  0.56828  0.07908  0.96767  1.0000
  C   C665      1.0  0.74449  0.09242  0.80815  1.0000
  H   H783      1.0  0.51287  0.09762  0.95301  1.0000
  H   H784      1.0  0.58381  0.07149  0.95823  1.0000
  H   H785      1.0  0.75465  0.10824  0.80619  1.0000
  C   C666      1.0  0.58272  0.27598  0.61307  1.0000
  C   C667      1.0  0.60709  0.27699  0.61541  1.0000
  C   C668      1.0  0.62029  0.25656  0.62103  1.0000
  C   C669      1.0  0.60929  0.23490  0.62376  1.0000
  C   C670      1.0  0.58493  0.23376  0.62100  1.0000
  C   C671      1.0  0.57163  0.25435  0.61589  1.0000
  H   H786      1.0  0.61586  0.29349  0.61289  1.0000
  H   H787      1.0  0.63913  0.25749  0.62307  1.0000
  H   H788      1.0  0.57633  0.21712  0.62331  1.0000
  H   H789      1.0  0.55277  0.25349  0.61411  1.0000
  H   H790      1.0  0.58231  0.30761  0.69558  1.0000
  H   H791      1.0  0.51238  0.20706  0.97797  1.0000
  H   H792      1.0  0.92255  0.05703  0.92750  1.0000
  H   H793      1.0  0.77520  0.07009  0.81214  1.0000
  H   H794      1.0  0.76882  0.13360  0.56261  1.0000
  H   H795      1.0  0.65819  0.03898  0.64713  1.0000
  H   H796      1.0  0.68374  0.05093  0.70320  1.0000
  H   H797      1.0  0.52861  0.03635  0.94868  1.0000
  H   H798      1.0  0.79845  0.09763  0.49887  1.0000
  H   H799      1.0  0.60792  0.05902  0.69644  1.0000
  C   C672      1.0  0.84981  0.29872  0.54350  1.0000
  C   C673      1.0  0.52291  0.01899  0.90051  1.0000
  H   H800      1.0  0.68367  0.05440  0.65839  1.0000
  C   C674      1.0  0.62811  0.07626  0.65535  1.0000
  H   H801      1.0  0.66820  0.32496  0.63335  1.0000
  H   H802      1.0  0.55657  0.00424  0.93185  1.0000
  H   H803      1.0  0.75649  0.08279  0.95761  1.0000
  C   C675      1.0  0.84764  0.32022  0.53032  1.0000
  H   H804      1.0  0.84864  0.29801  0.56538  1.0000
  H   H805      1.0  0.56458  0.13341  0.91274  1.0000
  H   H806      1.0  0.61206  0.25555  0.53301  1.0000
  C   C676      1.0  0.62106  0.04001  0.72988  1.0000
  C   C677      1.0  0.86214  0.09995  0.96513  1.0000
  N   N43       1.0  0.76096  0.04485  0.95734  1.0000
  C   C678      1.0  0.85917  0.07559  0.50473  1.0000
  C   C679      1.0  0.88285  0.10889  0.49395  1.0000
  H   H807      1.0  0.56439  0.25666  0.50065  1.0000
  C   C680      1.0  0.85463  0.27916  0.50032  1.0000
  C   C681      1.0  0.66599  0.04797  0.70989  1.0000
  C   C682      1.0  0.64053  0.03128  0.74374  1.0000
  H   H808      1.0  0.77170  0.02735  0.92052  1.0000
  H   H809      1.0  0.87853  0.02616  0.92668  1.0000
  H   H810      1.0  0.71670  0.16722  0.54085  1.0000
  C   C683      1.0  0.73574  0.03919  0.95630  1.0000
  S   S189      1.0  0.74762  0.32456  0.67120  1.0000
  H   H811      1.0  0.88241  0.05365  0.94277  1.0000
  H   H812      1.0  0.55882  0.20406  0.53929  1.0000
  C   C684      1.0  0.66544  0.05669  0.65096  1.0000
  H   H813      1.0  0.67935  0.08987  0.68562  1.0000
  H   H814      1.0  0.62335  0.21155  0.53799  1.0000
  C   C685      1.0  0.77619  0.02780  0.94236  1.0000
  H   H815      1.0  0.74274  0.16704  0.56133  1.0000
  H   H816      1.0  0.65093  0.10330  0.69116  1.0000
  H   H817      1.0  0.86006  0.16469  0.68654  1.0000
  C   C686      1.0  0.88334  0.09324  0.77399  1.0000
  C   C687      1.0  0.67309  0.08580  0.78274  1.0000
  H   H818      1.0  0.67953  0.00170  0.86849  1.0000
  H   H819      1.0  0.51015  0.17778  0.94523  1.0000
  C   C688      1.0  0.56498  0.22163  0.54592  1.0000
  C   C689      1.0  0.84921  0.32142  0.50214  1.0000
  S   S190      1.0  0.76582  0.00626  0.86806  1.0000
  H   H820      1.0  0.77502  0.00973  0.95072  1.0000
  H   H821      1.0  0.72628  0.22427  0.63812  1.0000
  C   C690      1.0  0.91713  0.03746  0.97740  1.0000
  H   H822      1.0  0.61816  0.06027  0.65019  1.0000
  H   H823      1.0  0.66708  0.06560  0.63105  1.0000
  H   H824      1.0  0.60361  0.03735  0.73804  1.0000
  C   C691      1.0  0.75965  0.29162  0.57186  1.0000
  H   H825      1.0  0.66427  0.10380  0.65834  1.0000
  C   C692      1.0  0.60534  0.20916  0.54609  1.0000
  N   N44       1.0  0.75471  0.24764  0.62940  1.0000
  H   H826      1.0  0.81297  0.26484  0.56535  1.0000
  C   C693      1.0  0.74332  0.05048  0.81415  1.0000
  C   C694      1.0  0.76897  0.04505  0.98579  1.0000
  H   H827      1.0  0.76394  0.22100  0.65884  1.0000
  H   H828      1.0  0.52747  0.00711  0.88335  1.0000
  N   N45       1.0  0.90989  0.02781  0.95094  1.0000
  H   H829      1.0  0.79497  0.03247  0.94358  1.0000
  C   C695      1.0  0.73364  0.23463  0.62109  1.0000
  C   C696      1.0  0.77163  0.23039  0.64126  1.0000
  H   H830      1.0  0.88203  0.08161  0.79125  1.0000
  H   H831      1.0  0.78909  0.29730  0.54562  1.0000
  H   H832      1.0  0.85657  0.16235  0.72222  1.0000
  H   H833      1.0  0.73796  0.22192  0.60461  1.0000
  H   H834      1.0  0.67705  0.08224  0.85107  1.0000
  C   C697      1.0  0.86087  0.15211  0.70372  1.0000
  C   C698      1.0  0.55669  0.14250  0.92990  1.0000
  C   C699      1.0  0.59569  0.25019  0.54344  1.0000
  H   H835      1.0  0.77671  0.21637  0.62654  1.0000
  H   H836      1.0  0.67460  0.03965  0.79400  1.0000
  C   C700      1.0  0.92470  0.03764  0.92919  1.0000
  H   H837      1.0  0.68205  0.06234  0.97547  1.0000
  H   H838      1.0  0.74219  0.25549  0.66980  1.0000
  H   H839      1.0  0.68072  0.07604  0.76523  1.0000
  C   C701      1.0  0.71877  0.05142  0.81357  1.0000
  H   H840      1.0  0.67732  0.10790  0.83013  1.0000
  H   H841      1.0  0.71005  0.03495  0.81651  1.0000
  H   H842      1.0  0.87400  0.11512  0.67440  1.0000
  H   H843      1.0  0.53967  0.30442  0.69663  1.0000
  H   H844      1.0  0.59918  0.25069  0.56551  1.0000
  H   H845      1.0  0.71931  0.24653  0.61384  1.0000
  C   C702      1.0  0.70630  0.07308  0.80994  1.0000
  C   C703      1.0  0.71995  0.09358  0.80746  1.0000
  C   C704      1.0  0.56637  0.13973  0.95547  1.0000
  H   H846      1.0  0.86194  0.10331  0.94364  1.0000
  H   H847      1.0  0.55636  0.32119  0.96890  1.0000
  H   H848      1.0  0.78769  0.23913  0.64862  1.0000
  C   C705      1.0  0.67128  0.08952  0.83126  1.0000
  H   H849      1.0  0.65170  0.09036  0.83156  1.0000
  H   H850      1.0  0.71174  0.11070  0.80503  1.0000
  H   H851      1.0  0.65365  0.08609  0.78039  1.0000
  H   H852      1.0  0.61651  0.08832  0.66729  1.0000
  H   H853      1.0  0.70278  0.12824  0.52250  1.0000
  N   N46       1.0  0.68034  0.07479  0.80864  1.0000
  H   H854      1.0  0.55154  0.23492  0.53971  1.0000
  C   C706      1.0  0.66870  0.05172  0.81040  1.0000
  C   C707      1.0  0.87150  0.09515  0.51300  1.0000
  H   H855      1.0  0.94359  0.03355  0.93274  1.0000
  H   H856      1.0  0.67200  0.04309  0.83017  1.0000
  H   H857      1.0  0.67849  0.10438  0.78116  1.0000
  H   H858      1.0  0.75744  0.06957  0.92472  1.0000
  C   C708      1.0  0.68702  0.03021  0.95335  1.0000
  S   S191      1.0  0.56606  0.30161  0.60643  1.0000
  C   C709      1.0  0.83440  0.14245  0.51438  1.0000
  C   C710      1.0  0.66298  0.03513  0.73368  1.0000
  H   H859      1.0  0.58279  0.31369  0.66051  1.0000
  C   C711      1.0  0.59555  0.12659  0.50459  1.0000
  H   H860      1.0  0.69705  0.99929  0.93098  1.0000
  N   N47       1.0  0.73714  0.13509  0.53854  1.0000
  C   C712      1.0  0.53655  0.15638  0.92655  1.0000
  H   H861      1.0  0.76293  0.27592  0.65646  1.0000
  H   H862      1.0  0.63810  0.02162  0.76236  1.0000
  C   C713      1.0  0.71697  0.11937  0.53428  1.0000
  C   C714      1.0  0.76421  0.26048  0.60589  1.0000
  H   H863      1.0  0.73330  0.28331  0.60057  1.0000
  H   H864      1.0  0.71798  0.15090  0.57168  1.0000
  C   C715      1.0  0.58715  0.22555  0.50457  1.0000
  H   H865      1.0  0.92000  0.14906  0.71064  1.0000
  H   H866      1.0  0.88774  0.14072  0.66170  1.0000
  H   H867      1.0  0.73315  0.27639  0.64520  1.0000
  H   H868      1.0  0.79833  0.24195  0.60257  1.0000
  C   C716      1.0  0.75073  0.27865  0.59342  1.0000
  H   H869      1.0  0.60811  0.19313  0.49809  1.0000
  H   H870      1.0  0.72392  0.07019  0.97895  1.0000
  H   H871      1.0  0.53780  0.03119  0.90240  1.0000
  H   H872      1.0  0.84672  0.13924  0.70080  1.0000
  C   C717      1.0  0.90241  0.15764  0.70837  1.0000
  C   C718      1.0  0.88802  0.12795  0.67878  1.0000
  C   C719      1.0  0.91544  0.06201  0.98246  1.0000
  N   N48       1.0  0.88397  0.13984  0.70517  1.0000
  H   H873      1.0  0.90533  0.11861  0.67812  1.0000
  H   H874      1.0  0.89928  0.16911  0.72623  1.0000
  H   H875      1.0  0.90311  0.16962  0.69056  1.0000
  C   C720      1.0  0.66173  0.09273  0.67661  1.0000
  C   C721      1.0  0.75450  0.12220  0.55548  1.0000
  S   S192      1.0  0.89231  0.00216  0.87286  1.0000
  C   C722      1.0  0.52581  0.16728  0.94885  1.0000
  H   H876      1.0  0.72252  0.10284  0.52384  1.0000
  C   C723      1.0  0.76472  0.06843  0.94547  1.0000
  C   C724      1.0  0.69478  0.05009  0.96676  1.0000
  H   H877      1.0  0.88810  0.06510  0.74554  1.0000
  C   C725      1.0  0.79551  0.26857  0.57309  1.0000
  H   H878      1.0  0.69722  0.31908  0.67037  1.0000
  H   H879      1.0  0.58201  0.26401  0.53995  1.0000
  H   H880      1.0  0.87813  0.15092  0.75890  1.0000
  C   C726      1.0  0.88506  0.03443  0.94555  1.0000
  C   C727      1.0  0.64648  0.05685  0.69504  1.0000
  H   H881      1.0  0.60645  0.21074  0.56851  1.0000
  N   N49       1.0  0.65018  0.07037  0.66991  1.0000
  C   C728      1.0  0.62384  0.05256  0.70587  1.0000
  C   C729      1.0  0.88421  0.12357  0.72852  1.0000
  H   H882      1.0  0.88866  0.09029  0.70626  1.0000
  H   H883      1.0  0.74637  0.11480  0.57398  1.0000
  H   H884      1.0  0.75252  0.03381  0.81725  1.0000
  C   C730      1.0  0.78205  0.28670  0.56182  1.0000
  C   C731      1.0  0.70322  0.01448  0.94191  1.0000
  C   C732      1.0  0.88095  0.13239  0.75516  1.0000
  C   C733      1.0  0.72833  0.15600  0.55366  1.0000
  C   C734      1.0  0.88700  0.09880  0.72568  1.0000
  H   H885      1.0  0.88420  0.12933  0.97426  1.0000
  C   C735      1.0  0.71877  0.05449  0.96844  1.0000
  H   H886      1.0  0.59992  0.19080  0.54216  1.0000
  C   C736      1.0  0.85331  0.27821  0.52853  1.0000
  H   H887      1.0  0.53898  0.30903  0.66099  1.0000
  H   H888      1.0  0.63158  0.08558  0.63605  1.0000
  N   N50       1.0  0.58843  0.22651  0.53444  1.0000
  C   C737      1.0  0.88040  0.11737  0.77746  1.0000
  C   C738      1.0  0.55563  0.15027  0.97798  1.0000
  H   H889      1.0  0.76295  0.10739  0.54408  1.0000
  H   H890      1.0  0.52903  0.15833  0.90658  1.0000
  H   H891      1.0  0.74938  0.30599  0.56326  1.0000
  H   H892      1.0  0.87683  0.12431  0.79751  1.0000
  C   C739      1.0  0.80995  0.11229  0.49591  1.0000
  C   C740      1.0  0.88671  0.08399  0.74819  1.0000
  H   H893      1.0  0.85497  0.26147  0.53886  1.0000
  H   H894      1.0  0.67813  0.02815  0.74435  1.0000
  H   H895      1.0  0.73862  0.00628  0.93293  1.0000
  S   S193      1.0  0.80006  0.31756  0.61945  1.0000
  C   C741      1.0  0.87470  0.11473  0.98258  1.0000
  H   H896      1.0  0.92005  0.03034  0.90903  1.0000
  H   H897      1.0  0.90859  0.07402  0.96742  1.0000
  H   H898      1.0  0.66839  0.02722  0.95125  1.0000
  H   H899      1.0  0.58181  0.12853  0.95803  1.0000
  H   H900      1.0  0.87154  0.10012  0.53416  1.0000
  H   H901      1.0  0.90066  0.99319  0.96456  1.0000
  H   H902      1.0  0.51352  0.01493  0.96791  1.0000
  C   C742      1.0  0.72723  0.01881  0.94319  1.0000
  C   C743      1.0  0.53477  0.16423  0.97536  1.0000
  H   H903      1.0  0.78805  0.04894  0.98718  1.0000
  H   H904      1.0  0.78369  0.07256  0.94408  1.0000
  C   C744      1.0  0.51446  0.02312  0.94763  1.0000
  H   H905      1.0  0.90607  0.99513  0.92916  1.0000
  H   H906      1.0  0.50732  0.03001  0.89505  1.0000
  C   C745      1.0  0.70305  0.32400  0.65039  1.0000
  H   H907      1.0  0.77520  0.16351  0.53311  1.0000
  Fe  Fe97      1.0  0.83283  0.32533  0.64170  1.0000
  H   H908      1.0  0.49770  0.03296  0.94407  1.0000
  C   C746      1.0  0.53860  0.31829  0.68090  1.0000
  C   C747      1.0  0.58062  0.32212  0.68072  1.0000
  H   H909      1.0  0.56211  0.31595  0.73370  1.0000
  C   C748      1.0  0.76797  0.15789  0.51407  1.0000
  Fe  Fe98      1.0  0.52772  0.39182  0.06160  1.0000
  H   H910      1.0  0.97605  0.42114  0.02516  1.0000
  S   S194      1.0  0.55520  0.40775  0.03349  1.0000
  Fe  Fe99      1.0  0.52134  0.38656  0.12403  1.0000
  H   H911      1.0  0.78835  0.44866  0.34240  1.0000
  S   S195      1.0  0.54748  0.38894  0.15871  1.0000
  H   H912      1.0  0.97443  0.41123  0.05901  1.0000
  S   S196      1.0  0.54020  0.36568  0.09215  1.0000
  S   S197      1.0  0.51106  0.41459  0.09379  1.0000
  Fe  Fe100     1.0  0.62935  0.37402  0.33704  1.0000
  S   S198      1.0  0.59338  0.38613  0.35091  1.0000
  S   S199      1.0  0.66180  0.39474  0.34555  1.0000
  S   S200      1.0  0.75219  0.32875  0.35014  1.0000
  H   H913      1.0  0.67106  0.34750  0.32651  1.0000
  Fe  Fe101     1.0  0.58109  0.37086  0.31122  1.0000
  S   S201      1.0  0.54913  0.38367  0.28747  1.0000
  Fe  Fe102     1.0  0.59082  0.34966  0.36771  1.0000
  C   C749      1.0  0.93948  0.43745  0.07626  1.0000
  S   S202      1.0  0.61744  0.36197  0.29603  1.0000
  C   C750      1.0  0.58799  0.38796  0.46317  1.0000
  Fe  Fe103     1.0  0.95066  0.38194  0.11762  1.0000
  S   S203      1.0  0.91774  0.40134  0.13105  1.0000
  Fe  Fe104     1.0  0.50713  0.34569  0.08622  1.0000
  H   H914      1.0  0.88315  0.33442  0.24572  1.0000
  S   S204      1.0  0.88967  0.35354  0.11756  1.0000
  Fe  Fe105     1.0  0.90167  0.38484  0.09388  1.0000
  S   S205      1.0  0.87683  0.40436  0.06464  1.0000
  Fe  Fe106     1.0  0.90863  0.36784  0.15348  1.0000
  S   S206      1.0  0.89493  0.35567  0.19497  1.0000
  S   S207      1.0  0.93461  0.36655  0.07989  1.0000
  S   S208      1.0  0.94279  0.34936  0.14218  1.0000
  Fe  Fe107     1.0  0.82857  0.37163  0.33672  1.0000
  H   H915      1.0  0.74880  0.46234  0.35707  1.0000
  S   S209      1.0  0.83770  0.39322  0.29909  1.0000
  Fe  Fe108     1.0  0.81995  0.36855  0.39898  1.0000
  C   C751      1.0  0.93768  0.45115  0.02874  1.0000
  S   S210      1.0  0.82536  0.38576  0.44023  1.0000
  H   H916      1.0  0.54127  0.35979  0.02294  1.0000
  Fe  Fe109     1.0  0.78740  0.34417  0.35956  1.0000
  H   H917      1.0  0.54685  0.34206  0.21584  1.0000
  S   S211      1.0  0.85162  0.36203  0.37216  1.0000
  S   S212      1.0  0.79791  0.38184  0.36403  1.0000
  C   C752      1.0  0.81561  0.37582  0.47243  1.0000
  C   C753      1.0  0.79908  0.35812  0.47517  1.0000
  H   H918      1.0  0.53548  0.33363  0.04185  1.0000
  H   H919      1.0  0.73931  0.36591  0.26216  1.0000
  H   H920      1.0  0.79163  0.35027  0.45734  1.0000
  H   H921      1.0  0.83807  0.33529  0.44894  1.0000
  C   C754      1.0  0.87898  0.36685  0.22360  1.0000
  C   C755      1.0  0.86943  0.38970  0.22470  1.0000
  C   C756      1.0  0.85687  0.39748  0.24787  1.0000
  C   C757      1.0  0.85359  0.38257  0.27022  1.0000
  C   C758      1.0  0.86302  0.35971  0.26904  1.0000
  C   C759      1.0  0.87565  0.35198  0.24598  1.0000
  H   H922      1.0  0.87182  0.40142  0.20778  1.0000
  H   H923      1.0  0.84977  0.41523  0.24852  1.0000
  H   H924      1.0  0.86085  0.34807  0.28607  1.0000
  H   H925      1.0  0.63595  0.34895  0.46429  1.0000
  C   C760      1.0  0.87747  0.40856  0.02884  1.0000
  H   H926      1.0  0.65085  0.37505  0.39980  1.0000
  H   H927      1.0  0.65892  0.40739  0.44979  1.0000
  H   H928      1.0  0.50899  0.34450  0.30394  1.0000
  C   C761      1.0  0.68705  0.37658  0.34669  1.0000
  C   C762      1.0  0.70763  0.38479  0.35853  1.0000
  C   C763      1.0  0.72784  0.37030  0.35970  1.0000
  C   C764      1.0  0.72738  0.34747  0.34925  1.0000
  H   H929      1.0  0.95038  0.40625  0.03665  1.0000
  C   C765      1.0  0.68670  0.35381  0.33614  1.0000
  H   H930      1.0  0.70791  0.40234  0.36690  1.0000
  H   H931      1.0  0.74367  0.37673  0.36884  1.0000
  H   H932      1.0  0.62993  0.35101  0.42921  1.0000
  S   S213      1.0  0.62751  0.33866  0.35671  1.0000
  C   C766      1.0  0.58105  0.35207  0.43810  1.0000
  C   C767      1.0  0.58502  0.37622  0.43841  1.0000
  H   H933      1.0  0.96361  0.47617  0.06315  1.0000
  S   S214      1.0  0.57622  0.33686  0.40758  1.0000
  H   H934      1.0  0.58529  0.38595  0.41967  1.0000
  C   C768      1.0  0.87034  0.34179  0.99931  1.0000
  C   C769      1.0  0.54709  0.38807  0.19453  1.0000
  C   C770      1.0  0.52633  0.38918  0.20968  1.0000
  C   C771      1.0  0.52720  0.38795  0.23814  1.0000
  C   C772      1.0  0.54876  0.38533  0.25167  1.0000
  C   C773      1.0  0.56946  0.38408  0.23648  1.0000
  C   C774      1.0  0.56861  0.38563  0.20812  1.0000
  C   C775      1.0  0.91331  0.45625  0.03206  1.0000
  H   H935      1.0  0.51110  0.38908  0.24972  1.0000
  H   H936      1.0  0.58617  0.38220  0.24657  1.0000
  H   H937      1.0  0.58477  0.38483  0.19660  1.0000
  H   H938      1.0  0.65420  0.33308  0.44049  1.0000
  H   H939      1.0  0.50748  0.38113  0.31908  1.0000
  C   C776      1.0  0.58068  0.34240  0.04500  1.0000
  S   S215      1.0  0.49560  0.37088  0.05314  1.0000
  C   C777      1.0  0.89961  0.46419  0.01043  1.0000
  C   C778      1.0  0.57818  0.34260  0.99499  1.0000
  H   H940      1.0  0.92539  0.42445  0.07312  1.0000
  C   C779      1.0  0.64729  0.39192  0.44995  1.0000
  H   H941      1.0  0.97173  0.44102  0.14016  1.0000
  H   H942      1.0  0.67627  0.35685  0.40496  1.0000
  C   C780      1.0  0.85818  0.41972  0.01619  1.0000
  C   C781      1.0  0.53175  0.37482  0.36350  1.0000
  H   H943      1.0  0.89035  0.33363  0.06335  1.0000
  C   C782      1.0  0.66667  0.37269  0.41275  1.0000
  C   C783      1.0  0.64451  0.34996  0.44410  1.0000
  N   N51       1.0  0.95262  0.44185  0.05085  1.0000
  S   S216      1.0  0.57572  0.33541  0.32946  1.0000
  H   H944      1.0  0.70880  0.36943  0.42900  1.0000
  S   S217      1.0  0.80700  0.33181  0.39616  1.0000
  H   H945      1.0  0.95110  0.43012  0.09231  1.0000
  H   H946      1.0  0.91717  0.33267  0.01213  1.0000
  H   H947      1.0  0.91178  0.39324  0.02214  1.0000
  C   C784      1.0  0.54347  0.34033  0.02289  1.0000
  C   C785      1.0  0.51589  0.33856  0.34709  1.0000
  H   H948      1.0  0.51650  0.34421  0.18753  1.0000
  H   H949      1.0  0.58751  0.43325  0.00099  1.0000
  C   C786      1.0  0.94742  0.45516  0.00274  1.0000
  C   C787      1.0  0.70679  0.33928  0.33752  1.0000
  H   H950      1.0  0.98262  0.45252  0.07394  1.0000
  H   H951      1.0  0.52923  0.45161  0.01053  1.0000
  C   C788      1.0  0.68087  0.36673  0.45964  1.0000
  H   H952      1.0  0.77427  0.35610  0.28523  1.0000
  C   C789      1.0  0.96381  0.41921  0.04245  1.0000
  H   H953      1.0  0.71349  0.44355  0.33860  1.0000
  H   H954      1.0  0.93151  0.45389  0.08469  1.0000
  H   H955      1.0  0.54294  0.37647  0.34518  1.0000
  C   C790      1.0  0.89674  0.40169  0.01288  1.0000
  C   C791      1.0  0.70445  0.36692  0.45005  1.0000
  H   H956      1.0  0.74124  0.36432  0.46010  1.0000
  Fe  Fe110     1.0  0.92382  0.33589  0.10583  1.0000
  H   H957      1.0  0.99148  0.47902  0.14775  1.0000
  H   H958      1.0  0.90413  0.45351  0.05089  1.0000
  H   H959      1.0  0.50524  0.35426  0.39952  1.0000
  H   H960      1.0  0.84316  0.42514  0.02825  1.0000
  Fe  Fe111     1.0  0.61262  0.32758  0.31712  1.0000
  C   C792      1.0  0.58765  0.37559  0.48769  1.0000
  H   H961      1.0  0.52823  0.39288  0.37134  1.0000
  H   H962      1.0  0.88090  0.46712  0.01320  1.0000
  H   H963      1.0  0.86949  0.33582  0.45312  1.0000
  N   N52       1.0  0.75875  0.39113  0.28535  1.0000
  C   C793      1.0  0.77287  0.37208  0.29813  1.0000
  C   C794      1.0  0.73633  0.38081  0.27644  1.0000
  C   C795      1.0  0.77144  0.39934  0.26102  1.0000
  C   C796      1.0  0.75554  0.41087  0.30464  1.0000
  C   C797      1.0  0.73308  0.41927  0.31337  1.0000
  C   C798      1.0  0.77534  0.42226  0.31545  1.0000
  C   C799      1.0  0.73081  0.43770  0.33197  1.0000
  C   C800      1.0  0.77287  0.44057  0.33414  1.0000
  C   C801      1.0  0.75065  0.44826  0.34242  1.0000
  H   H964      1.0  0.76499  0.36685  0.31769  1.0000
  H   H965      1.0  0.57377  0.33443  0.06389  1.0000
  H   H966      1.0  0.79111  0.37739  0.30227  1.0000
  H   H967      1.0  0.72637  0.37359  0.29390  1.0000
  N   N53       1.0  0.66034  0.37025  0.44174  1.0000
  H   H968      1.0  0.72504  0.39398  0.26581  1.0000
  H   H969      1.0  0.76203  0.41449  0.25151  1.0000
  H   H970      1.0  0.78955  0.40504  0.26578  1.0000
  H   H971      1.0  0.77349  0.38516  0.24564  1.0000
  H   H972      1.0  0.71692  0.41168  0.30659  1.0000
  H   H973      1.0  0.79299  0.41686  0.30982  1.0000
  H   H974      1.0  0.86506  0.35016  0.05332  1.0000
  H   H975      1.0  0.54235  0.36528  0.37895  1.0000
  H   H976      1.0  0.89335  0.35873  0.04193  1.0000
  S   S218      1.0  0.81635  0.33502  0.33030  1.0000
  C   C802      1.0  0.58406  0.35136  0.48731  1.0000
  H   H977      1.0  0.50967  0.39125  0.19951  1.0000
  H   H978      1.0  0.57801  0.36176  0.04737  1.0000
  S   S219      1.0  0.98723  0.39778  0.11147  1.0000
  H   H979      1.0  0.63238  0.39586  0.43612  1.0000
  N   N54       1.0  0.56858  0.33343  0.02066  1.0000
  H   H980      1.0  0.67748  0.38845  0.40907  1.0000
  H   H981      1.0  0.63964  0.39057  0.47061  1.0000
  C   C803      1.0  0.72338  0.36395  0.46773  1.0000
  C   C804      1.0  0.55842  0.40980  0.99783  1.0000
  C   C805      1.0  0.58049  0.33972  0.46261  1.0000
  H   H982      1.0  0.98318  0.46168  0.03963  1.0000
  C   C806      1.0  0.97127  0.45881  0.05706  1.0000
  H   H983      1.0  0.59055  0.40674  0.46336  1.0000
  C   C807      1.0  0.51800  0.45136  0.99288  1.0000
  C   C808      1.0  0.88235  0.34328  0.04611  1.0000
  H   H984      1.0  0.55571  0.33896  0.16935  1.0000
  H   H985      1.0  0.96584  0.45192  0.99876  1.0000
  H   H986      1.0  0.50258  0.32892  0.16118  1.0000
  N   N55       1.0  0.50985  0.36251  0.35707  1.0000
  C   C809      1.0  0.84771  0.35243  0.00200  1.0000
  H   H987      1.0  0.83770  0.35089  0.02046  1.0000
  C   C810      1.0  0.51432  0.33214  0.31936  1.0000
  C   C811      1.0  0.98911  0.44370  0.13205  1.0000
  H   H988      1.0  0.53288  0.33352  0.00594  1.0000
  N   N56       1.0  0.88063  0.32808  0.02191  1.0000
  C   C812      1.0  0.49659  0.37700  0.33712  1.0000
  C   C813      1.0  0.49527  0.36130  0.38196  1.0000
  C   C814      1.0  0.49585  0.44167  0.99485  1.0000
  H   H989      1.0  0.56436  0.33473  0.25994  1.0000
  H   H990      1.0  0.60158  0.36908  0.01196  1.0000
  C   C815      1.0  0.59510  0.36062  0.99403  1.0000
  C   C816      1.0  0.67757  0.36337  0.48781  1.0000
  H   H991      1.0  0.59984  0.33836  0.04426  1.0000
  C   C817      1.0  0.51173  0.32630  0.18082  1.0000
  Fe  Fe112     1.0  0.57545  0.47841  0.84240  1.0000
  S   S220      1.0  0.56809  0.43971  0.84004  1.0000
  S   S221      1.0  0.53958  0.49817  0.84137  1.0000
  Fe  Fe113     1.0  0.62837  0.46703  0.85096  1.0000
  S   S222      1.0  0.62301  0.42800  0.85077  1.0000
  S   S223      1.0  0.66496  0.48366  0.85078  1.0000
  Fe  Fe114     1.0  0.60031  0.43501  0.81436  1.0000
  S   S224      1.0  0.60450  0.40697  0.78114  1.0000
  Fe  Fe115     1.0  0.59095  0.43569  0.87652  1.0000
  S   S225      1.0  0.57285  0.41096  0.90621  1.0000
  S   S226      1.0  0.60634  0.47395  0.81355  1.0000
  S   S227      1.0  0.59780  0.47445  0.87975  1.0000
  Fe  Fe116     1.0  0.59761  0.37233  0.55813  1.0000
  H   H992      1.0  0.87446  0.36693  0.73695  1.0000
  S   S228      1.0  0.59161  0.39109  0.51823  1.0000
  Fe  Fe117     1.0  0.60303  0.38019  0.62004  1.0000
  N   N57       1.0  0.96763  0.55374  0.93556  1.0000
  S   S229      1.0  0.59827  0.40877  0.65220  1.0000
  Fe  Fe118     1.0  0.63756  0.34896  0.58846  1.0000
  H   H993      1.0  0.54960  0.48350  0.89792  1.0000
  C   C818      1.0  0.91513  0.40479  0.75820  1.0000
  S   S230      1.0  0.62625  0.38657  0.58405  1.0000
  S   S231      1.0  0.57297  0.36936  0.59360  1.0000
  H   H994      1.0  0.75278  0.33561  0.61514  1.0000
  S   S232      1.0  0.95899  0.57204  0.84941  1.0000
  Fe  Fe119     1.0  0.80583  0.45474  0.88108  1.0000
  S   S233      1.0  0.82764  0.42144  0.87924  1.0000
  S   S234      1.0  0.76683  0.44840  0.88935  1.0000
  Fe  Fe120     1.0  0.84945  0.48486  0.87170  1.0000
  S   S235      1.0  0.87333  0.45309  0.86767  1.0000
  S   S236      1.0  0.86052  0.52336  0.87538  1.0000
  Fe  Fe121     1.0  0.84431  0.43751  0.84259  1.0000
  S   S237      1.0  0.84639  0.41027  0.80852  1.0000
  Fe  Fe122     1.0  0.85451  0.43952  0.90461  1.0000
  S   S238      1.0  0.87863  0.42227  0.93651  1.0000
  S   S239      1.0  0.82164  0.47033  0.84367  1.0000
  S   S240      1.0  0.83151  0.47177  0.90946  1.0000
  Fe  Fe123     1.0  0.81702  0.37477  0.65691  1.0000
  H   H995      1.0  0.93749  0.48858  0.88955  1.0000
  S   S241      1.0  0.82632  0.40733  0.68155  1.0000
  Fe  Fe124     1.0  0.80342  0.35346  0.60080  1.0000
  H   H996      1.0  0.82071  0.37426  0.98393  1.0000
  S   S242      1.0  0.79140  0.35072  0.55667  1.0000
  C   C819      1.0  0.84991  0.36884  0.95706  1.0000
  C   C820      1.0  0.59516  0.36024  0.94512  1.0000
  C   C821      1.0  0.54440  0.47669  0.91812  1.0000
  S   S243      1.0  0.78294  0.37175  0.63429  1.0000
  S   S244      1.0  0.83793  0.36018  0.62136  1.0000
  C   C822      1.0  0.80133  0.36077  0.52461  1.0000
  C   C823      1.0  0.81802  0.37829  0.52188  1.0000
  C   C824      1.0  0.60349  0.36909  0.96939  1.0000
  H   H997      1.0  0.82534  0.38626  0.53972  1.0000
  C   C825      1.0  0.83841  0.41069  0.77380  1.0000
  C   C826      1.0  0.83263  0.38937  0.76133  1.0000
  C   C827      1.0  0.82826  0.38820  0.73337  1.0000
  C   C828      1.0  0.83013  0.40827  0.71729  1.0000
  C   C829      1.0  0.83539  0.42973  0.72986  1.0000
  C   C830      1.0  0.83933  0.43100  0.75799  1.0000
  H   H998      1.0  0.83181  0.37354  0.77333  1.0000
  H   H999      1.0  0.82368  0.37167  0.72431  1.0000
  H   H1000     1.0  0.83676  0.44542  0.71770  1.0000
  H   H1001     1.0  0.84397  0.44750  0.76719  1.0000
  H   H1002     1.0  0.98548  0.54048  0.79836  1.0000
  Fe  Fe125     1.0  0.58855  0.33292  0.59815  1.0000
  C   C831      1.0  0.87747  0.41735  0.97215  1.0000
  C   C832      1.0  0.89672  0.40610  0.98480  1.0000
  C   C833      1.0  0.94955  0.53608  0.92982  1.0000
  H   H1003     1.0  0.73421  0.35848  0.50890  1.0000
  H   H1004     1.0  0.77896  0.33724  0.50294  1.0000
  C   C834      1.0  0.93163  0.55879  0.85766  1.0000
  C   C835      1.0  0.91420  0.57020  0.87310  1.0000
  C   C836      1.0  0.89271  0.55904  0.87844  1.0000
  C   C837      1.0  0.88833  0.53628  0.86867  1.0000
  C   C838      1.0  0.90584  0.52482  0.85341  1.0000
  C   C839      1.0  0.92724  0.53604  0.84787  1.0000
  H   H1005     1.0  0.91700  0.58781  0.88044  1.0000
  H   H1006     1.0  0.87931  0.56823  0.89007  1.0000
  H   H1007     1.0  0.90279  0.50741  0.84557  1.0000
  H   H1008     1.0  0.94046  0.52700  0.83582  1.0000
  C   C840      1.0  0.55248  0.37222  0.71176  1.0000
  H   H1009     1.0  0.57058  0.36430  0.65954  1.0000
  H   H1010     1.0  0.89368  0.52171  0.94929  1.0000
  H   H1011     1.0  0.87573  0.40080  0.67154  1.0000
  S   S245      1.0  0.49351  0.60184  0.85114  1.0000
  H   H1012     1.0  0.54685  0.49144  0.93251  1.0000
  H   H1013     1.0  0.77886  0.41416  0.71101  1.0000
  H   H1014     1.0  0.66018  0.36323  0.49667  1.0000
  H   H1015     1.0  0.64651  0.43465  0.72536  1.0000
  C   C841      1.0  0.71948  0.36066  0.49525  1.0000
  S   S246      1.0  0.99201  0.63312  0.83367  1.0000
  C   C842      1.0  0.49362  0.56296  0.78230  1.0000
  H   H1016     1.0  0.98505  0.55291  0.89678  1.0000
  H   H1017     1.0  0.75557  0.49607  0.91723  1.0000
  C   C843      1.0  0.69318  0.47161  0.85911  1.0000
  C   C844      1.0  0.71343  0.48202  0.84839  1.0000
  C   C845      1.0  0.73615  0.47456  0.85644  1.0000
  C   C846      1.0  0.73890  0.45699  0.87599  1.0000
  C   C847      1.0  0.71871  0.44618  0.88616  1.0000
  C   C848      1.0  0.69604  0.45326  0.87764  1.0000
  H   H1018     1.0  0.71146  0.49633  0.83417  1.0000
  H   H1019     1.0  0.75139  0.48304  0.84828  1.0000
  H   H1020     1.0  0.72054  0.43250  0.90120  1.0000
  H   H1021     1.0  0.68072  0.44513  0.88621  1.0000
  C   C849      1.0  0.60352  0.40827  0.74526  1.0000
  C   C850      1.0  0.61001  0.38811  0.73023  1.0000
  C   C851      1.0  0.60848  0.38788  0.70179  1.0000
  C   C852      1.0  0.60030  0.40783  0.68803  1.0000
  C   C853      1.0  0.59412  0.42807  0.70300  1.0000
  C   C854      1.0  0.59570  0.42833  0.73144  1.0000
  H   H1022     1.0  0.61604  0.37250  0.74074  1.0000
  H   H1023     1.0  0.61366  0.37232  0.69060  1.0000
  H   H1024     1.0  0.58798  0.44368  0.69255  1.0000
  H   H1025     1.0  0.59064  0.44395  0.74267  1.0000
  C   C855      1.0  0.54838  0.39885  0.95186  1.0000
  C   C856      1.0  0.56665  0.41245  0.94137  1.0000
  C   C857      1.0  0.58036  0.42528  0.95922  1.0000
  H   H1026     1.0  0.61586  0.38332  0.96907  1.0000
  H   H1027     1.0  0.53770  0.38883  0.93821  1.0000
  H   H1028     1.0  0.59459  0.43564  0.95150  1.0000
  C   C858      1.0  0.55930  0.33477  0.73384  1.0000
  H   H1029     1.0  0.85794  0.36618  0.69418  1.0000
  H   H1030     1.0  0.76246  0.37472  0.70419  1.0000
  H   H1031     1.0  0.52827  0.43382  0.90319  1.0000
  C   C859      1.0  0.52739  0.52716  0.84565  1.0000
  C   C860      1.0  0.54121  0.54714  0.84731  1.0000
  C   C861      1.0  0.53054  0.56974  0.84938  1.0000
  C   C862      1.0  0.56988  0.33416  0.96983  1.0000
  H   H1032     1.0  0.56011  0.54527  0.84645  1.0000
  H   H1033     1.0  0.55618  0.37926  0.77983  1.0000
  N   N58       1.0  0.68011  0.40003  0.64853  1.0000
  C   C863      1.0  0.66331  0.38056  0.64744  1.0000
  C   C864      1.0  0.67162  0.41914  0.63041  1.0000
  C   C865      1.0  0.70291  0.39113  0.63754  1.0000
  C   C866      1.0  0.68151  0.40856  0.67675  1.0000
  C   C867      1.0  0.70176  0.40509  0.69310  1.0000
  C   C868      1.0  0.66170  0.41956  0.68920  1.0000
  C   C869      1.0  0.70196  0.41236  0.72013  1.0000
  C   C870      1.0  0.66205  0.42663  0.71623  1.0000
  C   C871      1.0  0.68212  0.42303  0.73168  1.0000
  H   H1034     1.0  0.64524  0.38643  0.65312  1.0000
  H   H1035     1.0  0.66232  0.37294  0.62676  1.0000
  H   H1036     1.0  0.66851  0.36618  0.66152  1.0000
  H   H1037     1.0  0.65305  0.42446  0.63451  1.0000
  H   H1038     1.0  0.67200  0.41360  0.60881  1.0000
  H   H1039     1.0  0.68256  0.43501  0.63242  1.0000
  H   H1040     1.0  0.70945  0.37537  0.64868  1.0000
  H   H1041     1.0  0.70138  0.38537  0.61608  1.0000
  H   H1042     1.0  0.71651  0.40487  0.63813  1.0000
  H   H1043     1.0  0.71759  0.39659  0.68560  1.0000
  H   H1044     1.0  0.64554  0.42239  0.67827  1.0000
  H   H1045     1.0  0.71750  0.40948  0.73229  1.0000
  H   H1046     1.0  0.84314  0.43266  0.97874  1.0000
  C   C872      1.0  0.51830  0.44995  0.89709  1.0000
  N   N59       1.0  0.78093  0.53209  0.89513  1.0000
  C   C873      1.0  0.78973  0.51398  0.87595  1.0000
  C   C874      1.0  0.78889  0.55527  0.88525  1.0000
  C   C875      1.0  0.79212  0.52792  0.92179  1.0000
  C   C876      1.0  0.71509  0.54436  0.88672  1.0000
  H   H1047     1.0  0.78568  0.49594  0.88291  1.0000
  H   H1048     1.0  0.78160  0.51624  0.85570  1.0000
  H   H1049     1.0  0.80912  0.51480  0.87332  1.0000
  H   H1050     1.0  0.78321  0.55866  0.86411  1.0000
  H   H1051     1.0  0.80843  0.55620  0.88482  1.0000
  H   H1052     1.0  0.78227  0.56982  0.89845  1.0000
  H   H1053     1.0  0.78995  0.50964  0.92909  1.0000
  H   H1054     1.0  0.81147  0.53043  0.92088  1.0000
  H   H1055     1.0  0.78468  0.54007  0.93737  1.0000
  H   H1056     1.0  0.74539  0.56304  0.87605  1.0000
  H   H1057     1.0  0.87608  0.34051  0.70195  1.0000
  C   C877      1.0  0.73444  0.33340  0.61946  1.0000
  C   C878      1.0  0.50596  0.57274  0.85029  1.0000
  H   H1058     1.0  0.96821  0.51646  0.89774  1.0000
  S   S247      1.0  0.97679  0.62988  0.89686  1.0000
  H   H1059     1.0  0.96946  0.57321  0.75637  1.0000
  H   H1060     1.0  0.88263  0.38021  0.64509  1.0000
  H   H1061     1.0  0.90004  0.49102  0.91458  1.0000
  H   H1062     1.0  0.92424  0.54986  0.95934  1.0000
  C   C879      1.0  0.55619  0.35134  0.65955  1.0000
  H   H1063     1.0  0.54146  0.58505  0.85009  1.0000
  N   N60       1.0  0.76709  0.41090  0.80514  1.0000
  C   C880      1.0  0.78157  0.39464  0.82187  1.0000
  C   C881      1.0  0.77782  0.43443  0.80679  1.0000
  C   C882      1.0  0.74328  0.41298  0.81725  1.0000
  C   C883      1.0  0.76553  0.40160  0.77722  1.0000
  C   C884      1.0  0.77359  0.41410  0.75422  1.0000
  C   C885      1.0  0.75589  0.37916  0.77240  1.0000
  C   C886      1.0  0.77211  0.40456  0.72821  1.0000
  C   C887      1.0  0.75472  0.36970  0.74633  1.0000
  C   C888      1.0  0.76295  0.38232  0.72431  1.0000
  H   H1064     1.0  0.78420  0.40169  0.84265  1.0000
  H   H1065     1.0  0.77353  0.37718  0.82429  1.0000
  H   H1066     1.0  0.79929  0.39176  0.81272  1.0000
  H   H1067     1.0  0.79628  0.43394  0.79926  1.0000
  H   H1068     1.0  0.77847  0.44089  0.82804  1.0000
  H   H1069     1.0  0.76755  0.44783  0.79525  1.0000
  H   H1070     1.0  0.74386  0.42002  0.83825  1.0000
  H   H1071     1.0  0.73176  0.42506  0.80530  1.0000
  H   H1072     1.0  0.73444  0.39582  0.81864  1.0000
  H   H1073     1.0  0.78166  0.43105  0.75574  1.0000
  H   H1074     1.0  0.74945  0.36859  0.78884  1.0000
  C   C889      1.0  0.57832  0.34288  0.94533  1.0000
  H   H1075     1.0  0.58354  0.34170  0.50607  1.0000
  S   S248      1.0  0.67477  0.34015  0.57765  1.0000
  C   C890      1.0  0.57638  0.42376  0.98730  1.0000
  C   C891      1.0  0.83774  0.36577  0.98116  1.0000
  C   C892      1.0  0.71820  0.33676  0.59878  1.0000
  H   H1076     1.0  0.68213  0.42837  0.75271  1.0000
  H   H1077     1.0  0.52997  0.38723  0.98755  1.0000
  H   H1078     1.0  0.53042  0.55562  0.78864  1.0000
  C   C893      1.0  0.91036  0.52048  0.93875  1.0000
  H   H1079     1.0  0.90857  0.34447  0.65619  1.0000
  H   H1080     1.0  0.94236  0.58200  0.94329  1.0000
  S   S249      1.0  0.61706  0.34352  0.62672  1.0000
  H   H1081     1.0  0.95266  0.57986  0.90911  1.0000
  C   C894      1.0  0.85813  0.42409  0.98807  1.0000
  H   H1082     1.0  0.52826  0.51393  0.77542  1.0000
  H   H1083     1.0  0.86840  0.34718  0.66808  1.0000
  C   C895      1.0  0.55904  0.34611  0.75893  1.0000
  H   H1084     1.0  0.92984  0.36394  0.66957  1.0000
  H   H1085     1.0  0.57139  0.33663  0.92634  1.0000
  C   C896      1.0  0.73939  0.54742  0.88601  1.0000
  H   H1086     1.0  0.93137  0.39936  0.69270  1.0000
  C   C897      1.0  0.74489  0.51038  0.90938  1.0000
  C   C898      1.0  0.88229  0.34526  0.97439  1.0000
  H   H1087     1.0  0.53906  0.36103  0.65910  1.0000
  C   C899      1.0  0.54411  0.39771  0.97989  1.0000
  C   C900      1.0  0.88945  0.37809  0.73512  1.0000
  H   H1088     1.0  0.71325  0.49189  0.91879  1.0000
  C   C901      1.0  0.93347  0.46286  0.98119  1.0000
  C   C902      1.0  0.75509  0.53038  0.89731  1.0000
  C   C903      1.0  0.95264  0.51806  0.91010  1.0000
  H   H1089     1.0  0.96836  0.57951  0.79152  1.0000
  H   H1090     1.0  0.60109  0.36755  0.92611  1.0000
  N   N61       1.0  0.89455  0.36981  0.68478  1.0000
  C   C904      1.0  0.87333  0.35533  0.68760  1.0000
  H   H1091     1.0  0.52571  0.45581  0.87739  1.0000
  Fe  Fe126     1.0  0.78172  0.33623  0.65353  1.0000
  C   C905      1.0  0.92118  0.39628  0.71074  1.0000
  C   C906      1.0  0.89614  0.38983  0.75860  1.0000
  C   C907      1.0  0.87211  0.35863  0.95368  1.0000
  H   H1092     1.0  0.55046  0.38360  0.69445  1.0000
  Fe  Fe127     1.0  0.98002  0.60457  0.86197  1.0000
  C   C908      1.0  0.82497  0.38586  0.49594  1.0000
  H   H1093     1.0  0.97103  0.59137  0.93513  1.0000
  H   H1094     1.0  0.68694  0.52176  0.89833  1.0000
  H   H1095     1.0  0.91997  0.41404  0.77644  1.0000
  H   H1096     1.0  0.94108  0.46505  0.96127  1.0000
  H   H1097     1.0  0.89859  0.47217  0.96805  1.0000
  H   H1098     1.0  0.90502  0.39818  0.65840  1.0000
  C   C909      1.0  0.50455  0.48868  0.91022  1.0000
  C   C910      1.0  0.92774  0.40791  0.73436  1.0000
  C   C911      1.0  0.72059  0.50768  0.91023  1.0000
  C   C912      1.0  0.91392  0.50312  0.91926  1.0000
  H   H1099     1.0  0.88627  0.38758  0.77719  1.0000
  C   C913      1.0  0.55555  0.37035  0.76046  1.0000
  N   N62       1.0  0.51984  0.46848  0.91810  1.0000
  C   C914      1.0  0.70573  0.52449  0.89867  1.0000
  H   H1100     1.0  0.70339  0.55723  0.87746  1.0000
  C   C915      1.0  0.97491  0.55207  0.96423  1.0000
  H   H1101     1.0  0.94253  0.41956  0.73414  1.0000
  H   H1102     1.0  0.91178  0.40080  0.97275  1.0000
  C   C916      1.0  0.88936  0.38802  0.66410  1.0000
  H   H1103     1.0  0.54975  0.40224  0.73830  1.0000
  S   S250      1.0  0.81421  0.34026  0.67808  1.0000
  C   C917      1.0  0.93507  0.50180  0.90516  1.0000
  C   C918      1.0  0.90162  0.38123  0.71030  1.0000
  H   H1104     1.0  0.49586  0.58079  0.78919  1.0000
  C   C919      1.0  0.52616  0.45990  0.96815  1.0000
  C   C920      1.0  0.97973  0.58078  0.77321  1.0000
  H   H1105     1.0  0.89968  0.33821  0.97048  1.0000
  H   H1106     1.0  0.84250  0.37982  0.94123  1.0000
  C   C921      1.0  0.92791  0.53663  0.94416  1.0000
  C   C922      1.0  0.79190  0.35079  0.50109  1.0000
  H   H1107     1.0  0.98223  0.59986  0.76945  1.0000
  C   C923      1.0  0.51203  0.45926  0.94456  1.0000
  C   C924      1.0  0.69432  0.33413  0.60385  1.0000
  C   C925      1.0  0.91380  0.35415  0.67477  1.0000
  H   H1108     1.0  0.74767  0.35235  0.74312  1.0000
  H   H1109     1.0  0.55699  0.46211  0.92301  1.0000
  H   H1110     1.0  0.54378  0.46648  0.96803  1.0000
  C   C926      1.0  0.50278  0.53015  0.84673  1.0000
  C   C927      1.0  0.55194  0.38330  0.73698  1.0000
  C   C928      1.0  0.95792  0.57769  0.93059  1.0000
  C   C929      1.0  0.51383  0.54863  0.78206  1.0000
  N   N63       1.0  0.55793  0.33523  0.68305  1.0000
  H   H1111     1.0  0.72418  0.34188  0.57890  1.0000
  H   H1112     1.0  0.59564  0.33399  0.68377  1.0000
  H   H1113     1.0  0.96034  0.55651  0.97840  1.0000
  C   C930      1.0  0.55650  0.34754  0.70941  1.0000
  H   H1114     1.0  0.69362  0.35777  0.52670  1.0000
  H   H1115     1.0  0.91865  0.34072  0.69021  1.0000
  C   C931      1.0  0.51264  0.52511  0.77460  1.0000
  H   H1116     1.0  0.55743  0.34158  0.64011  1.0000
  H   H1117     1.0  0.50000  0.44484  0.89293  1.0000
  H   H1118     1.0  0.50502  0.50292  0.92562  1.0000
  C   C932      1.0  0.69662  0.36032  0.50525  1.0000
  S   S251      1.0  0.61043  0.33501  0.56058  1.0000
  H   H1119     1.0  0.51025  0.49636  0.89063  1.0000
  H   H1120     1.0  0.83771  0.39960  0.49409  1.0000
  H   H1121     1.0  0.88174  0.36179  0.93514  1.0000
  H   H1122     1.0  0.84451  0.33611  0.54205  1.0000
  H   H1123     1.0  0.56195  0.33616  0.77730  1.0000
  H   H1124     1.0  0.84724  0.33868  0.49335  1.0000
  H   H1125     1.0  0.98922  0.56454  0.96887  1.0000
  C   C933      1.0  0.98910  0.55090  0.91866  1.0000
  C   C934      1.0  0.90957  0.46714  0.98499  1.0000
  H   H1126     1.0  0.98155  0.53407  0.96912  1.0000
  H   H1127     1.0  0.52122  0.32737  0.68295  1.0000
  H   H1128     1.0  0.99005  0.53509  0.76282  1.0000
  C   C935      1.0  0.68666  0.32743  0.62955  1.0000
  C   C936      1.0  0.72695  0.32730  0.64534  1.0000
  H   H1129     1.0  0.99110  0.98075  0.21019  1.0000
  C   C937      1.0  0.49379  0.97481  0.94683  1.0000
  H   H1130     1.0  0.72021  0.98628  0.86106  1.0000
  S   S252      1.0  0.94198  0.90008  0.86168  1.0000
  H   H1131     1.0  0.93931  0.98538  0.88296  1.0000
  H   H1132     1.0  0.95151  0.92581  0.77312  1.0000
  C   C938      1.0  0.90546  0.97341  0.87019  1.0000
  C   C939      1.0  0.89303  0.95377  0.86177  1.0000
  C   C940      1.0  0.90449  0.93157  0.85947  1.0000
  C   C941      1.0  0.92844  0.92852  0.86583  1.0000
  C   C942      1.0  0.94081  0.94812  0.87451  1.0000
  C   C943      1.0  0.92942  0.97037  0.87655  1.0000
  S   S253      1.0  0.98544  0.84895  0.85060  1.0000
  H   H1133     1.0  0.89466  0.91661  0.85274  1.0000
  H   H1134     1.0  0.95922  0.94620  0.87938  1.0000
  C   C944      1.0  0.51009  0.92920  0.86399  1.0000
  H   H1135     1.0  0.93688  0.90027  0.76075  1.0000
  H   H1136     1.0  0.54463  0.97850  0.91668  1.0000
  S   S254      1.0  0.98094  0.69559  0.85995  1.0000
  H   H1137     1.0  0.95295  0.85988  0.77354  1.0000
  C   C945      1.0  0.51976  0.97281  0.84030  1.0000
  C   C946      1.0  0.53662  0.96235  0.85715  1.0000
  C   C947      1.0  0.53155  0.94049  0.86895  1.0000
  H   H1138     1.0  0.97258  0.74225  0.83954  1.0000
  C   C948      1.0  0.99035  0.87147  0.73893  1.0000
  H   H1139     1.0  0.99041  0.92178  0.79415  1.0000
  H   H1140     1.0  0.93839  0.90639  0.79641  1.0000
  C   C949      1.0  0.94843  0.90692  0.77699  1.0000
  H   H1141     1.0  0.97728  0.90386  0.81932  1.0000
  C   C950      1.0  0.98589  0.90340  0.79910  1.0000
  H   H1142     1.0  0.54441  0.93210  0.88194  1.0000
  Fe  Fe128     1.0  0.97791  0.88334  0.87228  1.0000
  N   N64       1.0  0.97056  0.89278  0.77854  1.0000
  H   H1143     1.0  0.87465  0.95569  0.85677  1.0000
  H   H1144     1.0  0.98402  0.93075  0.74836  1.0000
  C   C951      1.0  0.98749  0.72384  0.87362  1.0000
  H   H1145     1.0  0.52334  0.98949  0.83087  1.0000
  C   C952      1.0  0.98118  0.74412  0.85884  1.0000
  S   S255      1.0  0.56436  0.97544  0.86383  1.0000
  C   C953      1.0  0.96436  0.86900  0.78821  1.0000
  H   H1146     1.0  0.95458  0.86984  0.80778  1.0000
  C   C954      1.0  0.98555  0.76689  0.86889  1.0000
  S   S256      1.0  0.98920  0.86789  0.91236  1.0000
  C   C955      1.0  0.49843  0.96139  0.83505  1.0000
  H   H1147     1.0  0.50663  0.91240  0.87320  1.0000
  H   H1148     1.0  0.98033  0.85788  0.79195  1.0000
  C   C956      1.0  0.98283  0.89257  0.75209  1.0000
  H   H1149     1.0  0.98027  0.78221  0.85737  1.0000
  C   C957      1.0  0.98848  0.91402  0.73920  1.0000
  H   H1150     1.0  0.98775  0.85431  0.74755  1.0000
  H   H1151     1.0  0.50334  0.97618  0.96554  1.0000
  C   C958      1.0  0.49950  0.98899  0.92425  1.0000
  C   C959      1.0  0.49341  0.93946  0.84677  1.0000
  H   H1152     1.0  0.54086  0.98402  0.95209  1.0000
  C   C960      1.0  0.54116  0.99255  0.93197  1.0000
