data_image0
_chemical_formula_structural       SFeS2FeS2FeSFeS4CHFeS2FeHSHC2HCHCSCHC6H4C3HC2H2CH2CHC2HCSH2C6H4C2H2SH2C2HNC3H3C2HSC2SH3CH2CH2C3H10NHC4H3CNHNCFeC5H5CH6C2FeCNC9H6CH8C2SFeCNHFeCHCH3CSCH2CHCHC2H2SC2H3SC2H2SHC3HFeCH2CSHSC2HC2H9CHSCHSCHFeCHCHS2NCHS2FeHSHC3HCSH2CH2C5H2C6H5FeHSCH3CH2SC2H2C2H3SHNSCHC2HCHC2HC3H4C2H3C2HCH7CSCNC3SCS2HFeH2C3H7CHCH2C2HSCHCNC3FeH2CNCH3CH3CHC2H2FeH2C2H2CH3CH2C2HCFeC2SH4SCH2S2H2SHFeS2FeSFeSFeS3Fe2H4SHCHCHC2HC6HCH3CHC8H4SCSCSC2H3C7H6SFeHCFeCHSHSH3NC2SC2SCH2C3HCHCHCH3CFeH2CH2CHC2H4FeHCH5FeCHCH2NC6HCH5FeCHSC2HNSC2H3CH2C3HCHNFeHC2H4C2HCHC3H4FeC2HSH2C3H3CNH2CHCH2SCH2CH2C2HC2HCH2SCFeSHSCHFeS2FeSFeSFeS3FeSFeS2FeSFeS3H2SCSCHFeS2C2HCHFeH2FeHNC6H4C2HCHCHC2HC6H4C7H3C3H3C3HCH2FeSHCSHCHSH2CSH3C4H4C2H2CHC3NH2FeH2CHCH4C3NC9H14NC9H14SHFeH2CS3HCS2HCHCHCNFeHCSNHCH13C3H3C2H2C2HCH4CH2C3H2C2HCFeHNH2CHC3H2C3H2SH2FeS2FeS2FeSFeCS2HSHFeS2H2FeSHSCNCFeSCFeS2FeSFeS4CH2C4FeH3CHCH7CHC3H3CH2C12H4C6H4CHSHCHCH3C3H3C3HCH2C2HC4HC2HCHCFeHC4H3CH3CH2CH2CH3NC9H13FeH6C3HCH2NC6H9FeCHC3H2CH2CHSCH2CHNH4SCH2CNCNHCH3CNCHCHCHC4HCSHC2H2CHCH2CHNH8CSH3CH2CS2HCHCH2NHFeS2HCHFeSCSCH2CHCFeCSFeS2HFeCS2H2CNH3CHC7H6C3H2C2HCH2NCHC3NCH4C3H2CHCH4C3H4CHCHFeHCH3SC2HC2HCH2C3H5SCHCHCFe2H2C2H3CH4NHSH5FeS2HSCFeSFeSC2SCHCHFeSHCFeSHFeS2FeSFe2S2FeC7H4CH2CH5CH2C6H4C2H2C2HSCHSC2H3SCHC3HC2SNCHCHCH7C5SNC9H14CNH2C2FeC4HC3SH2FeSHCH3CHCHCHSCH5C3HFeNH2CHCHSHC2H3CHFeH2SHCH2SHCHCH3CNCH2CSC2H2C2HCHCH2SHC2H4CH5CHC3HCHSHCFeS2FeSFe2HS2FeS2FeS2Fe2S3FeS2FeS2FeHFeS2HSH2CHC4HSHCH2SHC6H4FeH2C2H3CH3CH2C6H4C6H3C6H2C7H5CHSCHSH2CH6CNCH3C2NC9H18C2H4NC9H12CH2SHCSNHSH5SC3SC2HC4H3C2H3SC2H3SCSH2C2H4CHCHFeCHCHCHC2HNHC2HNH3CSC3NC2NCH2C2H5NCFeHCSH2C3FeHCNH5SFeS2FeSFeHS2HFeS2FeS2FeSFeS3HCH3CH2C2FeC6H5CNH2C6H5CH2CHCHC3HC6H4C3HC2H2CH3C6H4C2FeCH2CH6CH2CNHC4H2S2CSH2CHCHCH2CHCH2SH3SH2C2H2CHCH2CFeC2H5C2HCHC2HCSH2C3H2CH2CH3C2HCHC4FeC2HSCHCHCH2SHNC3H2CHNHC3HC3HCHC2H4CSFeSCHCH3CHSHCNH2C2NH2FeCFeH2NC4H2SCH4CFeCHCHCSH2CH2SNCSHSH2CH2FeHCHSH2Fe2SFeSFeS4FeS2FeS2FeSFeS3HCHC3H3C6H3C6H4C6H6C2HC2SC2HC2HC4SHC2H2C2SH2C2SC3HSH2FeNC2HC3HC2H6CH7C3SHC3HCH3C3H2C3H3C2HSFeHCHC2H3NH3FeC2NSH2C2H2SHFeC3H2NC2H3CSH2FeHCHCH2NC9H7CFeH5SH3CH2S2H2SH2CSNCHCHFeCFeCH2CH3C2H3CH5CHCHCSC3HCHCH4FeH3FeCHC2NH3C2H5C2HCH5CH4CNHC2H3SH2C2SH2C2HFeC2HFeCHSHSCH2SCHFeS2FeS2FeSFeS3H3SCSFeCSCH2CH3C3H3C7H4C2HC3HCH2C6H2C8H6C3HNSC2HCHCH3FeNHCH2CHSHSCNSHFeH3C2H2CH2C3HSH4CHC2HCH2CH2CHC2H2CHCH2FeNC3H3CHC2H3NH3CHSFeH2SC2HC2H3CS2H3CS2C2HCH2FeSFeS2FeSFeS3CH2C5H5CH2C6H4SH2C4H2FeHCHCH2CFeCSH2CH2CHCH2CH2CHCH2C2HNCHC7H2CH3C2FeH5CHCH2NC3H7CHSH2CHC4HCHSC2HC2H2CNHC2FeHCH2C3SH4CH3CH5CNCHC2FeCH2C2H2CH2SHCHCH2SC6H3C2NH2CHCNCH3C2H3CNHCHC3H2S2C2H2CSC2SH3NCHFeSH2C2HC2FeCHFeSCH2C2HFeHCHC2H2CH2CHCHCH2SFeC2H2SH2CHC2HCH4SHCH2FeSHSCHSFeSH4C2HCSHSFeS2CSCS2C2HC3HCHCH3SH2CSC2HC7H5CH2C2NHNHC3SH2CH2SHC4SH2CH2CSH2C2HCHC3H3CSFeCSCH4Fe2C2H2NH4CHCSFeHC3H3CFeC3H2FeHFeHSHCNH6C2HSC3H2CHCHCHSHC3H4FeS2FeS2FeSFeS3NSHSHFe2S2FeS2FeHFeSH2CNC3H2C2H4C2H2C6H5C4SCH3SC5SH5CH2SC6H4FeC2HCSH2CSCHC2SHFeCHSH2CHCHC2HC4H4NCSCH2CH2FeSNC9HCH10CHNC6H2CSH7CH3CHC4H4CHCH2CHNSCHCHC3H3CHCH3C2H5CHCHFeCHC2HCFeCH2CHC2SHC2H3CH4FeCH2CNH7CHFeNHCH3SCHC2SH6CHCH2C3HCHCNC3HCH3C2H2CSFeS2FeS2FeCFeCS2CSCFeS2FeS2FeSFeCS2HC2HCH4C4HC2SC2H2C4H4C6H4C2HC3HCH2CH3C2HFeC7H3S2NC2N2H2CSCH4CH2CH2CH6CH4CHCNCH2CH2CH6CHC3HCHFeSCSCH5CH2CHCHCHCH4CH2SCFeCNC8H13C2SH5C2HCHCH2C2H3FeC5HCH2CSCH4C2SC5HSH2CH2SHCHSCHC4FeCSHFeSHSHFeS2HSFeSHSC6H4CHC2H2SHSC3HC3NH3C2FeHC3H6FeC2H4CH4CFeCNC9H14CHCFeHC3H2CH3CH3NC3H2CHCH3CH2SHNCHSCH5CH2CHCH4CSCNH2CFeC2HCHC4HC2H3CH2C3H2CHC3HC2H4C2H2CHC2HCFeSH2SCHSFeSC2HNHCHNHSHCS3C3HFeS2HC2HCSFeH2FeS2Fe2S2CSC6H4CH2CHC5H3C2H2FeCHCHC2H4C7H4C4H5CSH4CH3FeHCH2SCHCNCHCH6CH2FeNSHCFeC2H5CHSCHCHC2S2H3CSNHC5H2CHC2H2C2H4C2HCH3CH2C2H2CHFeS2HNHCHCSHFeS2CFeSCSH2C2FeHC2H2C5SH2SH9NCH3C5H3FeH2C2H2CH2C2H3C2FeH2FeHCHC2SHCSHCHCHCHCSHC3SHNHCHCHNSHFeS2CHC6H3FeHSC3SH2CSFeHCFeCHCHCH2C3HSH4C6NC9H15CHSH2C2HC3HNCHSCFeS2FeSFeCFeSHSCFeS2FeS2FeSFeHS2FeHSCH2S2FeS2FeSHFeSFeHS2HC7H4FeCHC3H2C2HSHC6H4CHCHNH2CH2C6H5C2H2C6H4C6H3CNHCHCH4C2NC3S2H3C2HNC9H12C2H2NC9H16C2HCHCHCH2CHNCSCHC2H2C3H2SHNH2CH2FeHCH3CH3S2H2FeCSNCFeHC2HSH5CH4C2HNH2CHSCHC7H2CH3CH2FeH2SCHCHC2H7C2H2CSCHCNH2CH2CHCSHC4HC3H4SHCS2H3CHCSCH4CHSHCHCHCHCH3C3H3CSCH2Fe2HSCH2NFeS2Fe3CS2H4C3HCFeCNH2CSH5FeSHCSHSC7HCH2CHC3H2CH2CH2C3H4CH6FeC7H2C2H2C2HC3HCHSCS2H3CH3CFeHSC2HCH2CH4SC2FeCNHC4H2CHSH2CHC2HSH2CSH3SHSCHNH2SCH2C3HC4H3CH2CHCH2CNCSHC2HC3HSH2CH3SH3CH2CHC3HSCNC3H3SFeCHFeSH2FeSC3HSHSCHCHNH3SC4H4CHFeH2CNCH2C2HC2HCHCHFeHSC2NC2H2FeH3C2HCSC3H3CHS2C2H2C2SC3H2SC2SHCFeSH2NHC2H2NFeCFeCH2SCHCH3CH4SCSCHCHSHC2H2CH3FeC5SHCH2CHCHC3H4S2C3H2C3HCH2SH2SH6CSCHFeCHSCH5Fe2S2FeCFeS2C2NC2SCHFeHNH2FeS2FeS2FeSFeS3H2SCNCFeSHCHSC3HFeCH2C7H4SHC2HC7H3S2H2C8H7SCHCH2NCH6CH2CSH3CHC3H2FeH3CHCHC5HCHCH2CFeC2H2SC3H3FeH4C2HNSC2H4SC2HCHC2H2SHSC3H2C5H3SH6C3NH5C3H3CHCSCHC3FeSH4FeHCHCHSNHCHFeC2SHC2SHC2HCHFeCH2CH7CNH2NCH2CSH3CHSHC6H2CHCH2CHCH3SHC2H2C2H3CH3SHSCHCH3C3H4CH2CH2CH5CHC2FeC2H3C2H3SC
_chemical_formula_sum              "S576 Fe288 C2160 H2592 N144"
_cell_length_a       61.7371
_cell_length_b       60.1236
_cell_length_c       83.0642
_cell_angle_alpha    77.8627
_cell_angle_beta     77.7292
_cell_angle_gamma    102.776

_space_group_name_H-M_alt    "P 1"
_space_group_IT_number       1

loop_
  _space_group_symop_operation_xyz
  'x, y, z'

loop_
  _atom_site_type_symbol
  _atom_site_label
  _atom_site_symmetry_multiplicity
  _atom_site_fract_x
  _atom_site_fract_y
  _atom_site_fract_z
  _atom_site_occupancy
  S   S1        1.0  0.07922  0.33111  0.11456  1.0000
  Fe  Fe1       1.0  0.11348  0.25143  0.17443  1.0000
  S   S2        1.0  0.07968  0.23233  0.17144  1.0000
  S   S3        1.0  0.11935  0.28951  0.17403  1.0000
  Fe  Fe2       1.0  0.13111  0.20845  0.17930  1.0000
  S   S4        1.0  0.09874  0.18508  0.17674  1.0000
  S   S5        1.0  0.16053  0.19340  0.18366  1.0000
  Fe  Fe3       1.0  0.10087  0.21552  0.15503  1.0000
  S   S6        1.0  0.09365  0.21145  0.13018  1.0000
  Fe  Fe4       1.0  0.08010  0.20371  0.19337  1.0000
  S   S7        1.0  0.04668  0.18378  0.21338  1.0000
  S   S8        1.0  0.13502  0.23736  0.15597  1.0000
  S   S9        1.0  0.11212  0.22436  0.19796  1.0000
  S   S10       1.0  0.04700  0.36999  0.13944  1.0000
  C   C1        1.0  0.04841  0.21531  0.99805  1.0000
  H   H1        1.0  0.03919  0.15685  0.01729  1.0000
  Fe  Fe5       1.0  0.27147  0.25390  0.20520  1.0000
  S   S11       1.0  0.28791  0.22961  0.19288  1.0000
  S   S12       1.0  0.23314  0.24917  0.21515  1.0000
  Fe  Fe6       1.0  0.31477  0.23820  0.20702  1.0000
  H   H2        1.0  0.27953  0.25826  0.12720  1.0000
  S   S13       1.0  0.29647  0.25967  0.22112  1.0000
  H   H3        1.0  0.09557  0.24077  0.99830  1.0000
  C   C2        1.0  0.08471  0.19385  0.04323  1.0000
  C   C3        1.0  0.26234  0.24135  0.11159  1.0000
  H   H4        1.0  0.02067  0.19900  0.18714  1.0000
  C   C4        1.0  0.02771  0.20526  0.02828  1.0000
  H   H5        1.0  0.06629  0.18607  0.04908  1.0000
  C   C5        1.0  0.02832  0.18176  0.03015  1.0000
  S   S14       1.0  0.01715  0.16059  0.05016  1.0000
  C   C6        1.0  0.04840  0.19166  0.99989  1.0000
  H   H6        1.0  0.28124  0.13884  0.24023  1.0000
  C   C7        1.0  0.18048  0.20895  0.19254  1.0000
  C   C8        1.0  0.19994  0.20125  0.19428  1.0000
  C   C9        1.0  0.21640  0.21366  0.20097  1.0000
  C   C10       1.0  0.21341  0.23379  0.20603  1.0000
  C   C11       1.0  0.19385  0.24135  0.20444  1.0000
  C   C12       1.0  0.17747  0.22905  0.19764  1.0000
  H   H7        1.0  0.20233  0.18569  0.19036  1.0000
  H   H8        1.0  0.23128  0.20753  0.20238  1.0000
  H   H9        1.0  0.19136  0.25680  0.20847  1.0000
  H   H10       1.0  0.16258  0.23517  0.19634  1.0000
  C   C13       1.0  0.06497  0.19660  0.13186  1.0000
  C   C14       1.0  0.05900  0.19251  0.11717  1.0000
  C   C15       1.0  0.03603  0.18188  0.11793  1.0000
  H   H11       1.0  0.03488  0.29114  0.11610  1.0000
  C   C16       1.0  0.02488  0.17884  0.14823  1.0000
  C   C17       1.0  0.04787  0.18972  0.14743  1.0000
  H   H12       1.0  0.07221  0.19751  0.10517  1.0000
  H   H13       1.0  0.03168  0.17865  0.10655  1.0000
  C   C18       1.0  0.06506  0.27323  0.20242  1.0000
  H   H14       1.0  0.05237  0.19268  0.15884  1.0000
  H   H15       1.0  0.01170  0.17349  0.16029  1.0000
  C   C19       1.0  0.32633  0.23045  0.01482  1.0000
  H   H16       1.0  0.15734  0.24974  0.99844  1.0000
  C   C20       1.0  0.01824  0.45085  0.12394  1.0000
  C   C21       1.0  0.16154  0.21177  0.24261  1.0000
  H   H17       1.0  0.00237  0.44041  0.20096  1.0000
  C   C22       1.0  0.12374  0.20225  0.04564  1.0000
  S   S15       1.0  0.30095  0.22741  0.00796  1.0000
  H   H18       1.0  0.06644  0.32386  0.20118  1.0000
  H   H19       1.0  0.15060  0.22015  0.02301  1.0000
  C   C23       1.0  0.09240  0.32143  0.13035  1.0000
  C   C24       1.0  0.08885  0.32865  0.14543  1.0000
  C   C25       1.0  0.09831  0.31982  0.15850  1.0000
  C   C26       1.0  0.11032  0.30290  0.15682  1.0000
  C   C27       1.0  0.11385  0.29566  0.14177  1.0000
  C   C28       1.0  0.10545  0.30543  0.12834  1.0000
  H   H20       1.0  0.07904  0.34124  0.14697  1.0000
  H   H21       1.0  0.09583  0.32567  0.17004  1.0000
  H   H22       1.0  0.12331  0.28272  0.14038  1.0000
  H   H23       1.0  0.10869  0.30022  0.11657  1.0000
  C   C29       1.0  0.06126  0.45016  0.12930  1.0000
  C   C30       1.0  0.04858  0.43152  0.12444  1.0000
  H   H24       1.0  0.07799  0.44986  0.13124  1.0000
  H   H25       1.0  0.05582  0.41729  0.12234  1.0000
  S   S16       1.0  0.31844  0.01912  0.24445  1.0000
  H   H26       1.0  0.12857  0.15225  0.21430  1.0000
  H   H27       1.0  0.99817  0.38614  0.09158  1.0000
  C   C31       1.0  0.31802  0.17224  0.00293  1.0000
  C   C32       1.0  0.11680  0.21504  0.01751  1.0000
  H   H28       1.0  0.32131  0.02131  0.10240  1.0000
  N   N1        1.0  0.10625  0.16040  0.23491  1.0000
  C   C33       1.0  0.30885  0.05111  0.12095  1.0000
  C   C34       1.0  0.30675  0.20264  0.14074  1.0000
  C   C35       1.0  0.02634  0.28211  0.23513  1.0000
  H   H29       1.0  0.29950  0.18491  0.14920  1.0000
  H   H30       1.0  0.13568  0.20103  0.05345  1.0000
  H   H31       1.0  0.29468  0.03514  0.12248  1.0000
  C   C36       1.0  0.13210  0.21328  0.02804  1.0000
  C   C37       1.0  0.32614  0.22881  0.11240  1.0000
  H   H32       1.0  0.01294  0.24874  0.13099  1.0000
  S   S17       1.0  0.00932  0.40668  0.11843  1.0000
  C   C38       1.0  0.09287  0.20501  0.02569  1.0000
  C   C39       1.0  0.01083  0.40173  0.19791  1.0000
  S   S18       1.0  0.02007  0.34421  0.11477  1.0000
  H   H33       1.0  0.31700  0.18442  0.01076  1.0000
  H   H34       1.0  0.07246  0.22091  0.22505  1.0000
  H   H35       1.0  0.06740  0.26244  0.19317  1.0000
  C   C40       1.0  0.02678  0.43149  0.12217  1.0000
  H   H36       1.0  0.01391  0.40541  0.15624  1.0000
  H   H37       1.0  0.02144  0.22551  0.12285  1.0000
  C   C41       1.0  0.27928  0.10543  0.23531  1.0000
  H   H38       1.0  0.02561  0.24469  0.20107  1.0000
  H   H39       1.0  0.03039  0.35947  0.05217  1.0000
  C   C42       1.0  0.31939  0.01391  0.14294  1.0000
  C   C43       1.0  0.08379  0.16619  0.23760  1.0000
  C   C44       1.0  0.03790  0.22203  0.01228  1.0000
  H   H40       1.0  0.03467  0.42289  0.16409  1.0000
  H   H41       1.0  0.08024  0.20560  0.01853  1.0000
  H   H42       1.0  0.00376  0.17464  0.23836  1.0000
  H   H43       1.0  0.11639  0.17569  0.20779  1.0000
  H   H44       1.0  0.08793  0.12338  0.24589  1.0000
  H   H45       1.0  0.09370  0.18385  0.06682  1.0000
  H   H46       1.0  0.99753  0.40015  0.20979  1.0000
  H   H47       1.0  0.20463  0.22658  0.11610  1.0000
  H   H48       1.0  0.28035  0.07108  0.23185  1.0000
  H   H49       1.0  0.06781  0.26384  0.21452  1.0000
  N   N2        1.0  0.00180  0.40561  0.18264  1.0000
  H   H50       1.0  0.27822  0.23988  0.10383  1.0000
  C   C45       1.0  0.32656  0.15038  0.03595  1.0000
  C   C46       1.0  0.02028  0.40631  0.16768  1.0000
  C   C47       1.0  0.03973  0.29063  0.18882  1.0000
  C   C48       1.0  0.02423  0.25452  0.21102  1.0000
  H   H51       1.0  0.09880  0.14564  0.21441  1.0000
  H   H52       1.0  0.24037  0.22940  0.16676  1.0000
  H   H53       1.0  0.11982  0.26003  0.00167  1.0000
  C   C49       1.0  0.03885  0.19673  0.23000  1.0000
  N   N3        1.0  0.04211  0.27771  0.20537  1.0000
  H   H54       1.0  0.29890  0.21964  0.16071  1.0000
  N   N4        1.0  0.24359  0.26352  0.15054  1.0000
  C   C50       1.0  0.26005  0.28757  0.14486  1.0000
  Fe  Fe7       1.0  0.02078  0.34261  0.16155  1.0000
  C   C51       1.0  0.25163  0.24791  0.16287  1.0000
  C   C52       1.0  0.24249  0.25357  0.13576  1.0000
  C   C53       1.0  0.22135  0.24415  0.13212  1.0000
  C   C54       1.0  0.05490  0.21472  0.23300  1.0000
  C   C55       1.0  0.30651  0.22229  0.14727  1.0000
  H   H55       1.0  0.02253  0.23047  0.16196  1.0000
  H   H56       1.0  0.02609  0.24271  0.22252  1.0000
  H   H57       1.0  0.25537  0.29952  0.13482  1.0000
  H   H58       1.0  0.26045  0.29576  0.15569  1.0000
  H   H59       1.0  0.27813  0.28745  0.13960  1.0000
  C   C56       1.0  0.05480  0.31539  0.21380  1.0000
  H   H60       1.0  0.01605  0.38495  0.20004  1.0000
  H   H61       1.0  0.22243  0.27319  0.17076  1.0000
  H   H62       1.0  0.26943  0.24724  0.15740  1.0000
  H   H63       1.0  0.25177  0.25399  0.17464  1.0000
  H   H64       1.0  0.06583  0.34643  0.22227  1.0000
  H   H65       1.0  0.20481  0.24422  0.13968  1.0000
  C   C57       1.0  0.01574  0.37462  0.07164  1.0000
  C   C58       1.0  0.32565  0.24845  0.11890  1.0000
  Fe  Fe8       1.0  0.01688  0.37218  0.12873  1.0000
  C   C59       1.0  0.31627  0.24519  0.13640  1.0000
  N   N5        1.0  0.04362  0.26056  0.10973  1.0000
  C   C60       1.0  0.05833  0.26028  0.12176  1.0000
  C   C61       1.0  0.04147  0.28499  0.10474  1.0000
  C   C62       1.0  0.02050  0.24413  0.11916  1.0000
  C   C63       1.0  0.05294  0.25363  0.09416  1.0000
  C   C64       1.0  0.04085  0.25322  0.08140  1.0000
  C   C65       1.0  0.07406  0.24735  0.09104  1.0000
  C   C66       1.0  0.04938  0.24706  0.06647  1.0000
  C   C67       1.0  0.08239  0.24112  0.07607  1.0000
  C   C68       1.0  0.07010  0.24101  0.06382  1.0000
  H   H66       1.0  0.07588  0.27259  0.11553  1.0000
  H   H67       1.0  0.05120  0.26620  0.13308  1.0000
  H   H68       1.0  0.06005  0.24224  0.12666  1.0000
  H   H69       1.0  0.30145  0.01375  0.14519  1.0000
  H   H70       1.0  0.02955  0.28661  0.09658  1.0000
  H   H71       1.0  0.05855  0.29775  0.09743  1.0000
  C   C69       1.0  0.01612  0.18886  0.24041  1.0000
  H   H72       1.0  0.10559  0.20376  0.24298  1.0000
  H   H73       1.0  0.07925  0.28998  0.19710  1.0000
  H   H74       1.0  0.02451  0.25745  0.08292  1.0000
  H   H75       1.0  0.08434  0.24672  0.10008  1.0000
  H   H76       1.0  0.03962  0.24664  0.05705  1.0000
  H   H77       1.0  0.09841  0.23616  0.07410  1.0000
  H   H78       1.0  0.07655  0.23608  0.05228  1.0000
  H   H79       1.0  0.15138  0.15997  0.23196  1.0000
  C   C70       1.0  0.00761  0.22481  0.17300  1.0000
  C   C71       1.0  0.04041  0.29184  0.21798  1.0000
  S   S19       1.0  0.29132  0.28687  0.18426  1.0000
  Fe  Fe9       1.0  0.04798  0.33994  0.12754  1.0000
  C   C72       1.0  0.24139  0.23237  0.10833  1.0000
  N   N6        1.0  0.12485  0.22659  0.99886  1.0000
  H   H80       1.0  0.02775  0.39112  0.17022  1.0000
  Fe  Fe10      1.0  0.30942  0.26313  0.17292  1.0000
  C   C73       1.0  0.03863  0.17500  0.01592  1.0000
  H   H81       1.0  0.30585  0.16998  0.24417  1.0000
  C   C74       1.0  0.12498  0.17833  0.23750  1.0000
  H   H82       1.0  0.30646  0.05617  0.13323  1.0000
  H   H83       1.0  0.07005  0.15255  0.23545  1.0000
  H   H84       1.0  0.00655  0.25688  0.21390  1.0000
  C   C75       1.0  0.22102  0.26554  0.15978  1.0000
  S   S20       1.0  0.02478  0.31219  0.15085  1.0000
  C   C76       1.0  0.32436  0.22128  0.03222  1.0000
  H   H85       1.0  0.03777  0.24029  0.01094  1.0000
  H   H86       1.0  0.30744  0.21301  0.04111  1.0000
  C   C77       1.0  0.26292  0.25186  0.12504  1.0000
  H   H87       1.0  0.21394  0.27712  0.15123  1.0000
  C   C78       1.0  0.22096  0.23381  0.11854  1.0000
  H   H88       1.0  0.32868  0.05131  0.08976  1.0000
  C   C79       1.0  0.03090  0.46950  0.12888  1.0000
  C   C80       1.0  0.05231  0.46901  0.13181  1.0000
  H   H89       1.0  0.05291  0.30796  0.18294  1.0000
  H   H90       1.0  0.04164  0.28046  0.17910  1.0000
  S   S21       1.0  0.06810  0.49120  0.13904  1.0000
  C   C81       1.0  0.01891  0.17502  0.13346  1.0000
  C   C82       1.0  0.16526  0.19147  0.23837  1.0000
  H   H91       1.0  0.20816  0.24790  0.16535  1.0000
  H   H92       1.0  0.30032  0.00558  0.21788  1.0000
  H   H93       1.0  0.02256  0.29405  0.19045  1.0000
  S   S22       1.0  0.02140  0.34292  0.18835  1.0000
  C   C83       1.0  0.10011  0.19254  0.05321  1.0000
  C   C84       1.0  0.05482  0.32843  0.22588  1.0000
  H   H94       1.0  0.02391  0.48402  0.13069  1.0000
  H   H95       1.0  0.24096  0.22408  0.09796  1.0000
  S   S23       1.0  0.00376  0.19647  0.08502  1.0000
  H   H96       1.0  0.00665  0.32909  0.22507  1.0000
  C   C85       1.0  0.31701  0.20591  0.12337  1.0000
  C   C86       1.0  0.14737  0.17504  0.23574  1.0000
  C   C87       1.0  0.11275  0.15828  0.21717  1.0000
  H   H97       1.0  0.03119  0.38916  0.06881  1.0000
  Fe  Fe11      1.0  0.31795  0.29041  0.19886  1.0000
  C   C88       1.0  0.00651  0.20702  0.18718  1.0000
  H   H98       1.0  0.01977  0.21061  0.03921  1.0000
  H   H99       1.0  0.00787  0.24442  0.11145  1.0000
  C   C89       1.0  0.28707  0.08521  0.23723  1.0000
  S   S24       1.0  0.31724  0.27006  0.14432  1.0000
  H   H100      1.0  0.26648  0.10701  0.22832  1.0000
  S   S25       1.0  0.31968  0.18138  0.11577  1.0000
  C   C90       1.0  0.04089  0.31833  0.24257  1.0000
  C   C91       1.0  0.28791  0.12364  0.24231  1.0000
  H   H101      1.0  0.18239  0.18891  0.23655  1.0000
  C   C92       1.0  0.13990  0.21577  0.24418  1.0000
  C   C93       1.0  0.12179  0.19936  0.24172  1.0000
  H   H102      1.0  0.31216  0.13396  0.03895  1.0000
  H   H103      1.0  0.32491  0.10186  0.05977  1.0000
  H   H104      1.0  0.30616  0.06544  0.11129  1.0000
  H   H105      1.0  0.02647  0.41625  0.19639  1.0000
  H   H106      1.0  0.31883  0.16533  0.03658  1.0000
  H   H107      1.0  0.00150  0.45109  0.12202  1.0000
  H   H108      1.0  0.08509  0.18308  0.22839  1.0000
  H   H109      1.0  0.01498  0.26432  0.23967  1.0000
  H   H110      1.0  0.17572  0.22478  0.24412  1.0000
  C   C94       1.0  0.01534  0.35790  0.06230  1.0000
  H   H111      1.0  0.11794  0.13017  0.24461  1.0000
  S   S26       1.0  0.32991  0.06176  0.04793  1.0000
  C   C95       1.0  0.30363  0.08315  0.24606  1.0000
  H   H112      1.0  0.02115  0.42991  0.35684  1.0000
  S   S27       1.0  0.01298  0.34717  0.40457  1.0000
  C   C96       1.0  0.04167  0.46531  0.35382  1.0000
  H   H113      1.0  0.30978  0.06743  0.24747  1.0000
  Fe  Fe12      1.0  0.11020  0.33044  0.46460  1.0000
  C   C97       1.0  0.22735  0.32919  0.46572  1.0000
  H   H114      1.0  0.31746  0.14450  0.28404  1.0000
  C   C98       1.0  0.04956  0.23397  0.47597  1.0000
  H   H115      1.0  0.02013  0.39014  0.46898  1.0000
  S   S28       1.0  0.02254  0.32007  0.37431  1.0000
  S   S29       1.0  0.12499  0.30744  0.44998  1.0000
  N   N7        1.0  0.31420  0.14078  0.25926  1.0000
  C   C99       1.0  0.00925  0.19939  0.25346  1.0000
  H   H116      1.0  0.00924  0.20763  0.33157  1.0000
  S   S30       1.0  0.09809  0.36117  0.45301  1.0000
  S   S31       1.0  0.05792  0.48455  0.40569  1.0000
  Fe  Fe13      1.0  0.04119  0.35163  0.38120  1.0000
  H   H117      1.0  0.09566  0.49253  0.34927  1.0000
  S   S32       1.0  0.07799  0.35522  0.38217  1.0000
  H   H118      1.0  0.23725  0.28688  0.48175  1.0000
  C   C100      1.0  0.20318  0.32273  0.47089  1.0000
  C   C101      1.0  0.02679  0.29520  0.24718  1.0000
  C   C102      1.0  0.08285  0.49806  0.35802  1.0000
  H   H119      1.0  0.14402  0.39786  0.45742  1.0000
  C   C103      1.0  0.04388  0.47272  0.31917  1.0000
  S   S33       1.0  0.02941  0.37729  0.36359  1.0000
  H   H120      1.0  0.07385  0.27667  0.43870  1.0000
  H   H121      1.0  0.20172  0.42468  0.42598  1.0000
  C   C104      1.0  0.03756  0.46080  0.40324  1.0000
  H   H122      1.0  0.02330  0.43640  0.32606  1.0000
  H   H123      1.0  0.04464  0.27038  0.30936  1.0000
  C   C105      1.0  0.02406  0.26075  0.34466  1.0000
  C   C106      1.0  0.02903  0.42265  0.39667  1.0000
  C   C107      1.0  0.04449  0.44117  0.39981  1.0000
  C   C108      1.0  0.01192  0.23786  0.48953  1.0000
  C   C109      1.0  0.00664  0.24890  0.33815  1.0000
  H   H124      1.0  0.03468  0.40784  0.39365  1.0000
  H   H125      1.0  0.06202  0.44051  0.39921  1.0000
  C   C110      1.0  0.09331  0.36066  0.43293  1.0000
  C   C111      1.0  0.10724  0.35216  0.42148  1.0000
  C   C112      1.0  0.10286  0.35135  0.40568  1.0000
  C   C113      1.0  0.08414  0.35838  0.40145  1.0000
  C   C114      1.0  0.07038  0.36716  0.41280  1.0000
  C   C115      1.0  0.07518  0.36860  0.42841  1.0000
  H   H126      1.0  0.12157  0.34648  0.42466  1.0000
  H   H127      1.0  0.11367  0.34475  0.39686  1.0000
  H   H128      1.0  0.05633  0.37323  0.40940  1.0000
  H   H129      1.0  0.06470  0.37553  0.43715  1.0000
  H   H130      1.0  0.00513  0.25648  0.29670  1.0000
  Fe  Fe14      1.0  0.10062  0.27730  0.47155  1.0000
  H   H131      1.0  0.06054  0.23899  0.24849  1.0000
  S   S34       1.0  0.07961  0.24505  0.46665  1.0000
  C   C116      1.0  0.15544  0.39304  0.47982  1.0000
  H   H132      1.0  0.04101  0.32840  0.25196  1.0000
  H   H133      1.0  0.30785  0.22545  0.47533  1.0000
  H   H134      1.0  0.16370  0.39477  0.41389  1.0000
  C   C117      1.0  0.04113  0.29666  0.41416  1.0000
  H   H135      1.0  0.25872  0.33969  0.47312  1.0000
  H   H136      1.0  0.14422  0.38136  0.43459  1.0000
  S   S35       1.0  0.01657  0.23187  0.27192  1.0000
  C   C118      1.0  0.17681  0.38828  0.45276  1.0000
  C   C119      1.0  0.00068  0.25810  0.31000  1.0000
  H   H137      1.0  0.04947  0.31600  0.41087  1.0000
  H   H138      1.0  0.14054  0.39674  0.48717  1.0000
  C   C120      1.0  0.32889  0.22789  0.26445  1.0000
  C   C121      1.0  0.32427  0.22504  0.24905  1.0000
  H   H139      1.0  0.08077  0.30422  0.42231  1.0000
  H   H140      1.0  0.26143  0.27940  0.48796  1.0000
  H   H141      1.0  0.05443  0.32706  0.47078  1.0000
  S   S36       1.0  0.13623  0.33353  0.47971  1.0000
  H   H142      1.0  0.23624  0.32941  0.45295  1.0000
  N   N8        1.0  0.04490  0.28420  0.43028  1.0000
  S   S37       1.0  0.00524  0.34293  0.33247  1.0000
  C   C122      1.0  0.32437  0.23571  0.47579  1.0000
  H   H143      1.0  0.07549  0.27677  0.41696  1.0000
  C   C123      1.0  0.03655  0.29490  0.44405  1.0000
  C   C124      1.0  0.05141  0.30733  0.45214  1.0000
  H   H144      1.0  0.13729  0.23190  0.24708  1.0000
  C   C125      1.0  0.32555  0.25484  0.48302  1.0000
  H   H145      1.0  0.00690  0.18374  0.48203  1.0000
  C   C126      1.0  0.03178  0.45070  0.33060  1.0000
  C   C127      1.0  0.01921  0.31476  0.47048  1.0000
  H   H146      1.0  0.04412  0.26540  0.48274  1.0000
  C   C128      1.0  0.30466  0.12197  0.25160  1.0000
  C   C129      1.0  0.00641  0.42346  0.39735  1.0000
  C   C130      1.0  0.31238  0.10124  0.25308  1.0000
  H   H147      1.0  0.31046  0.17397  0.26389  1.0000
  H   H148      1.0  0.06982  0.30976  0.44868  1.0000
  H   H149      1.0  0.29274  0.12151  0.28458  1.0000
  H   H150      1.0  0.00616  0.27725  0.30943  1.0000
  C   C131      1.0  0.17190  0.38710  0.48775  1.0000
  C   C132      1.0  0.00638  0.37414  0.47569  1.0000
  H   H151      1.0  0.03020  0.38971  0.44142  1.0000
  H   H152      1.0  0.04609  0.24126  0.31991  1.0000
  H   H153      1.0  0.31692  0.23334  0.27331  1.0000
  C   C133      1.0  0.01490  0.46153  0.40399  1.0000
  C   C134      1.0  0.01490  0.20154  0.48231  1.0000
  H   H154      1.0  0.07741  0.16755  0.25084  1.0000
  C   C135      1.0  0.00214  0.21872  0.32273  1.0000
  H   H155      1.0  0.04016  0.46163  0.36734  1.0000
  H   H156      1.0  0.03972  0.24668  0.29962  1.0000
  H   H157      1.0  0.15936  0.41252  0.42840  1.0000
  H   H158      1.0  0.32405  0.29588  0.45249  1.0000
  H   H159      1.0  0.03198  0.27498  0.36517  1.0000
  H   H160      1.0  0.04828  0.29017  0.40314  1.0000
  H   H161      1.0  0.29926  0.05961  0.47775  1.0000
  C   C136      1.0  0.01854  0.26548  0.36060  1.0000
  S   S38       1.0  0.18749  0.31447  0.45668  1.0000
  C   C137      1.0  0.16100  0.39470  0.42759  1.0000
  N   N9        1.0  0.17999  0.38885  0.43447  1.0000
  C   C138      1.0  0.15774  0.39367  0.46258  1.0000
  C   C139      1.0  0.02521  0.21755  0.25634  1.0000
  C   C140      1.0  0.03668  0.25097  0.31221  1.0000
  S   S39       1.0  0.29873  0.32704  0.48071  1.0000
  C   C141      1.0  0.24011  0.33494  0.47715  1.0000
  S   S40       1.0  0.30000  0.26140  0.49190  1.0000
  S   S41       1.0  0.12638  0.27531  0.48686  1.0000
  H   H162      1.0  0.01265  0.32210  0.48068  1.0000
  Fe  Fe15      1.0  0.00768  0.34500  0.35896  1.0000
  H   H163      1.0  0.27557  0.03706  0.49345  1.0000
  H   H164      1.0  0.32536  0.09882  0.25963  1.0000
  C   C142      1.0  0.20179  0.40689  0.42408  1.0000
  C   C143      1.0  0.18135  0.36537  0.43208  1.0000
  C   C144      1.0  0.19321  0.38225  0.46130  1.0000
  H   H165      1.0  0.21716  0.40265  0.42751  1.0000
  H   H166      1.0  0.20454  0.40828  0.41017  1.0000
  H   H167      1.0  0.19697  0.36086  0.43477  1.0000
  H   H168      1.0  0.18197  0.36440  0.41876  1.0000
  H   H169      1.0  0.20794  0.37749  0.45482  1.0000
  H   H170      1.0  0.17320  0.31778  0.49149  1.0000
  H   H171      1.0  0.03295  0.24915  0.44750  1.0000
  C   C145      1.0  0.03063  0.44704  0.34791  1.0000
  H   H172      1.0  0.04202  0.26700  0.33756  1.0000
  C   C146      1.0  0.05514  0.49110  0.32497  1.0000
  H   H173      1.0  0.01840  0.38350  0.42469  1.0000
  H   H174      1.0  0.00933  0.47644  0.40685  1.0000
  C   C147      1.0  0.03879  0.21112  0.47559  1.0000
  C   C148      1.0  0.22872  0.33425  0.49379  1.0000
  H   H175      1.0  0.00270  0.41083  0.45045  1.0000
  S   S42       1.0  0.08425  0.30024  0.48500  1.0000
  C   C149      1.0  0.19077  0.38177  0.47850  1.0000
  H   H176      1.0  0.00617  0.21464  0.31012  1.0000
  C   C150      1.0  0.29292  0.04037  0.48456  1.0000
  N   N10       1.0  0.30907  0.03277  0.49400  1.0000
  C   C151      1.0  0.03192  0.25878  0.43481  1.0000
  C   C152      1.0  0.06984  0.28558  0.42698  1.0000
  C   C153      1.0  0.24344  0.28008  0.49295  1.0000
  Fe  Fe16      1.0  0.14916  0.30800  0.46681  1.0000
  H   H177      1.0  0.03878  0.24980  0.42527  1.0000
  H   H178      1.0  0.16614  0.35104  0.44080  1.0000
  C   C154      1.0  0.04274  0.31726  0.46503  1.0000
  N   N11       1.0  0.01166  0.24429  0.32110  1.0000
  C   C155      1.0  0.05453  0.48781  0.34255  1.0000
  H   H179      1.0  0.00147  0.24836  0.49452  1.0000
  H   H180      1.0  0.02254  0.29440  0.41504  1.0000
  H   H181      1.0  0.32999  0.02734  0.47136  1.0000
  C   C156      1.0  0.01283  0.29356  0.44947  1.0000
  H   H182      1.0  0.04469  0.47545  0.30570  1.0000
  H   H183      1.0  0.29062  0.03079  0.47469  1.0000
  H   H184      1.0  0.32110  0.11753  0.28015  1.0000
  C   C157      1.0  0.31119  0.13062  0.27777  1.0000
  H   H185      1.0  0.02058  0.35946  0.44066  1.0000
  C   C158      1.0  0.23060  0.23948  0.49308  1.0000
  C   C159      1.0  0.19183  0.32282  0.48734  1.0000
  H   H186      1.0  0.22638  0.24500  0.48072  1.0000
  H   H187      1.0  0.01334  0.25613  0.43537  1.0000
  Fe  Fe17      1.0  0.99979  0.37073  0.38660  1.0000
  H   H188      1.0  0.09878  0.13823  0.26046  1.0000
  H   H189      1.0  0.20344  0.37687  0.48476  1.0000
  C   C160      1.0  0.00455  0.36426  0.49292  1.0000
  C   C161      1.0  0.01656  0.37686  0.43860  1.0000
  H   H190      1.0  0.01620  0.28725  0.26022  1.0000
  H   H191      1.0  0.28421  0.15381  0.26412  1.0000
  C   C162      1.0  0.30306  0.16037  0.25777  1.0000
  H   H192      1.0  0.07404  0.48269  0.36942  1.0000
  H   H193      1.0  0.18815  0.23506  0.49473  1.0000
  H   H194      1.0  0.03966  0.49717  0.37303  1.0000
  C   C163      1.0  0.99934  0.44285  0.40113  1.0000
  H   H195      1.0  0.00082  0.28514  0.44343  1.0000
  H   H196      1.0  0.04901  0.20068  0.47012  1.0000
  C   C164      1.0  0.00423  0.30301  0.46266  1.0000
  C   C165      1.0  0.00135  0.21473  0.48938  1.0000
  H   H197      1.0  0.24874  0.23834  0.48967  1.0000
  C   C166      1.0  0.03608  0.24747  0.48289  1.0000
  Fe  Fe18      1.0  0.32984  0.34891  0.48554  1.0000
  C   C167      1.0  0.04815  0.22491  0.24630  1.0000
  C   C168      1.0  0.10260  0.13705  0.24699  1.0000
  S   S43       1.0  0.33017  0.03889  0.28557  1.0000
  H   H198      1.0  0.30853  0.22771  0.24638  1.0000
  H   H199      1.0  0.14921  0.35888  0.59827  1.0000
  H   H200      1.0  0.29680  0.04742  0.51468  1.0000
  H   H201      1.0  0.06394  0.24441  0.70920  1.0000
  S   S44       1.0  0.24391  0.33857  0.50912  1.0000
  C   C169      1.0  0.04301  0.20968  0.72474  1.0000
  H   H202      1.0  0.03673  0.24453  0.52993  1.0000
  H   H203      1.0  0.23723  0.26234  0.52629  1.0000
  S   S45       1.0  0.10244  0.29420  0.52720  1.0000
  S   S46       1.0  0.32285  0.29135  0.71860  1.0000
  H   H204      1.0  0.14976  0.23954  0.50368  1.0000
  H   H205      1.0  0.05742  0.27039  0.53047  1.0000
  S   S47       1.0  0.09828  0.38796  0.54880  1.0000
  H   H206      1.0  0.00794  0.27373  0.51322  1.0000
  Fe  Fe19      1.0  0.12978  0.34581  0.67948  1.0000
  S   S48       1.0  0.13066  0.30885  0.69110  1.0000
  S   S49       1.0  0.13021  0.36065  0.65203  1.0000
  Fe  Fe20      1.0  0.13013  0.36030  0.71242  1.0000
  S   S50       1.0  0.13088  0.32464  0.72701  1.0000
  Fe  Fe21      1.0  0.15711  0.32663  0.70290  1.0000
  S   S51       1.0  0.19017  0.31583  0.70204  1.0000
  Fe  Fe22      1.0  0.10467  0.31022  0.71411  1.0000
  S   S52       1.0  0.06929  0.28590  0.72824  1.0000
  S   S53       1.0  0.15826  0.36352  0.68934  1.0000
  S   S54       1.0  0.10187  0.34580  0.70145  1.0000
  Fe  Fe23      1.0  0.30214  0.36398  0.72811  1.0000
  Fe  Fe24      1.0  0.27942  0.33280  0.50486  1.0000
  H   H207      1.0  0.00937  0.15706  0.72272  1.0000
  H   H208      1.0  0.05825  0.20354  0.72412  1.0000
  H   H209      1.0  0.10802  0.42415  0.62090  1.0000
  H   H210      1.0  0.14345  0.40986  0.68406  1.0000
  S   S55       1.0  0.28299  0.30018  0.52190  1.0000
  H   H211      1.0  0.09759  0.35926  0.58188  1.0000
  C   C170      1.0  0.13979  0.41746  0.67180  1.0000
  H   H212      1.0  0.10504  0.48722  0.63650  1.0000
  C   C171      1.0  0.04157  0.26425  0.52646  1.0000
  H   H213      1.0  0.09971  0.39557  0.69675  1.0000
  C   C172      1.0  0.09849  0.40406  0.68382  1.0000
  C   C173      1.0  0.10942  0.43426  0.63021  1.0000
  H   H214      1.0  0.04550  0.33903  0.66398  1.0000
  C   C174      1.0  0.03042  0.29949  0.53091  1.0000
  C   C175      1.0  0.15879  0.26316  0.51881  1.0000
  C   C176      1.0  0.21202  0.33284  0.70877  1.0000
  C   C177      1.0  0.23446  0.33026  0.70466  1.0000
  C   C178      1.0  0.25180  0.34248  0.71076  1.0000
  C   C179      1.0  0.24678  0.35732  0.72109  1.0000
  H   H215      1.0  0.25373  0.24673  0.51525  1.0000
  C   C180      1.0  0.20717  0.34812  0.71873  1.0000
  H   H216      1.0  0.23842  0.31870  0.69680  1.0000
  H   H217      1.0  0.26894  0.34018  0.70768  1.0000
  H   H218      1.0  0.06062  0.46341  0.62883  1.0000
  C   C181      1.0  0.22448  0.36026  0.72489  1.0000
  H   H219      1.0  0.31107  0.36531  0.64514  1.0000
  C   C182      1.0  0.31728  0.26860  0.73723  1.0000
  C   C183      1.0  0.17638  0.27528  0.52441  1.0000
  C   C184      1.0  0.06226  0.35854  0.63769  1.0000
  C   C185      1.0  0.08347  0.37013  0.62559  1.0000
  C   C186      1.0  0.10415  0.37083  0.63023  1.0000
  C   C187      1.0  0.10378  0.35994  0.64699  1.0000
  C   C188      1.0  0.08258  0.34874  0.65923  1.0000
  C   C189      1.0  0.06187  0.34804  0.65456  1.0000
  H   H220      1.0  0.08391  0.37819  0.61262  1.0000
  H   H221      1.0  0.12051  0.37966  0.62078  1.0000
  H   H222      1.0  0.08210  0.34017  0.67216  1.0000
  H   H223      1.0  0.13512  0.45699  0.68043  1.0000
  S   S56       1.0  0.06725  0.40538  0.58826  1.0000
  C   C190      1.0  0.05849  0.47312  0.61701  1.0000
  S   S57       1.0  0.04146  0.45892  0.57489  1.0000
  C   C191      1.0  0.05233  0.46100  0.60519  1.0000
  S   S58       1.0  0.31026  0.35737  0.50857  1.0000
  C   C192      1.0  0.04791  0.33851  0.51003  1.0000
  C   C193      1.0  0.02713  0.31154  0.54386  1.0000
  H   H224      1.0  0.25910  0.31608  0.73947  1.0000
  H   H225      1.0  0.11236  0.47068  0.66337  1.0000
  H   H226      1.0  0.21201  0.28378  0.52345  1.0000
  C   C194      1.0  0.10110  0.32033  0.53295  1.0000
  C   C195      1.0  0.11719  0.34190  0.52352  1.0000
  C   C196      1.0  0.11615  0.36263  0.52846  1.0000
  C   C197      1.0  0.09879  0.36191  0.54262  1.0000
  C   C198      1.0  0.08269  0.34033  0.55200  1.0000
  C   C199      1.0  0.08399  0.31951  0.54729  1.0000
  C   C200      1.0  0.18575  0.24624  0.50318  1.0000
  H   H227      1.0  0.12876  0.37927  0.52129  1.0000
  H   H228      1.0  0.06945  0.33953  0.56301  1.0000
  H   H229      1.0  0.07157  0.30282  0.55463  1.0000
  H   H230      1.0  0.12696  0.37315  0.57062  1.0000
  H   H231      1.0  0.04613  0.26984  0.51232  1.0000
  H   H232      1.0  0.13877  0.40335  0.66499  1.0000
  S   S59       1.0  0.03612  0.35609  0.63188  1.0000
  Fe  Fe25      1.0  0.03795  0.37399  0.60458  1.0000
  H   H233      1.0  0.04993  0.44208  0.60784  1.0000
  C   C201      1.0  0.21633  0.26961  0.71520  1.0000
  Fe  Fe26      1.0  0.03969  0.41993  0.58010  1.0000
  C   C202      1.0  0.04901  0.47338  0.59008  1.0000
  H   H234      1.0  0.32037  0.06756  0.49784  1.0000
  S   S60       1.0  0.03849  0.35364  0.58471  1.0000
  H   H235      1.0  0.00096  0.48536  0.62242  1.0000
  S   S61       1.0  0.04072  0.40366  0.55813  1.0000
  H   H236      1.0  0.07392  0.32514  0.59909  1.0000
  H   H237      1.0  0.22050  0.37179  0.73280  1.0000
  H   H238      1.0  0.01049  0.24130  0.55541  1.0000
  N   N12       1.0  0.02274  0.27333  0.53454  1.0000
  C   C203      1.0  0.19876  0.27315  0.51935  1.0000
  C   C204      1.0  0.30458  0.33936  0.66857  1.0000
  S   S62       1.0  0.26748  0.37160  0.73013  1.0000
  C   C205      1.0  0.05150  0.49777  0.58702  1.0000
  C   C206      1.0  0.20460  0.32889  0.49866  1.0000
  S   S63       1.0  0.32770  0.31529  0.54741  1.0000
  C   C207      1.0  0.30675  0.24536  0.73750  1.0000
  H   H239      1.0  0.10419  0.44605  0.69022  1.0000
  H   H240      1.0  0.01668  0.37258  0.49908  1.0000
  C   C208      1.0  0.11497  0.43672  0.65829  1.0000
  C   C209      1.0  0.03731  0.16223  0.74351  1.0000
  C   C210      1.0  0.06627  0.30866  0.62564  1.0000
  H   H241      1.0  0.15500  0.43253  0.66406  1.0000
  C   C211      1.0  0.12032  0.44080  0.68643  1.0000
  H   H242      1.0  0.30316  0.24148  0.72603  1.0000
  C   C212      1.0  0.11367  0.42432  0.64561  1.0000
  H   H243      1.0  0.03132  0.26183  0.71033  1.0000
  C   C213      1.0  0.03406  0.33628  0.53988  1.0000
  H   H244      1.0  0.30246  0.31291  0.69123  1.0000
  H   H245      1.0  0.09302  0.49393  0.55988  1.0000
  H   H246      1.0  0.04226  0.30593  0.50328  1.0000
  C   C214      1.0  0.07477  0.30260  0.63970  1.0000
  Fe  Fe27      1.0  0.11178  0.30083  0.49870  1.0000
  H   H247      1.0  0.26763  0.25879  0.70088  1.0000
  H   H248      1.0  0.09740  0.39022  0.67674  1.0000
  C   C215      1.0  0.31715  0.35145  0.65168  1.0000
  H   H249      1.0  0.32388  0.34262  0.61549  1.0000
  H   H250      1.0  0.11653  0.37413  0.59226  1.0000
  C   C216      1.0  0.00301  0.26681  0.52738  1.0000
  H   H251      1.0  0.32903  0.36497  0.54347  1.0000
  C   C217      1.0  0.32626  0.20042  0.51944  1.0000
  C   C218      1.0  0.02055  0.19510  0.73434  1.0000
  H   H252      1.0  0.21948  0.22132  0.50021  1.0000
  H   H253      1.0  0.17282  0.28702  0.53228  1.0000
  H   H254      1.0  0.04666  0.16308  0.73028  1.0000
  H   H255      1.0  0.20083  0.27094  0.71134  1.0000
  Fe  Fe28      1.0  0.31527  0.32417  0.52382  1.0000
  H   H256      1.0  0.16989  0.38632  0.50116  1.0000
  C   C219      1.0  0.20413  0.25840  0.50868  1.0000
  H   H257      1.0  0.02939  0.26577  0.55927  1.0000
  H   H258      1.0  0.12338  0.43173  0.69857  1.0000
  H   H259      1.0  0.15735  0.35750  0.57657  1.0000
  H   H260      1.0  0.15237  0.33153  0.59349  1.0000
  H   H261      1.0  0.04778  0.30488  0.62736  1.0000
  Fe  Fe29      1.0  0.06568  0.38642  0.56781  1.0000
  C   C220      1.0  0.01535  0.26090  0.55309  1.0000
  H   H262      1.0  0.10729  0.48006  0.58382  1.0000
  C   C221      1.0  0.09848  0.30848  0.63769  1.0000
  H   H263      1.0  0.06292  0.29407  0.65228  1.0000
  H   H264      1.0  0.13190  0.32538  0.62127  1.0000
  N   N13       1.0  0.12140  0.34048  0.58988  1.0000
  C   C222      1.0  0.11893  0.32562  0.57785  1.0000
  C   C223      1.0  0.11534  0.36261  0.58345  1.0000
  C   C224      1.0  0.14615  0.34733  0.58962  1.0000
  C   C225      1.0  0.10574  0.32730  0.60704  1.0000
  C   C226      1.0  0.11385  0.32069  0.62166  1.0000
  C   C227      1.0  0.08145  0.32063  0.60952  1.0000
  H   H265      1.0  0.10501  0.30454  0.64880  1.0000
  C   C228      1.0  0.29949  0.00734  0.50336  1.0000
  H   H266      1.0  0.18999  0.35032  0.72193  1.0000
  H   H267      1.0  0.12386  0.30904  0.58197  1.0000
  H   H268      1.0  0.10092  0.32028  0.57697  1.0000
  H   H269      1.0  0.12980  0.33519  0.56458  1.0000
  H   H270      1.0  0.08189  0.40884  0.68546  1.0000
  Fe  Fe30      1.0  0.30508  0.29666  0.49800  1.0000
  C   C229      1.0  0.04033  0.31381  0.51382  1.0000
  H   H271      1.0  0.28924  0.34380  0.67450  1.0000
  S   S64       1.0  0.12520  0.39046  0.72342  1.0000
  C   C230      1.0  0.11190  0.45986  0.65453  1.0000
  C   C231      1.0  0.11208  0.49892  0.57776  1.0000
  H   H272      1.0  0.13078  0.34253  0.51269  1.0000
  N   N14       1.0  0.11838  0.42518  0.67481  1.0000
  S   S65       1.0  0.32258  0.35645  0.70522  1.0000
  C   C232      1.0  0.21924  0.27484  0.73036  1.0000
  C   C233      1.0  0.31307  0.04859  0.50528  1.0000
  H   H273      1.0  0.03125  0.34514  0.54994  1.0000
  H   H274      1.0  0.05082  0.36885  0.52024  1.0000
  H   H275      1.0  0.14158  0.26538  0.52240  1.0000
  C   C234      1.0  0.23948  0.27374  0.73565  1.0000
  H   H276      1.0  0.11560  0.40662  0.64766  1.0000
  H   H277      1.0  0.99971  0.26487  0.55981  1.0000
  C   C235      1.0  0.25692  0.26787  0.72449  1.0000
  C   C236      1.0  0.16346  0.24865  0.50824  1.0000
  C   C237      1.0  0.04485  0.34971  0.52308  1.0000
  H   H278      1.0  0.19570  0.32866  0.51143  1.0000
  C   C238      1.0  0.32755  0.22089  0.52507  1.0000
  H   H279      1.0  0.14620  0.36032  0.74313  1.0000
  N   N15       1.0  0.22803  0.25661  0.50342  1.0000
  Fe  Fe31      1.0  0.01326  0.37221  0.57644  1.0000
  H   H280      1.0  0.31906  0.23332  0.51964  1.0000
  C   C239      1.0  0.10651  0.45693  0.62693  1.0000
  C   C240      1.0  0.23608  0.24907  0.51878  1.0000
  H   H281      1.0  0.27314  0.26716  0.72712  1.0000
  H   H282      1.0  0.31249  0.23267  0.56388  1.0000
  H   H283      1.0  0.32324  0.37183  0.61733  1.0000
  H   H284      1.0  0.29725  0.01067  0.52950  1.0000
  C   C241      1.0  0.10775  0.46970  0.63904  1.0000
  C   C242      1.0  0.00209  0.20564  0.73440  1.0000
  H   H285      1.0  0.23150  0.26025  0.69271  1.0000
  C   C243      1.0  0.23368  0.26377  0.70463  1.0000
  H   H286      1.0  0.01924  0.30232  0.55718  1.0000
  C   C244      1.0  0.31199  0.32199  0.67804  1.0000
  C   C245      1.0  0.25397  0.26300  0.70923  1.0000
  C   C246      1.0  0.04660  0.23331  0.71597  1.0000
  H   H287      1.0  0.24450  0.29346  0.50037  1.0000
  H   H288      1.0  0.31743  0.19781  0.50972  1.0000
  H   H289      1.0  0.10291  0.46448  0.61509  1.0000
  H   H290      1.0  0.30644  0.24703  0.54475  1.0000
  Fe  Fe32      1.0  0.32723  0.32668  0.72421  1.0000
  C   C247      1.0  0.02818  0.24322  0.71663  1.0000
  C   C248      1.0  0.06212  0.49772  0.61352  1.0000
  H   H291      1.0  0.22425  0.23200  0.52742  1.0000
  S   S66       1.0  0.01007  0.38993  0.59790  1.0000
  H   H292      1.0  0.99907  0.45843  0.60420  1.0000
  H   H293      1.0  0.09969  0.25543  0.73164  1.0000
  C   C249      1.0  0.00112  0.15447  0.73653  1.0000
  C   C250      1.0  0.31936  0.24800  0.55228  1.0000
  C   C251      1.0  0.00595  0.22939  0.72575  1.0000
  H   H294      1.0  0.32586  0.04450  0.51227  1.0000
  H   H295      1.0  0.20572  0.28045  0.73761  1.0000
  H   H296      1.0  0.99766  0.13540  0.74322  1.0000
  C   C252      1.0  0.08353  0.24732  0.74148  1.0000
  N   N16       1.0  0.01601  0.17003  0.74392  1.0000
  H   H297      1.0  0.32037  0.26451  0.55653  1.0000
  H   H298      1.0  0.06630  0.39866  0.73676  1.0000
  C   C253      1.0  0.06618  0.25892  0.74280  1.0000
  H   H299      1.0  0.07624  0.36170  0.74223  1.0000
  C   C254      1.0  0.12412  0.38331  0.74521  1.0000
  H   H300      1.0  0.07156  0.32236  0.74507  1.0000
  H   H301      1.0  0.05630  0.34901  0.49693  1.0000
  S   S67       1.0  0.32711  0.23501  0.95841  1.0000
  C   C255      1.0  0.32365  0.33702  0.82714  1.0000
  H   H302      1.0  0.08651  0.38770  0.87368  1.0000
  H   H303      1.0  0.01029  0.31189  0.87356  1.0000
  C   C256      1.0  0.28730  0.21892  0.88320  1.0000
  H   H304      1.0  0.04926  0.17324  0.74898  1.0000
  H   H305      1.0  0.00228  0.14849  0.77020  1.0000
  C   C257      1.0  0.02201  0.24754  0.91533  1.0000
  C   C258      1.0  0.00121  0.24489  0.87717  1.0000
  H   H306      1.0  0.29008  0.28048  0.89590  1.0000
  C   C259      1.0  0.29879  0.20147  0.88605  1.0000
  C   C260      1.0  0.01752  0.27986  0.88539  1.0000
  H   H307      1.0  0.04628  0.44511  0.87437  1.0000
  C   C261      1.0  0.32181  0.27361  0.75210  1.0000
  H   H308      1.0  0.11180  0.47663  0.89645  1.0000
  H   H309      1.0  0.12390  0.21700  0.97535  1.0000
  S   S68       1.0  0.02617  0.21151  0.81402  1.0000
  C   C262      1.0  0.01418  0.25521  0.88733  1.0000
  Fe  Fe33      1.0  0.02512  0.18086  0.80282  1.0000
  S   S69       1.0  0.05360  0.18620  0.77924  1.0000
  H   H310      1.0  0.30784  0.14774  0.82819  1.0000
  S   S70       1.0  0.04247  0.20201  0.85325  1.0000
  C   C263      1.0  0.30344  0.29424  0.86848  1.0000
  H   H311      1.0  0.05330  0.24339  0.87769  1.0000
  Fe  Fe34      1.0  0.05642  0.39714  0.83003  1.0000
  S   S71       1.0  0.08482  0.38408  0.83816  1.0000
  S   S72       1.0  0.05182  0.43397  0.82695  1.0000
  Fe  Fe35      1.0  0.03003  0.34794  0.82919  1.0000
  S   S73       1.0  0.05588  0.33072  0.83745  1.0000
  Fe  Fe36      1.0  0.05630  0.35311  0.85586  1.0000
  S   S74       1.0  0.05427  0.33896  0.88357  1.0000
  Fe  Fe37      1.0  0.08208  0.36306  0.81892  1.0000
  S   S75       1.0  0.11295  0.35666  0.80271  1.0000
  S   S76       1.0  0.02794  0.36763  0.84930  1.0000
  S   S77       1.0  0.05602  0.37865  0.80914  1.0000
  Fe  Fe38      1.0  0.08179  0.22650  0.95628  1.0000
  S   S78       1.0  0.11862  0.24731  0.94265  1.0000
  Fe  Fe39      1.0  0.08016  0.19397  0.93274  1.0000
  S   S79       1.0  0.11711  0.21107  0.91770  1.0000
  S   S80       1.0  0.05557  0.16516  0.92660  1.0000
  Fe  Fe40      1.0  0.12448  0.21177  0.94296  1.0000
  S   S81       1.0  0.15400  0.20030  0.95101  1.0000
  Fe  Fe41      1.0  0.10822  0.24511  0.91857  1.0000
  S   S82       1.0  0.11994  0.27326  0.89350  1.0000
  S   S83       1.0  0.08824  0.19094  0.95813  1.0000
  S   S84       1.0  0.07083  0.22802  0.93206  1.0000
  H   H312      1.0  0.01951  0.30045  0.78276  1.0000
  H   H313      1.0  0.21889  0.24565  0.76710  1.0000
  S   S85       1.0  0.30291  0.27647  0.96707  1.0000
  C   C264      1.0  0.04913  0.34449  0.76644  1.0000
  S   S86       1.0  0.29829  0.25774  0.93325  1.0000
  C   C265      1.0  0.08994  0.40617  0.87494  1.0000
  H   H314      1.0  0.26434  0.27842  0.76880  1.0000
  Fe  Fe42      1.0  0.27408  0.25912  0.95712  1.0000
  S   S87       1.0  0.24348  0.27321  0.95457  1.0000
  S   S88       1.0  0.27081  0.22218  0.97188  1.0000
  C   C266      1.0  0.02515  0.37030  0.77415  1.0000
  C   C267      1.0  0.13519  0.36698  0.75172  1.0000
  H   H315      1.0  0.06557  0.30184  0.79102  1.0000
  C   C268      1.0  0.11102  0.39296  0.75632  1.0000
  H   H316      1.0  0.01963  0.20934  0.89068  1.0000
  Fe  Fe43      1.0  0.32663  0.27109  0.94450  1.0000
  H   H317      1.0  0.02376  0.20582  0.91135  1.0000
  H   H318      1.0  0.10280  0.40595  0.75131  1.0000
  Fe  Fe44      1.0  0.30965  0.22375  0.84173  1.0000
  H   H319      1.0  0.02523  0.21811  0.77642  1.0000
  N   N17       1.0  0.24211  0.27928  0.75181  1.0000
  C   C269      1.0  0.17808  0.22104  0.95257  1.0000
  C   C270      1.0  0.18145  0.24547  0.94681  1.0000
  C   C271      1.0  0.20123  0.26137  0.94794  1.0000
  C   C272      1.0  0.21808  0.25294  0.95433  1.0000
  C   C273      1.0  0.21464  0.22851  0.96003  1.0000
  C   C274      1.0  0.19463  0.21266  0.95933  1.0000
  H   H320      1.0  0.16897  0.25215  0.94137  1.0000
  H   H321      1.0  0.20383  0.28025  0.94339  1.0000
  H   H322      1.0  0.22735  0.22176  0.96505  1.0000
  H   H323      1.0  0.19217  0.19378  0.96380  1.0000
  C   C275      1.0  0.11824  0.36824  0.78059  1.0000
  C   C276      1.0  0.10786  0.38522  0.77403  1.0000
  H   H324      1.0  0.32616  0.08931  0.76084  1.0000
  C   C277      1.0  0.31918  0.14192  0.98177  1.0000
  H   H325      1.0  0.20568  0.26958  0.76498  1.0000
  C   C278      1.0  0.13236  0.35956  0.76939  1.0000
  H   H326      1.0  0.09757  0.39257  0.78254  1.0000
  C   C279      1.0  0.31686  0.09727  0.81917  1.0000
  C   C280      1.0  0.01581  0.21561  0.90234  1.0000
  H   H327      1.0  0.14102  0.34699  0.77436  1.0000
  C   C281      1.0  0.07330  0.32164  0.88644  1.0000
  C   C282      1.0  0.09015  0.32108  0.87244  1.0000
  C   C283      1.0  0.10481  0.30661  0.87483  1.0000
  C   C284      1.0  0.10236  0.29231  0.89114  1.0000
  C   C285      1.0  0.08557  0.29295  0.90517  1.0000
  C   C286      1.0  0.07119  0.30779  0.90283  1.0000
  H   H328      1.0  0.09207  0.33201  0.85980  1.0000
  H   H329      1.0  0.11806  0.30640  0.86404  1.0000
  H   H330      1.0  0.08382  0.28219  0.91782  1.0000
  H   H331      1.0  0.05829  0.30835  0.91371  1.0000
  C   C287      1.0  0.04729  0.18879  0.87273  1.0000
  C   C288      1.0  0.03207  0.16795  0.88421  1.0000
  C   C289      1.0  0.03501  0.16020  0.90065  1.0000
  C   C290      1.0  0.05302  0.17338  0.90562  1.0000
  C   C291      1.0  0.06844  0.19380  0.89395  1.0000
  C   C292      1.0  0.06570  0.20130  0.87757  1.0000
  C   C293      1.0  0.30085  0.29682  0.83415  1.0000
  H   H332      1.0  0.07539  0.39777  0.90895  1.0000
  H   H333      1.0  0.08243  0.20400  0.89759  1.0000
  H   H334      1.0  0.07769  0.21722  0.86881  1.0000
  C   C294      1.0  0.05859  0.21425  0.76527  1.0000
  C   C295      1.0  0.04151  0.22613  0.76674  1.0000
  C   C296      1.0  0.06162  0.39491  0.90227  1.0000
  H   H335      1.0  0.08842  0.50214  0.88628  1.0000
  H   H336      1.0  0.27902  0.28600  0.74677  1.0000
  H   H337      1.0  0.07831  0.30260  0.76115  1.0000
  C   C297      1.0  0.30575  0.11471  0.82165  1.0000
  C   C298      1.0  0.27850  0.21719  0.91336  1.0000
  C   C299      1.0  0.07959  0.22480  0.75259  1.0000
  H   H338      1.0  0.29764  0.16096  0.77648  1.0000
  C   C300      1.0  0.03485  0.30178  0.77238  1.0000
  H   H339      1.0  0.02010  0.33540  0.78910  1.0000
  H   H340      1.0  0.31922  0.25920  0.77873  1.0000
  Fe  Fe45      1.0  0.01857  0.18482  0.83932  1.0000
  S   S89       1.0  0.06254  0.23708  0.97849  1.0000
  H   H341      1.0  0.29736  0.18736  0.98830  1.0000
  C   C301      1.0  0.00395  0.16644  0.76214  1.0000
  S   S90       1.0  0.01994  0.15428  0.82774  1.0000
  H   H342      1.0  0.28938  0.28155  0.86668  1.0000
  C   C302      1.0  0.09741  0.49464  0.84039  1.0000
  H   H343      1.0  0.03248  0.26561  0.91431  1.0000
  S   S91       1.0  0.30441  0.33239  0.74684  1.0000
  H   H344      1.0  0.29912  0.27777  0.83967  1.0000
  H   H345      1.0  0.30167  0.29887  0.82035  1.0000
  C   C303      1.0  0.24388  0.30471  0.75009  1.0000
  S   S92       1.0  0.31108  0.02159  0.84171  1.0000
  H   H346      1.0  0.12025  0.25561  0.98081  1.0000
  H   H347      1.0  0.10279  0.43508  0.89617  1.0000
  H   H348      1.0  0.10780  0.26888  0.76261  1.0000
  C   C304      1.0  0.06159  0.47614  0.83484  1.0000
  C   C305      1.0  0.06936  0.45639  0.83293  1.0000
  C   C306      1.0  0.09114  0.45562  0.83497  1.0000
  C   C307      1.0  0.10511  0.47471  0.83874  1.0000
  H   H349      1.0  0.05545  0.48574  0.87588  1.0000
  H   H350      1.0  0.04479  0.47688  0.83324  1.0000
  H   H351      1.0  0.09747  0.44070  0.83313  1.0000
  H   H352      1.0  0.12207  0.47424  0.84009  1.0000
  C   C308      1.0  0.30362  0.29335  0.88543  1.0000
  C   C309      1.0  0.09209  0.44553  0.89158  1.0000
  H   H353      1.0  0.31952  0.13018  0.97349  1.0000
  H   H354      1.0  0.02969  0.30368  0.76020  1.0000
  C   C310      1.0  0.09132  0.49758  0.79113  1.0000
  H   H355      1.0  0.05481  0.41453  0.86280  1.0000
  C   C311      1.0  0.07554  0.49514  0.83855  1.0000
  C   C312      1.0  0.07485  0.32017  0.75790  1.0000
  C   C313      1.0  0.30668  0.17410  0.99005  1.0000
  N   N18       1.0  0.05494  0.32174  0.77082  1.0000
  H   H356      1.0  0.12374  0.19339  0.99261  1.0000
  H   H357      1.0  0.03391  0.40507  0.75697  1.0000
  Fe  Fe46      1.0  0.29693  0.22187  0.94869  1.0000
  H   H358      1.0  0.30285  0.13697  0.79044  1.0000
  H   H359      1.0  0.26812  0.23998  0.89460  1.0000
  C   C314      1.0  0.06544  0.47431  0.88050  1.0000
  H   H360      1.0  0.28883  0.11316  0.81957  1.0000
  C   C315      1.0  0.00755  0.29309  0.87470  1.0000
  H   H361      1.0  0.99852  0.22652  0.87715  1.0000
  H   H362      1.0  0.03155  0.25692  0.75618  1.0000
  H   H363      1.0  0.10410  0.40832  0.88127  1.0000
  H   H364      1.0  0.04731  0.38485  0.87587  1.0000
  C   C316      1.0  0.29085  0.20056  0.91619  1.0000
  C   C317      1.0  0.08400  0.48360  0.88640  1.0000
  C   C318      1.0  0.07372  0.43565  0.88514  1.0000
  N   N19       1.0  0.20724  0.21620  0.90124  1.0000
  C   C319      1.0  0.21015  0.19943  0.91601  1.0000
  C   C320      1.0  0.18212  0.21286  0.90354  1.0000
  C   C321      1.0  0.21703  0.20956  0.88559  1.0000
  C   C322      1.0  0.21855  0.24137  0.89951  1.0000
  C   C323      1.0  0.22980  0.24878  0.91153  1.0000
  C   C324      1.0  0.21810  0.25944  0.88558  1.0000
  C   C325      1.0  0.24037  0.27272  0.90939  1.0000
  C   C326      1.0  0.22859  0.28334  0.88365  1.0000
  C   C327      1.0  0.23976  0.28995  0.89552  1.0000
  H   H365      1.0  0.20189  0.20232  0.92835  1.0000
  H   H366      1.0  0.20180  0.18066  0.91681  1.0000
  H   H367      1.0  0.22869  0.20093  0.91514  1.0000
  H   H368      1.0  0.17821  0.22283  0.89216  1.0000
  H   H369      1.0  0.17454  0.21907  0.91461  1.0000
  H   H370      1.0  0.17255  0.19390  0.90609  1.0000
  H   H371      1.0  0.23611  0.21291  0.88306  1.0000
  H   H372      1.0  0.20963  0.19046  0.88675  1.0000
  H   H373      1.0  0.21366  0.21958  0.87399  1.0000
  H   H374      1.0  0.23073  0.23648  0.92271  1.0000
  H   H375      1.0  0.20935  0.25521  0.87619  1.0000
  H   H376      1.0  0.24881  0.27796  0.91875  1.0000
  H   H377      1.0  0.22776  0.29682  0.87303  1.0000
  H   H378      1.0  0.24770  0.30848  0.89414  1.0000
  N   N20       1.0  0.08827  0.27411  0.82808  1.0000
  C   C328      1.0  0.09874  0.29754  0.83039  1.0000
  C   C329      1.0  0.06287  0.26871  0.83488  1.0000
  C   C330      1.0  0.09665  0.25639  0.83849  1.0000
  C   C331      1.0  0.09395  0.27315  0.81004  1.0000
  C   C332      1.0  0.08521  0.25186  0.80583  1.0000
  C   C333      1.0  0.10806  0.29291  0.79625  1.0000
  C   C334      1.0  0.09014  0.25043  0.78893  1.0000
  C   C335      1.0  0.11289  0.29127  0.77936  1.0000
  C   C336      1.0  0.10394  0.27009  0.77571  1.0000
  H   H379      1.0  0.09261  0.31157  0.82330  1.0000
  H   H380      1.0  0.09398  0.29776  0.84403  1.0000
  H   H381      1.0  0.11794  0.30264  0.82603  1.0000
  H   H382      1.0  0.05787  0.27000  0.84827  1.0000
  H   H383      1.0  0.05366  0.25050  0.83506  1.0000
  H   H384      1.0  0.05591  0.28121  0.82696  1.0000
  H   H385      1.0  0.08775  0.23792  0.83900  1.0000
  H   H386      1.0  0.11549  0.25915  0.83318  1.0000
  H   H387      1.0  0.09382  0.25747  0.85197  1.0000
  H   H388      1.0  0.07452  0.23603  0.81564  1.0000
  H   H389      1.0  0.11560  0.30985  0.79813  1.0000
  H   H390      1.0  0.08331  0.23386  0.78612  1.0000
  H   H391      1.0  0.12375  0.30652  0.76903  1.0000
  H   H392      1.0  0.09641  0.49479  0.80326  1.0000
  S   S93       1.0  0.29615  0.19208  0.93620  1.0000
  H   H393      1.0  0.01967  0.29159  0.82710  1.0000
  Fe  Fe47      1.0  0.31374  0.21665  0.80628  1.0000
  H   H394      1.0  0.30989  0.17914  0.90477  1.0000
  H   H395      1.0  0.02760  0.23550  0.92475  1.0000
  C   C337      1.0  0.03052  0.34871  0.77754  1.0000
  S   S94       1.0  0.29555  0.20918  0.78651  1.0000
  S   S95       1.0  0.30377  0.01010  0.80578  1.0000
  S   S96       1.0  0.30187  0.19130  0.83244  1.0000
  H   H396      1.0  0.02303  0.14433  0.90967  1.0000
  C   C338      1.0  0.22177  0.26487  0.76623  1.0000
  S   S97       1.0  0.30443  0.07493  0.81042  1.0000
  S   S98       1.0  0.28591  0.23202  0.86268  1.0000
  H   H397      1.0  0.05610  0.18616  0.98903  1.0000
  C   C339      1.0  0.27699  0.22654  0.89687  1.0000
  H   H398      1.0  0.30933  0.34338  0.83343  1.0000
  C   C340      1.0  0.11729  0.20923  0.98944  1.0000
  H   H399      1.0  0.01111  0.37309  0.78314  1.0000
  C   C341      1.0  0.30454  0.23218  0.76762  1.0000
  N   N21       1.0  0.06887  0.41060  0.88459  1.0000
  Fe  Fe48      1.0  0.30138  0.23917  0.98016  1.0000
  H   H400      1.0  0.28488  0.30101  0.84014  1.0000
  C   C342      1.0  0.04517  0.24822  0.75536  1.0000
  S   S99       1.0  0.31786  0.24893  0.81585  1.0000
  N   N22       1.0  0.02521  0.24170  0.89860  1.0000
  H   H401      1.0  0.09664  0.41847  0.86183  1.0000
  C   C343      1.0  0.05021  0.24811  0.89006  1.0000
  H   H402      1.0  0.30651  0.19525  0.87551  1.0000
  H   H403      1.0  0.27006  0.22282  0.92393  1.0000
  H   H404      1.0  0.32744  0.02468  0.90000  1.0000
  H   H405      1.0  0.09821  0.20302  0.99222  1.0000
  H   H406      1.0  0.26286  0.25570  0.75779  1.0000
  H   H407      1.0  0.09286  0.21566  0.75146  1.0000
  H   H408      1.0  0.22402  0.26751  0.77872  1.0000
  H   H409      1.0  0.00813  0.25136  0.82248  1.0000
  H   H410      1.0  0.04628  0.31816  0.79808  1.0000
  H   H411      1.0  0.30852  0.16553  0.79426  1.0000
  H   H412      1.0  0.03878  0.28440  0.77539  1.0000
  H   H413      1.0  0.05956  0.23882  0.89810  1.0000
  H   H414      1.0  0.05842  0.26743  0.88725  1.0000
  C   C344      1.0  0.30738  0.15909  0.97939  1.0000
  C   C345      1.0  0.33024  0.10837  0.75569  1.0000
  C   C346      1.0  0.30050  0.19221  0.90260  1.0000
  H   H415      1.0  0.29873  0.16078  0.96928  1.0000
  H   H416      1.0  0.24596  0.30990  0.76190  1.0000
  H   H417      1.0  0.32865  0.19328  0.75686  1.0000
  C   C347      1.0  0.05031  0.40362  0.87629  1.0000
  C   C348      1.0  0.31651  0.13433  0.82658  1.0000
  H   H418      1.0  0.01771  0.15822  0.88064  1.0000
  H   H419      1.0  0.05737  0.37583  0.90239  1.0000
  C   C349      1.0  0.06038  0.45078  0.87970  1.0000
  C   C350      1.0  0.09725  0.46922  0.89200  1.0000
  H   H420      1.0  0.32127  0.30809  0.90214  1.0000
  C   C351      1.0  0.26293  0.27455  0.75647  1.0000
  H   H421      1.0  0.32485  0.11414  0.78038  1.0000
  H   H422      1.0  0.07388  0.48494  0.79409  1.0000
  H   H423      1.0  0.07567  0.33354  0.78681  1.0000
  H   H424      1.0  0.02804  0.28925  0.89202  1.0000
  C   C352      1.0  0.06084  0.31865  0.78740  1.0000
  H   H425      1.0  0.10359  0.49205  0.78194  1.0000
  H   H426      1.0  0.00357  0.24608  0.92109  1.0000
  C   C353      1.0  0.99799  0.26361  0.82012  1.0000
  C   C354      1.0  0.31572  0.25530  0.76726  1.0000
  C   C355      1.0  0.05613  0.38461  0.74810  1.0000
  H   H427      1.0  0.03348  0.40506  0.88339  1.0000
  H   H428      1.0  0.15913  0.22186  0.99383  1.0000
  C   C356      1.0  0.03798  0.38826  0.75947  1.0000
  C   C357      1.0  0.32959  0.12282  0.76684  1.0000
  H   H429      1.0  0.03349  0.14361  0.75128  1.0000
  C   C358      1.0  0.30968  0.15619  0.78398  1.0000
  Fe  Fe49      1.0  0.31689  0.04222  0.81468  1.0000
  H   H430      1.0  0.29134  0.20940  0.75301  1.0000
  N   N23       1.0  0.32170  0.31235  0.83639  1.0000
  H   H431      1.0  0.15563  0.24509  0.97824  1.0000
  H   H432      1.0  0.04605  0.39793  0.91006  1.0000
  C   C359      1.0  0.06170  0.36309  0.75145  1.0000
  H   H433      1.0  0.09097  0.33381  0.75678  1.0000
  C   C360      1.0  0.15034  0.23617  0.99220  1.0000
  C   C361      1.0  0.00458  0.28636  0.82268  1.0000
  C   C362      1.0  0.30005  0.22725  0.75274  1.0000
  H   H434      1.0  0.32317  0.33858  0.81360  1.0000
  H   H435      1.0  0.01359  0.17951  0.76760  1.0000
  C   C363      1.0  0.11473  0.24660  0.99478  1.0000
  C   C364      1.0  0.32116  0.31083  0.85451  1.0000
  C   C365      1.0  0.32126  0.30880  0.88899  1.0000
  H   H436      1.0  0.22848  0.30962  0.74721  1.0000
  H   H437      1.0  0.30317  0.00466  0.88525  1.0000
  S   S100      1.0  0.99734  0.33020  0.82374  1.0000
  H   H438      1.0  0.32992  0.29159  0.75195  1.0000
  H   H439      1.0  0.04499  0.63516  0.07981  1.0000
  Fe  Fe50      1.0  0.13549  0.76019  0.16069  1.0000
  S   S101      1.0  0.10191  0.75278  0.18071  1.0000
  S   S102      1.0  0.16505  0.79414  0.15207  1.0000
  Fe  Fe51      1.0  0.11898  0.71515  0.14988  1.0000
  S   S103      1.0  0.08466  0.70411  0.16905  1.0000
  S   S104      1.0  0.12254  0.69296  0.13140  1.0000
  Fe  Fe52      1.0  0.08507  0.74207  0.16092  1.0000
  S   S105      1.0  0.05198  0.74927  0.15704  1.0000
  Fe  Fe53      1.0  0.10439  0.71537  0.18697  1.0000
  C   C366      1.0  0.06670  0.75765  0.00240  1.0000
  S   S106      1.0  0.11815  0.75251  0.14034  1.0000
  S   S107      1.0  0.13931  0.72328  0.16842  1.0000
  H   H440      1.0  0.06767  0.81523  0.16851  1.0000
  S   S108      1.0  0.04459  0.52695  0.16878  1.0000
  H   H441      1.0  0.09075  0.83963  0.13193  1.0000
  Fe  Fe54      1.0  0.04561  0.56765  0.12572  1.0000
  S   S109      1.0  0.07710  0.55825  0.13062  1.0000
  S   S110      1.0  0.05018  0.59333  0.10057  1.0000
  H   H442      1.0  0.13680  0.58609  0.09659  1.0000
  H   H443      1.0  0.05443  0.64720  0.11416  1.0000
  Fe  Fe55      1.0  0.06530  0.56451  0.15621  1.0000
  S   S111      1.0  0.08791  0.58389  0.16954  1.0000
  H   H444      1.0  0.27161  0.87091  0.01599  1.0000
  S   S112      1.0  0.03578  0.57725  0.15037  1.0000
  C   C367      1.0  0.22789  0.89497  0.01109  1.0000
  N   N24       1.0  0.02880  0.60635  0.19841  1.0000
  C   C368      1.0  0.01820  0.70655  0.01297  1.0000
  Fe  Fe56      1.0  0.29196  0.89865  0.18112  1.0000
  S   S113      1.0  0.29377  0.93403  0.18601  1.0000
  C   C369      1.0  0.29747  0.98958  0.22785  1.0000
  Fe  Fe57      1.0  0.23911  0.88124  0.19352  1.0000
  S   S114      1.0  0.23659  0.91561  0.19959  1.0000
  S   S115      1.0  0.20797  0.84875  0.20098  1.0000
  Fe  Fe58      1.0  0.26383  0.93264  0.17452  1.0000
  S   S116      1.0  0.26562  0.96563  0.15498  1.0000
  Fe  Fe59      1.0  0.26674  0.91409  0.21057  1.0000
  S   S117      1.0  0.03492  0.74891  0.08439  1.0000
  S   S118      1.0  0.26420  0.89856  0.16760  1.0000
  S   S119      1.0  0.26719  0.87837  0.20655  1.0000
  S   S120      1.0  0.27515  0.94651  0.08252  1.0000
  C   C370      1.0  0.27001  0.95247  0.10253  1.0000
  H   H445      1.0  0.00403  0.60555  0.06803  1.0000
  H   H446      1.0  0.23854  0.86600  0.00360  1.0000
  C   C371      1.0  0.26541  0.96074  0.13493  1.0000
  C   C372      1.0  0.25514  0.93834  0.13345  1.0000
  C   C373      1.0  0.25751  0.93417  0.11725  1.0000
  C   C374      1.0  0.20254  0.76948  0.19194  1.0000
  Fe  Fe60      1.0  0.30624  0.97345  0.06361  1.0000
  H   H447      1.0  0.24530  0.92425  0.14476  1.0000
  H   H448      1.0  0.25002  0.91668  0.11616  1.0000
  H   H449      1.0  0.23962  0.94608  0.05656  1.0000
  C   C375      1.0  0.27676  0.97929  0.12016  1.0000
  H   H450      1.0  0.21774  0.78538  0.20873  1.0000
  C   C376      1.0  0.02568  0.67632  0.21884  1.0000
  H   H451      1.0  0.01024  0.73482  0.14701  1.0000
  H   H452      1.0  0.08688  0.73513  0.04529  1.0000
  H   H453      1.0  0.06486  0.68796  0.01883  1.0000
  H   H454      1.0  0.05489  0.62364  0.17453  1.0000
  H   H455      1.0  0.04064  0.64308  0.18385  1.0000
  H   H456      1.0  0.07316  0.68760  0.10903  1.0000
  H   H457      1.0  0.04888  0.75791  0.00479  1.0000
  C   C377      1.0  0.07408  0.60730  0.23155  1.0000
  H   H458      1.0  0.05603  0.59225  0.04813  1.0000
  C   C378      1.0  0.02715  0.60584  0.10204  1.0000
  C   C379      1.0  0.22043  0.78465  0.19560  1.0000
  C   C380      1.0  0.03813  0.62502  0.18188  1.0000
  H   H459      1.0  0.05954  0.73330  0.05855  1.0000
  H   H460      1.0  0.28787  0.98961  0.09261  1.0000
  H   H461      1.0  0.09649  0.63871  0.21259  1.0000
  C   C381      1.0  0.02919  0.62678  0.08996  1.0000
  H   H462      1.0  0.06173  0.70606  0.12065  1.0000
  H   H463      1.0  0.10485  0.51417  0.16588  1.0000
  C   C382      1.0  0.04721  0.74799  0.13700  1.0000
  C   C383      1.0  0.02464  0.74034  0.13566  1.0000
  C   C384      1.0  0.02059  0.73990  0.11965  1.0000
  C   C385      1.0  0.03911  0.74765  0.10488  1.0000
  C   C386      1.0  0.02454  0.58314  0.19440  1.0000
  C   C387      1.0  0.04342  0.64669  0.12682  1.0000
  C   C388      1.0  0.11253  0.66274  0.14219  1.0000
  C   C389      1.0  0.11397  0.65478  0.15890  1.0000
  C   C390      1.0  0.10672  0.63046  0.16718  1.0000
  C   C391      1.0  0.09716  0.61419  0.15902  1.0000
  C   C392      1.0  0.09503  0.62221  0.14251  1.0000
  C   C393      1.0  0.10312  0.64644  0.13398  1.0000
  H   H464      1.0  0.12125  0.66734  0.16528  1.0000
  H   H465      1.0  0.10842  0.62428  0.17993  1.0000
  H   H466      1.0  0.08782  0.60970  0.13609  1.0000
  H   H467      1.0  0.10205  0.65255  0.12103  1.0000
  C   C394      1.0  0.17636  0.80938  0.16587  1.0000
  C   C395      1.0  0.16712  0.80168  0.18363  1.0000
  C   C396      1.0  0.17701  0.81400  0.19416  1.0000
  C   C397      1.0  0.19605  0.83421  0.18707  1.0000
  C   C398      1.0  0.20507  0.84211  0.16928  1.0000
  C   C399      1.0  0.19530  0.82969  0.15875  1.0000
  H   H468      1.0  0.15250  0.78615  0.18925  1.0000
  H   H469      1.0  0.16987  0.80781  0.20790  1.0000
  H   H470      1.0  0.21949  0.85782  0.16362  1.0000
  H   H471      1.0  0.20249  0.83581  0.14502  1.0000
  C   C400      1.0  0.04047  0.59862  0.05151  1.0000
  H   H472      1.0  0.27992  0.95212  0.04719  1.0000
  S   S121      1.0  0.09449  0.69156  0.21371  1.0000
  H   H473      1.0  0.14526  0.62537  0.10243  1.0000
  C   C401      1.0  0.06460  0.67796  0.22093  1.0000
  H   H474      1.0  0.14801  0.62850  0.13113  1.0000
  C   C402      1.0  0.28127  0.80742  0.18123  1.0000
  H   H475      1.0  0.28660  0.80831  0.16741  1.0000
  H   H476      1.0  0.03667  0.67842  0.10151  1.0000
  H   H477      1.0  0.01408  0.68377  0.21274  1.0000
  C   C403      1.0  0.32448  0.93794  0.00278  1.0000
  C   C404      1.0  0.03325  0.69825  0.02150  1.0000
  C   C405      1.0  0.31958  0.91673  0.99788  1.0000
  H   H478      1.0  0.02951  0.69488  0.03522  1.0000
  H   H479      1.0  0.05957  0.64632  0.03799  1.0000
  H   H480      1.0  0.04105  0.77260  0.02795  1.0000
  C   C406      1.0  0.14898  0.53257  0.14668  1.0000
  C   C407      1.0  0.32453  0.99733  0.15502  1.0000
  C   C408      1.0  0.03386  0.68452  0.15433  1.0000
  H   H481      1.0  0.07605  0.76131  0.09488  1.0000
  C   C409      1.0  0.31658  0.93224  0.13183  1.0000
  H   H482      1.0  0.28415  0.99666  0.12130  1.0000
  H   H483      1.0  0.29271  0.94085  0.03061  1.0000
  C   C410      1.0  0.02703  0.67709  0.11478  1.0000
  C   C411      1.0  0.01661  0.62320  0.04038  1.0000
  H   H484      1.0  0.16716  0.54379  0.14297  1.0000
  C   C412      1.0  0.07866  0.75688  0.01531  1.0000
  C   C413      1.0  0.06572  0.75512  0.12227  1.0000
  C   C414      1.0  0.24058  0.79882  0.18248  1.0000
  C   C415      1.0  0.26524  0.90042  0.02529  1.0000
  H   H485      1.0  0.22121  0.92439  0.01961  1.0000
  C   C416      1.0  0.14158  0.59090  0.14160  1.0000
  C   C417      1.0  0.14490  0.61128  0.12853  1.0000
  H   H486      1.0  0.15328  0.56127  0.16729  1.0000
  C   C418      1.0  0.10191  0.75606  0.01051  1.0000
  H   H487      1.0  0.13265  0.53333  0.17870  1.0000
  C   C419      1.0  0.23622  0.93225  0.04960  1.0000
  Fe  Fe61      1.0  0.05342  0.52152  0.14255  1.0000
  H   H488      1.0  0.09599  0.54048  0.15987  1.0000
  C   C420      1.0  0.05824  0.63477  0.02917  1.0000
  C   C421      1.0  0.04319  0.75650  0.03617  1.0000
  C   C422      1.0  0.23247  0.91297  0.01921  1.0000
  C   C423      1.0  0.05300  0.69393  0.01225  1.0000
  H   H489      1.0  0.02383  0.69458  0.11491  1.0000
  H   H490      1.0  0.24829  0.84546  0.17801  1.0000
  H   H491      1.0  0.21359  0.89293  0.00536  1.0000
  C   C424      1.0  0.10874  0.53094  0.15568  1.0000
  H   H492      1.0  0.03556  0.75637  0.04960  1.0000
  H   H493      1.0  0.27812  0.85220  0.17793  1.0000
  H   H494      1.0  0.07348  0.68365  0.13087  1.0000
  C   C425      1.0  0.00146  0.61704  0.05714  1.0000
  H   H495      1.0  0.08540  0.60744  0.23988  1.0000
  H   H496      1.0  0.09859  0.77827  0.03654  1.0000
  C   C426      1.0  0.06299  0.68763  0.12181  1.0000
  H   H497      1.0  0.23273  0.91478  0.05899  1.0000
  H   H498      1.0  0.03250  0.74054  0.03393  1.0000
  C   C427      1.0  0.27909  0.97519  0.10397  1.0000
  H   H499      1.0  0.07221  0.77823  0.05047  1.0000
  H   H500      1.0  0.10534  0.52568  0.14420  1.0000
  H   H501      1.0  0.01893  0.58601  0.02813  1.0000
  N   N25       1.0  0.10265  0.82322  0.15281  1.0000
  C   C428      1.0  0.10060  0.84449  0.14107  1.0000
  C   C429      1.0  0.11612  0.81089  0.14262  1.0000
  C   C430      1.0  0.07898  0.80700  0.16081  1.0000
  C   C431      1.0  0.11470  0.83038  0.16534  1.0000
  C   C432      1.0  0.10489  0.82162  0.18336  1.0000
  C   C433      1.0  0.13721  0.84639  0.15960  1.0000
  C   C434      1.0  0.11688  0.82880  0.19477  1.0000
  C   C435      1.0  0.14894  0.85355  0.17112  1.0000
  C   C436      1.0  0.13880  0.84479  0.18866  1.0000
  H   H502      1.0  0.11768  0.85650  0.13315  1.0000
  H   H503      1.0  0.09154  0.85489  0.14838  1.0000
  H   H504      1.0  0.13349  0.82245  0.13488  1.0000
  H   H505      1.0  0.10714  0.80395  0.13365  1.0000
  H   H506      1.0  0.11907  0.79565  0.15117  1.0000
  H   H507      1.0  0.07920  0.78994  0.16910  1.0000
  H   H508      1.0  0.07035  0.80203  0.15105  1.0000
  H   H509      1.0  0.08813  0.80898  0.18899  1.0000
  H   H510      1.0  0.14617  0.85314  0.14614  1.0000
  H   H511      1.0  0.10929  0.82171  0.20845  1.0000
  H   H512      1.0  0.16630  0.86544  0.16646  1.0000
  H   H513      1.0  0.14827  0.84998  0.19751  1.0000
  H   H514      1.0  0.27517  0.92105  0.05121  1.0000
  Fe  Fe62      1.0  0.01562  0.53903  0.16109  1.0000
  H   H515      1.0  0.00312  0.73420  0.11871  1.0000
  H   H516      1.0  0.13106  0.55016  0.11900  1.0000
  H   H517      1.0  0.22404  0.78127  0.14904  1.0000
  H   H518      1.0  0.00518  0.57893  0.12462  1.0000
  H   H519      1.0  0.01228  0.65265  0.08140  1.0000
  H   H520      1.0  0.00899  0.62621  0.21085  1.0000
  C   C437      1.0  0.06893  0.73504  0.04513  1.0000
  C   C438      1.0  0.25595  0.81569  0.20399  1.0000
  C   C439      1.0  0.13664  0.56801  0.13874  1.0000
  H   H521      1.0  0.27075  0.82817  0.20602  1.0000
  C   C440      1.0  0.30441  0.99105  0.24273  1.0000
  H   H522      1.0  0.27875  0.78887  0.18862  1.0000
  H   H523      1.0  0.29616  0.81903  0.18386  1.0000
  N   N26       1.0  0.25608  0.93579  0.03475  1.0000
  C   C441      1.0  0.25962  0.95887  0.02234  1.0000
  C   C442      1.0  0.01682  0.65604  0.23272  1.0000
  C   C443      1.0  0.27689  0.93733  0.04116  1.0000
  C   C444      1.0  0.25140  0.91636  0.02647  1.0000
  C   C445      1.0  0.99930  0.52049  0.22412  1.0000
  C   C446      1.0  0.20394  0.76821  0.17522  1.0000
  H   H524      1.0  0.18706  0.75928  0.20203  1.0000
  H   H525      1.0  0.31668  0.92131  0.22006  1.0000
  H   H526      1.0  0.04979  0.69859  0.14940  1.0000
  H   H527      1.0  0.24386  0.96049  0.01835  1.0000
  H   H528      1.0  0.28019  0.90168  0.03019  1.0000
  H   H529      1.0  0.27354  0.96147  0.01055  1.0000
  H   H530      1.0  0.05204  0.64038  0.13668  1.0000
  H   H531      1.0  0.02627  0.62343  0.17355  1.0000
  H   H532      1.0  0.08385  0.71744  0.24316  1.0000
  Fe  Fe63      1.0  0.00234  0.72641  0.08121  1.0000
  C   C447      1.0  0.24187  0.87976  0.01009  1.0000
  H   H533      1.0  0.14223  0.59360  0.15395  1.0000
  C   C448      1.0  0.22337  0.78190  0.16208  1.0000
  C   C449      1.0  0.00686  0.59520  0.11529  1.0000
  C   C450      1.0  0.03837  0.58988  0.22565  1.0000
  H   H534      1.0  0.07426  0.62891  0.02689  1.0000
  H   H535      1.0  0.00990  0.66414  0.11748  1.0000
  C   C451      1.0  0.06165  0.75522  0.10626  1.0000
  H   H536      1.0  0.32465  0.90174  0.00405  1.0000
  H   H537      1.0  0.12282  0.55907  0.17427  1.0000
  C   C452      1.0  0.26414  0.83946  0.17529  1.0000
  H   H538      1.0  0.08314  0.76125  0.12311  1.0000
  S   S122      1.0  0.02243  0.53039  0.13570  1.0000
  C   C453      1.0  0.08031  0.77776  0.03722  1.0000
  H   H539      1.0  0.24053  0.82202  0.20811  1.0000
  H   H540      1.0  0.02553  0.58253  0.05736  1.0000
  C   C454      1.0  0.04953  0.68715  0.21286  1.0000
  H   H541      1.0  0.05617  0.70298  0.20229  1.0000
  N   N27       1.0  0.26000  0.81497  0.18583  1.0000
  H   H542      1.0  0.26943  0.84128  0.16134  1.0000
  H   H543      1.0  0.02201  0.64425  0.01420  1.0000
  H   H544      1.0  0.05853  0.64602  0.01658  1.0000
  H   H545      1.0  0.25359  0.79805  0.21273  1.0000
  S   S123      1.0  0.00865  0.69688  0.06996  1.0000
  C   C455      1.0  0.13851  0.58743  0.10911  1.0000
  H   H546      1.0  0.02704  0.63291  0.12895  1.0000
  H   H547      1.0  0.06114  0.71877  0.04172  1.0000
  C   C456      1.0  0.06580  0.62497  0.20536  1.0000
  N   N28       1.0  0.03983  0.67019  0.12735  1.0000
  C   C457      1.0  0.28698  0.96750  0.22571  1.0000
  N   N29       1.0  0.13263  0.54595  0.15232  1.0000
  H   H548      1.0  0.18962  0.75716  0.17234  1.0000
  C   C458      1.0  0.26043  0.88244  0.01721  1.0000
  H   H549      1.0  0.08027  0.79433  0.02822  1.0000
  H   H550      1.0  0.26487  0.97408  0.02771  1.0000
  H   H551      1.0  0.28172  0.96655  0.21419  1.0000
  C   C459      1.0  0.03513  0.60084  0.02351  1.0000
  N   N30       1.0  0.06780  0.75655  0.03309  1.0000
  C   C460      1.0  0.01081  0.63694  0.09101  1.0000
  H   H552      1.0  0.25617  0.80714  0.15496  1.0000
  C   C461      1.0  0.24153  0.79685  0.16562  1.0000
  H   H553      1.0  0.04990  0.59318  0.02061  1.0000
  C   C462      1.0  0.04443  0.60721  0.20969  1.0000
  H   H554      1.0  0.22017  0.93298  0.04578  1.0000
  C   C463      1.0  0.13557  0.55019  0.16882  1.0000
  C   C464      1.0  0.05569  0.65794  0.23501  1.0000
  C   C465      1.0  0.01120  0.63850  0.02724  1.0000
  C   C466      1.0  0.13531  0.56695  0.12204  1.0000
  H   H555      1.0  0.04101  0.57988  0.18830  1.0000
  C   C467      1.0  0.02625  0.66892  0.14469  1.0000
  S   S124      1.0  0.32275  0.88675  0.17057  1.0000
  H   H556      1.0  0.07167  0.63933  0.19379  1.0000
  C   C468      1.0  0.14324  0.60955  0.11236  1.0000
  C   C469      1.0  0.00645  0.60917  0.20728  1.0000
  H   H557      1.0  0.30047  0.93525  0.12903  1.0000
  H   H558      1.0  0.32187  0.97305  0.10917  1.0000
  C   C470      1.0  0.02069  0.68275  0.17071  1.0000
  H   H559      1.0  0.31934  0.94031  0.09780  1.0000
  C   C471      1.0  0.08041  0.62477  0.21611  1.0000
  H   H560      1.0  0.01035  0.51422  0.19955  1.0000
  H   H561      1.0  0.02684  0.69512  0.17767  1.0000
  C   C472      1.0  0.03189  0.64668  0.24065  1.0000
  H   H562      1.0  0.03492  0.61207  0.01108  1.0000
  N   N31       1.0  0.03719  0.61441  0.03638  1.0000
  H   H563      1.0  0.11215  0.75558  0.01955  1.0000
  H   H564      1.0  0.01577  0.56823  0.20598  1.0000
  H   H565      1.0  0.06726  0.65100  0.24144  1.0000
  H   H566      1.0  0.04359  0.71103  0.24153  1.0000
  H   H567      1.0  0.31077  0.98551  0.16589  1.0000
  H   H568      1.0  0.02222  0.57602  0.22999  1.0000
  H   H569      1.0  0.01236  0.51412  0.22899  1.0000
  H   H570      1.0  0.04301  0.60791  0.06152  1.0000
  C   C473      1.0  0.00438  0.65197  0.15232  1.0000
  S   S125      1.0  0.26990  0.91869  0.23642  1.0000
  H   H571      1.0  0.01317  0.58181  0.18567  1.0000
  H   H572      1.0  0.31402  0.91277  0.13523  1.0000
  H   H573      1.0  0.31814  0.93807  0.14352  1.0000
  C   C474      1.0  0.28298  0.94674  0.23861  1.0000
  H   H574      1.0  0.14727  0.51650  0.15693  1.0000
  H   H575      1.0  0.14595  0.52611  0.13553  1.0000
  C   C475      1.0  0.05303  0.58995  0.23636  1.0000
  S   S126      1.0  0.30386  0.00090  0.04181  1.0000
  S   S127      1.0  0.32400  0.98464  0.00036  1.0000
  H   H576      1.0  0.99750  0.59473  0.21925  1.0000
  C   C476      1.0  0.99830  0.52074  0.20736  1.0000
  H   H577      1.0  0.99704  0.64008  0.14550  1.0000
  C   C477      1.0  0.99956  0.66558  0.17797  1.0000
  H   H578      1.0  0.13946  0.66116  0.40122  1.0000
  H   H579      1.0  0.18702  0.63994  0.42772  1.0000
  N   N32       1.0  0.03757  0.56990  0.47876  1.0000
  H   H580      1.0  0.08832  0.54257  0.34147  1.0000
  Fe  Fe64      1.0  0.16613  0.70741  0.47842  1.0000
  S   S128      1.0  0.15813  0.67553  0.46817  1.0000
  S   S129      1.0  0.20224  0.73268  0.46906  1.0000
  H   H581      1.0  0.08064  0.70846  0.45844  1.0000
  C   C478      1.0  0.08587  0.73728  0.46954  1.0000
  H   H582      1.0  0.02531  0.63095  0.25120  1.0000
  Fe  Fe65      1.0  0.12494  0.68396  0.46646  1.0000
  S   S130      1.0  0.10858  0.68191  0.44463  1.0000
  C   C479      1.0  0.02931  0.68514  0.26606  1.0000
  S   S131      1.0  0.13463  0.71780  0.47415  1.0000
  C   C480      1.0  0.16038  0.68863  0.40893  1.0000
  H   H583      1.0  0.20778  0.74127  0.42959  1.0000
  H   H584      1.0  0.05525  0.59901  0.45634  1.0000
  C   C481      1.0  0.30066  0.97028  0.25555  1.0000
  H   H585      1.0  0.10907  0.60332  0.48690  1.0000
  C   C482      1.0  0.03536  0.68580  0.45808  1.0000
  Fe  Fe66      1.0  0.04977  0.56391  0.37999  1.0000
  C   C483      1.0  0.01147  0.57305  0.35390  1.0000
  S   S132      1.0  0.05711  0.57549  0.35109  1.0000
  Fe  Fe67      1.0  0.06764  0.56829  0.41143  1.0000
  S   S133      1.0  0.04180  0.53428  0.42781  1.0000
  S   S134      1.0  0.09371  0.58441  0.42443  1.0000
  H   H586      1.0  0.15608  0.71250  0.44040  1.0000
  Fe  Fe68      1.0  0.01694  0.54828  0.41536  1.0000
  C   C484      1.0  0.09043  0.59765  0.49202  1.0000
  S   S135      1.0  0.07767  0.55208  0.38989  1.0000
  S   S136      1.0  0.04220  0.58337  0.40012  1.0000
  H   H587      1.0  0.04795  0.57642  0.24842  1.0000
  H   H588      1.0  0.04993  0.53882  0.48138  1.0000
  C   C485      1.0  0.01187  0.67506  0.48698  1.0000
  N   N33       1.0  0.03610  0.68297  0.47614  1.0000
  H   H589      1.0  0.02885  0.65609  0.31554  1.0000
  H   H590      1.0  0.00256  0.68864  0.48414  1.0000
  H   H591      1.0  0.06430  0.50763  0.31544  1.0000
  C   C486      1.0  0.03361  0.67194  0.28078  1.0000
  H   H592      1.0  0.01802  0.58059  0.30528  1.0000
  C   C487      1.0  0.04687  0.55232  0.47136  1.0000
  C   C488      1.0  0.09696  0.61157  0.42993  1.0000
  C   C489      1.0  0.08590  0.62833  0.42406  1.0000
  C   C490      1.0  0.08939  0.64984  0.42872  1.0000
  C   C491      1.0  0.10355  0.65446  0.43952  1.0000
  C   C492      1.0  0.11413  0.63745  0.44567  1.0000
  C   C493      1.0  0.11117  0.61633  0.44064  1.0000
  H   H593      1.0  0.07495  0.62486  0.41577  1.0000
  H   H594      1.0  0.08117  0.66294  0.42388  1.0000
  H   H595      1.0  0.12519  0.64086  0.45389  1.0000
  H   H596      1.0  0.11996  0.60357  0.44510  1.0000
  H   H597      1.0  0.00638  0.62944  0.31931  1.0000
  H   H598      1.0  0.02399  0.66966  0.45648  1.0000
  C   C494      1.0  0.07262  0.71629  0.46780  1.0000
  C   C495      1.0  0.19544  0.75613  0.49428  1.0000
  C   C496      1.0  0.07649  0.58725  0.48283  1.0000
  H   H599      1.0  0.08733  0.76373  0.48345  1.0000
  H   H600      1.0  0.00955  0.57109  0.36743  1.0000
  C   C497      1.0  0.05700  0.67626  0.28140  1.0000
  C   C498      1.0  0.29512  0.99001  0.49429  1.0000
  H   H601      1.0  0.03490  0.54281  0.46511  1.0000
  C   C499      1.0  0.20295  0.72287  0.42827  1.0000
  H   H602      1.0  0.17001  0.74336  0.43051  1.0000
  H   H603      1.0  0.15177  0.72646  0.42069  1.0000
  N   N34       1.0  0.18510  0.71938  0.41880  1.0000
  C   C500      1.0  0.04713  0.66392  0.48087  1.0000
  H   H604      1.0  0.15685  0.63039  0.41288  1.0000
  C   C501      1.0  0.24183  0.78291  0.48496  1.0000
  C   C502      1.0  0.03295  0.57544  0.34302  1.0000
  C   C503      1.0  0.03527  0.57810  0.32546  1.0000
  N   N35       1.0  0.01441  0.65380  0.29422  1.0000
  C   C504      1.0  0.16291  0.64828  0.41389  1.0000
  H   H605      1.0  0.31641  0.94148  0.40046  1.0000
  H   H606      1.0  0.05192  0.57999  0.31701  1.0000
  H   H607      1.0  0.00307  0.62473  0.43632  1.0000
  H   H608      1.0  0.09260  0.69540  0.26848  1.0000
  C   C505      1.0  0.07679  0.74785  0.48177  1.0000
  C   C506      1.0  0.32435  0.92935  0.49557  1.0000
  C   C507      1.0  0.23430  0.76659  0.47597  1.0000
  H   H609      1.0  0.25974  0.79316  0.48129  1.0000
  H   H610      1.0  0.28674  0.93222  0.26357  1.0000
  C   C508      1.0  0.03749  0.58938  0.46453  1.0000
  H   H611      1.0  0.24653  0.76438  0.46540  1.0000
  C   C509      1.0  0.04722  0.70170  0.25288  1.0000
  H   H612      1.0  0.00315  0.54858  0.48138  1.0000
  H   H613      1.0  0.03403  0.63266  0.30591  1.0000
  H   H614      1.0  0.21913  0.71953  0.42174  1.0000
  H   H615      1.0  0.02869  0.70105  0.45360  1.0000
  C   C510      1.0  0.05206  0.57995  0.48905  1.0000
  C   C511      1.0  0.17770  0.69486  0.41732  1.0000
  C   C512      1.0  0.15318  0.66570  0.40725  1.0000
  H   H616      1.0  0.05263  0.68865  0.44925  1.0000
  H   H617      1.0  0.20962  0.73137  0.39401  1.0000
  H   H618      1.0  0.06814  0.53714  0.32944  1.0000
  H   H619      1.0  0.06207  0.66693  0.29192  1.0000
  C   C513      1.0  0.21108  0.75312  0.48059  1.0000
  H   H620      1.0  0.15190  0.70133  0.40390  1.0000
  C   C514      1.0  0.04081  0.71678  0.49038  1.0000
  H   H621      1.0  0.06487  0.66778  0.47243  1.0000
  Fe  Fe69      1.0  0.04946  0.51937  0.40535  1.0000
  H   H622      1.0  0.01831  0.62622  0.28209  1.0000
  C   C515      1.0  0.01326  0.55776  0.48888  1.0000
  H   H623      1.0  0.30589  0.97121  0.26708  1.0000
  H   H624      1.0  0.20023  0.67945  0.43082  1.0000
  H   H625      1.0  0.29939  0.99485  0.48048  1.0000
  S   S137      1.0  0.02206  0.53026  0.39439  1.0000
  C   C516      1.0  0.05427  0.73772  0.49207  1.0000
  C   C517      1.0  0.04964  0.70538  0.47813  1.0000
  H   H626      1.0  0.20125  0.75465  0.40209  1.0000
  C   C518      1.0  0.17983  0.65370  0.42228  1.0000
  C   C519      1.0  0.18725  0.67662  0.42399  1.0000
  H   H627      1.0  0.10344  0.74515  0.46160  1.0000
  C   C520      1.0  0.28980  0.94823  0.25354  1.0000
  H   H628      1.0  0.31607  0.91862  0.43088  1.0000
  H   H629      1.0  0.19663  0.71115  0.44157  1.0000
  C   C521      1.0  0.07481  0.69270  0.26801  1.0000
  C   C522      1.0  0.16495  0.72577  0.42791  1.0000
  C   C523      1.0  0.19487  0.73608  0.40147  1.0000
  H   H630      1.0  0.18192  0.73610  0.39400  1.0000
  H   H631      1.0  0.00212  0.59361  0.42090  1.0000
  H   H632      1.0  0.06323  0.56065  0.46098  1.0000
  H   H633      1.0  0.03708  0.64661  0.47997  1.0000
  H   H634      1.0  0.08504  0.58534  0.47067  1.0000
  S   S138      1.0  0.10492  0.66214  0.49296  1.0000
  C   C524      1.0  0.02137  0.64267  0.30935  1.0000
  H   H635      1.0  0.04858  0.66157  0.49420  1.0000
  C   C525      1.0  0.07966  0.52893  0.33587  1.0000
  H   H636      1.0  0.00186  0.65862  0.48496  1.0000
  C   C526      1.0  0.01615  0.57848  0.31881  1.0000
  Fe  Fe70      1.0  0.13878  0.65613  0.49528  1.0000
  Fe  Fe71      1.0  0.32111  0.85184  0.48767  1.0000
  H   H637      1.0  0.09343  0.52604  0.32615  1.0000
  H   H638      1.0  0.02745  0.58263  0.45603  1.0000
  C   C527      1.0  0.04920  0.51247  0.36178  1.0000
  C   C528      1.0  0.00486  0.63470  0.28685  1.0000
  H   H639      1.0  0.02982  0.60263  0.46936  1.0000
  H   H640      1.0  0.32904  0.92049  0.39238  1.0000
  H   H641      1.0  0.32694  0.89908  0.41964  1.0000
  C   C529      1.0  0.06994  0.70532  0.25377  1.0000
  H   H642      1.0  0.00389  0.57046  0.49274  1.0000
  H   H643      1.0  0.00267  0.67991  0.30509  1.0000
  H   H644      1.0  0.03638  0.51889  0.35585  1.0000
  H   H645      1.0  0.05765  0.52668  0.36692  1.0000
  N   N36       1.0  0.06643  0.50657  0.34925  1.0000
  H   H646      1.0  0.31723  0.91479  0.49077  1.0000
  S   S139      1.0  0.28925  0.86434  0.49298  1.0000
  H   H647      1.0  0.01215  0.68217  0.26429  1.0000
  H   H648      1.0  0.09241  0.51193  0.36298  1.0000
  H   H649      1.0  0.28309  0.95293  0.49563  1.0000
  H   H650      1.0  0.99803  0.64127  0.27594  1.0000
  H   H651      1.0  0.99792  0.51866  0.32212  1.0000
  Fe  Fe72      1.0  0.19185  0.74237  0.70069  1.0000
  S   S140      1.0  0.16300  0.73930  0.68794  1.0000
  S   S141      1.0  0.21869  0.77804  0.69312  1.0000
  H   H652      1.0  0.18050  0.78112  0.72197  1.0000
  S   S142      1.0  0.14483  0.68317  0.70930  1.0000
  C   C530      1.0  0.10392  0.50724  0.56384  1.0000
  Fe  Fe73      1.0  0.16950  0.70518  0.68428  1.0000
  S   S143      1.0  0.17210  0.69614  0.65886  1.0000
  Fe  Fe74      1.0  0.14044  0.71750  0.71392  1.0000
  S   S144      1.0  0.20044  0.71008  0.69476  1.0000
  C   C531      1.0  0.22158  0.72007  0.52215  1.0000
  C   C532      1.0  0.23186  0.75570  0.54364  1.0000
  S   S145      1.0  0.30978  0.87544  0.72225  1.0000
  C   C533      1.0  0.25690  0.73342  0.55297  1.0000
  H   H653      1.0  0.04794  0.50721  0.57575  1.0000
  C   C534      1.0  0.22613  0.78601  0.49858  1.0000
  H   H654      1.0  0.22575  0.72072  0.63432  1.0000
  Fe  Fe75      1.0  0.29949  0.86936  0.51665  1.0000
  S   S146      1.0  0.07083  0.51259  0.62820  1.0000
  H   H655      1.0  0.01579  0.70955  0.53932  1.0000
  C   C535      1.0  0.00977  0.59606  0.55729  1.0000
  Fe  Fe76      1.0  0.07439  0.59677  0.60066  1.0000
  S   S147      1.0  0.09353  0.57242  0.59139  1.0000
  H   H656      1.0  0.26438  0.83672  0.71487  1.0000
  Fe  Fe77      1.0  0.09512  0.59788  0.63084  1.0000
  S   S148      1.0  0.11559  0.57277  0.62443  1.0000
  S   S149      1.0  0.09275  0.61158  0.65440  1.0000
  Fe  Fe78      1.0  0.12337  0.59474  0.59740  1.0000
  S   S150      1.0  0.15839  0.60545  0.57895  1.0000
  Fe  Fe79      1.0  0.08382  0.55254  0.61909  1.0000
  Fe  Fe80      1.0  0.11731  0.69500  0.50093  1.0000
  S   S151      1.0  0.10526  0.62128  0.60403  1.0000
  S   S152      1.0  0.06242  0.57550  0.62807  1.0000
  Fe  Fe81      1.0  0.31110  0.82272  0.52451  1.0000
  C   C536      1.0  0.10907  0.53191  0.55600  1.0000
  C   C537      1.0  0.15513  0.61186  0.55824  1.0000
  C   C538      1.0  0.13637  0.61979  0.55503  1.0000
  C   C539      1.0  0.13306  0.62345  0.53859  1.0000
  C   C540      1.0  0.14812  0.61845  0.52557  1.0000
  C   C541      1.0  0.16685  0.61058  0.52879  1.0000
  C   C542      1.0  0.17059  0.60768  0.54505  1.0000
  H   H657      1.0  0.12437  0.62298  0.56524  1.0000
  H   H658      1.0  0.11848  0.62942  0.53613  1.0000
  H   H659      1.0  0.17845  0.60665  0.51872  1.0000
  H   H660      1.0  0.18499  0.60139  0.54757  1.0000
  C   C543      1.0  0.05842  0.50997  0.59854  1.0000
  H   H661      1.0  0.17752  0.74593  0.49796  1.0000
  H   H662      1.0  0.19066  0.77486  0.51368  1.0000
  C   C544      1.0  0.06604  0.69613  0.52535  1.0000
  H   H663      1.0  0.20040  0.70264  0.50840  1.0000
  H   H664      1.0  0.24623  0.82328  0.69326  1.0000
  H   H665      1.0  0.21960  0.72043  0.65621  1.0000
  H   H666      1.0  0.05812  0.72641  0.53253  1.0000
  H   H667      1.0  0.11083  0.61521  0.70626  1.0000
  C   C545      1.0  0.24141  0.77820  0.73558  1.0000
  H   H668      1.0  0.22602  0.69324  0.56149  1.0000
  H   H669      1.0  0.25776  0.76178  0.51306  1.0000
  C   C546      1.0  0.15000  0.67257  0.65770  1.0000
  C   C547      1.0  0.15266  0.66411  0.64306  1.0000
  C   C548      1.0  0.13532  0.64534  0.64187  1.0000
  C   C549      1.0  0.11512  0.63503  0.65528  1.0000
  C   C550      1.0  0.11237  0.64367  0.66980  1.0000
  C   C551      1.0  0.12972  0.66230  0.67104  1.0000
  H   H670      1.0  0.16826  0.67194  0.63267  1.0000
  H   H671      1.0  0.13759  0.63880  0.63061  1.0000
  H   H672      1.0  0.09667  0.63597  0.68011  1.0000
  H   H673      1.0  0.12724  0.66887  0.68223  1.0000
  C   C552      1.0  0.23262  0.78680  0.70818  1.0000
  C   C553      1.0  0.23111  0.77057  0.72340  1.0000
  H   H674      1.0  0.02138  0.52039  0.62519  1.0000
  H   H675      1.0  0.26644  0.72017  0.55072  1.0000
  C   C554      1.0  0.25549  0.81822  0.71717  1.0000
  C   C555      1.0  0.24508  0.81059  0.70500  1.0000
  H   H676      1.0  0.24437  0.72657  0.56586  1.0000
  S   S153      1.0  0.27861  0.83290  0.53251  1.0000
  C   C556      1.0  0.02693  0.56378  0.56291  1.0000
  H   H677      1.0  0.11248  0.56335  0.51577  1.0000
  S   S154      1.0  0.10395  0.71938  0.72287  1.0000
  C   C557      1.0  0.23897  0.76590  0.65223  1.0000
  C   C558      1.0  0.12070  0.62144  0.72861  1.0000
  H   H678      1.0  0.32446  0.94399  0.53292  1.0000
  H   H679      1.0  0.19593  0.74626  0.65107  1.0000
  H   H680      1.0  0.20694  0.77486  0.63629  1.0000
  S   S155      1.0  0.30284  0.92953  0.74323  1.0000
  C   C559      1.0  0.23188  0.73010  0.64344  1.0000
  H   H681      1.0  0.25716  0.76670  0.65216  1.0000
  C   C560      1.0  0.24866  0.76914  0.62178  1.0000
  C   C561      1.0  0.12345  0.54747  0.56258  1.0000
  C   C562      1.0  0.01154  0.57382  0.55567  1.0000
  H   H682      1.0  0.19924  0.66016  0.55718  1.0000
  C   C563      1.0  0.20624  0.70077  0.51994  1.0000
  C   C564      1.0  0.26225  0.75872  0.61112  1.0000
  S   S156      1.0  0.09592  0.70952  0.51921  1.0000
  N   N37       1.0  0.09963  0.54158  0.54194  1.0000
  C   C565      1.0  0.20863  0.75653  0.63858  1.0000
  H   H683      1.0  0.28096  0.96874  0.54368  1.0000
  C   C566      1.0  0.22119  0.69619  0.54964  1.0000
  H   H684      1.0  0.22185  0.75214  0.72587  1.0000
  C   C567      1.0  0.22985  0.71835  0.53694  1.0000
  H   H685      1.0  0.22255  0.76051  0.53393  1.0000
  H   H686      1.0  0.09135  0.60954  0.51461  1.0000
  H   H687      1.0  0.06677  0.65931  0.56742  1.0000
  H   H688      1.0  0.07686  0.56360  0.53781  1.0000
  H   H689      1.0  0.21856  0.74756  0.55612  1.0000
  H   H690      1.0  0.05114  0.56766  0.57822  1.0000
  H   H691      1.0  0.02373  0.70968  0.49913  1.0000
  C   C568      1.0  0.03288  0.66347  0.52843  1.0000
  C   C569      1.0  0.27761  0.77229  0.59533  1.0000
  C   C570      1.0  0.19830  0.67925  0.53252  1.0000
  C   C571      1.0  0.03697  0.59739  0.57455  1.0000
  C   C572      1.0  0.03972  0.57562  0.57231  1.0000
  S   S157      1.0  0.05010  0.61159  0.58789  1.0000
  N   N38       1.0  0.09486  0.68625  0.56989  1.0000
  C   C573      1.0  0.08590  0.66609  0.56314  1.0000
  C   C574      1.0  0.08157  0.70374  0.56699  1.0000
  C   C575      1.0  0.11925  0.69771  0.55973  1.0000
  C   C576      1.0  0.09206  0.67793  0.58851  1.0000
  C   C577      1.0  0.11031  0.68403  0.59617  1.0000
  C   C578      1.0  0.07025  0.66414  0.59970  1.0000
  C   C579      1.0  0.10683  0.67629  0.61388  1.0000
  C   C580      1.0  0.06706  0.65629  0.61735  1.0000
  C   C581      1.0  0.08531  0.66235  0.62442  1.0000
  H   H692      1.0  0.02594  0.64574  0.52771  1.0000
  H   H693      1.0  0.06270  0.69566  0.57281  1.0000
  H   H694      1.0  0.08394  0.71141  0.55313  1.0000
  H   H695      1.0  0.08709  0.71867  0.57252  1.0000
  H   H696      1.0  0.12084  0.70294  0.54573  1.0000
  H   H697      1.0  0.12663  0.71435  0.56287  1.0000
  H   H698      1.0  0.13016  0.68543  0.56170  1.0000
  H   H699      1.0  0.12748  0.69451  0.58880  1.0000
  H   H700      1.0  0.05551  0.65902  0.59485  1.0000
  H   H701      1.0  0.12100  0.68072  0.61952  1.0000
  H   H702      1.0  0.05042  0.64511  0.62555  1.0000
  H   H703      1.0  0.08287  0.65594  0.63809  1.0000
  H   H704      1.0  0.29180  0.80679  0.57741  1.0000
  H   H705      1.0  0.09027  0.67111  0.54892  1.0000
  C   C582      1.0  0.01801  0.67683  0.53338  1.0000
  N   N39       1.0  0.23241  0.75551  0.63865  1.0000
  H   H706      1.0  0.26968  0.74935  0.55363  1.0000
  H   H707      1.0  0.22783  0.75535  0.66521  1.0000
  C   C583      1.0  0.12551  0.78175  0.72368  1.0000
  C   C584      1.0  0.05690  0.67318  0.52429  1.0000
  Fe  Fe82      1.0  0.27149  0.82642  0.50816  1.0000
  C   C585      1.0  0.10615  0.62058  0.71790  1.0000
  C   C586      1.0  0.05114  0.70879  0.53144  1.0000
  C   C587      1.0  0.25359  0.80203  0.73255  1.0000
  C   C588      1.0  0.05657  0.59474  0.51394  1.0000
  H   H708      1.0  0.15336  0.77872  0.70459  1.0000
  C   C589      1.0  0.02721  0.69925  0.53530  1.0000
  C   C590      1.0  0.16339  0.78229  0.72744  1.0000
  C   C591      1.0  0.02232  0.60772  0.56674  1.0000
  S   S158      1.0  0.16862  0.72322  0.72710  1.0000
  H   H709      1.0  0.09385  0.51090  0.53209  1.0000
  H   H710      1.0  0.26143  0.74016  0.61468  1.0000
  Fe  Fe83      1.0  0.29419  0.84351  0.74499  1.0000
  S   S159      1.0  0.30267  0.81349  0.50121  1.0000
  H   H711      1.0  0.02026  0.62465  0.56825  1.0000
  C   C592      1.0  0.13155  0.53898  0.57646  1.0000
  H   H712      1.0  0.09304  0.65101  0.56723  1.0000
  H   H713      1.0  0.18631  0.66431  0.53081  1.0000
  H   H714      1.0  0.30645  0.77769  0.69799  1.0000
  C   C593      1.0  0.28460  0.97486  0.52989  1.0000
  H   H715      1.0  0.06056  0.52877  0.59592  1.0000
  C   C594      1.0  0.20569  0.67698  0.54736  1.0000
  H   H716      1.0  0.28804  0.76421  0.58738  1.0000
  C   C595      1.0  0.11885  0.55546  0.52660  1.0000
  H   H717      1.0  0.27773  0.76601  0.52519  1.0000
  S   S160      1.0  0.23468  0.80570  0.51071  1.0000
  C   C596      1.0  0.25138  0.79377  0.61555  1.0000
  H   H718      1.0  0.02855  0.54487  0.60667  1.0000
  H   H719      1.0  0.02414  0.57977  0.51052  1.0000
  H   H720      1.0  0.26857  0.82590  0.59521  1.0000
  H   H721      1.0  0.23706  0.78411  0.65091  1.0000
  H   H722      1.0  0.20360  0.80259  0.73394  1.0000
  C   C597      1.0  0.26413  0.75208  0.52317  1.0000
  C   C598      1.0  0.31286  0.83640  0.69282  1.0000
  C   C599      1.0  0.27983  0.79639  0.58966  1.0000
  H   H723      1.0  0.24167  0.80293  0.62291  1.0000
  Fe  Fe84      1.0  0.17502  0.69058  0.72018  1.0000
  N   N40       1.0  0.24549  0.73936  0.53921  1.0000
  H   H724      1.0  0.20293  0.74882  0.62859  1.0000
  H   H725      1.0  0.07756  0.53095  0.52626  1.0000
  C   C600      1.0  0.08590  0.55742  0.54737  1.0000
  H   H726      1.0  0.02852  0.54665  0.56159  1.0000
  C   C601      1.0  0.15669  0.78450  0.74436  1.0000
  H   H727      1.0  0.29892  0.83917  0.68671  1.0000
  S   S161      1.0  0.14951  0.68695  0.50582  1.0000
  H   H728      1.0  0.24905  0.72784  0.64425  1.0000
  C   C602      1.0  0.08048  0.60129  0.50759  1.0000
  C   C603      1.0  0.26673  0.80711  0.59973  1.0000
  H   H729      1.0  0.28576  0.79400  0.69418  1.0000
  H   H730      1.0  0.22670  0.73646  0.51218  1.0000
  H   H731      1.0  0.06827  0.66285  0.52040  1.0000
  C   C604      1.0  0.31914  0.92692  0.51318  1.0000
  H   H732      1.0  0.27271  0.73969  0.51792  1.0000
  Fe  Fe85      1.0  0.31314  0.89607  0.74191  1.0000
  H   H733      1.0  0.13044  0.57054  0.52908  1.0000
  H   H734      1.0  0.04884  0.59799  0.52593  1.0000
  S   S162      1.0  0.30034  0.90067  0.52757  1.0000
  H   H735      1.0  0.29604  0.79296  0.71279  1.0000
  C   C605      1.0  0.30139  0.79413  0.69887  1.0000
  H   H736      1.0  0.24305  0.77265  0.54427  1.0000
  H   H737      1.0  0.13158  0.50828  0.59516  1.0000
  S   S163      1.0  0.18070  0.65934  0.73721  1.0000
  H   H738      1.0  0.99838  0.60425  0.55157  1.0000
  C   C606      1.0  0.29408  0.99900  0.52150  1.0000
  H   H739      1.0  0.14209  0.55138  0.58146  1.0000
  C   C607      1.0  0.32843  0.94587  0.51929  1.0000
  H   H740      1.0  0.12815  0.56644  0.55728  1.0000
  H   H741      1.0  0.01238  0.54420  0.50061  1.0000
  H   H742      1.0  0.12973  0.54426  0.52219  1.0000
  C   C608      1.0  0.28026  0.95842  0.52058  1.0000
  N   N41       1.0  0.32057  0.81578  0.68928  1.0000
  C   C609      1.0  0.09383  0.72181  0.74366  1.0000
  H   H743      1.0  0.19047  0.82180  0.74384  1.0000
  H   H744      1.0  0.07259  0.54811  0.55972  1.0000
  C   C610      1.0  0.08588  0.62726  0.72194  1.0000
  S   S164      1.0  0.14265  0.62024  0.50562  1.0000
  C   C611      1.0  0.32757  0.81865  0.67058  1.0000
  C   C612      1.0  0.31883  0.80089  0.66283  1.0000
  H   H745      1.0  0.07480  0.62689  0.71341  1.0000
  H   H746      1.0  0.09675  0.57365  0.54919  1.0000
  C   C613      1.0  0.20293  0.77257  0.50317  1.0000
  C   C614      1.0  0.08442  0.52308  0.53678  1.0000
  H   H747      1.0  0.05862  0.71501  0.74233  1.0000
  C   C615      1.0  0.12570  0.51474  0.58415  1.0000
  H   H748      1.0  0.27355  0.93964  0.52708  1.0000
  C   C616      1.0  0.01578  0.53577  0.61928  1.0000
  H   H749      1.0  0.32000  0.79020  0.63943  1.0000
  H   H750      1.0  0.04736  0.74576  0.50178  1.0000
  S   S165      1.0  0.31871  0.79637  0.54472  1.0000
  H   H751      1.0  0.99800  0.56153  0.59808  1.0000
  C   C617      1.0  0.04249  0.58427  0.50486  1.0000
  C   C618      1.0  0.01121  0.72088  0.73777  1.0000
  H   H752      1.0  0.13687  0.61700  0.72518  1.0000
  H   H753      1.0  0.30612  0.83398  0.70681  1.0000
  H   H754      1.0  0.11338  0.77982  0.71600  1.0000
  H   H755      1.0  0.03314  0.75228  0.74052  1.0000
  C   C619      1.0  0.14798  0.78092  0.71733  1.0000
  H   H756      1.0  0.01730  0.54812  0.62751  1.0000
  H   H757      1.0  0.32709  0.85312  0.68821  1.0000
  H   H758      1.0  0.30618  0.78439  0.67012  1.0000
  H   H759      1.0  0.02406  0.71969  0.72707  1.0000
  H   H760      1.0  0.06449  0.64053  0.73871  1.0000
  C   C620      1.0  0.32656  0.80398  0.64516  1.0000
  H   H761      1.0  0.06915  0.51227  0.54759  1.0000
  C   C621      1.0  0.11511  0.62913  0.74331  1.0000
  C   C622      1.0  0.08016  0.63510  0.73660  1.0000
  C   C623      1.0  0.11844  0.78432  0.74010  1.0000
  H   H762      1.0  0.01100  0.67085  0.50082  1.0000
  C   C624      1.0  0.28564  0.96596  0.50282  1.0000
  H   H763      1.0  0.10074  0.78437  0.74515  1.0000
  S   S166      1.0  0.99727  0.61581  0.51478  1.0000
  H   H764      1.0  0.18768  0.75901  0.74547  1.0000
  C   C625      1.0  0.01636  0.73932  0.74530  1.0000
  Fe  Fe86      1.0  0.23870  0.85268  0.95452  1.0000
  S   S167      1.0  0.27489  0.84952  0.95166  1.0000
  S   S168      1.0  0.20697  0.82112  0.96608  1.0000
  Fe  Fe87      1.0  0.25569  0.90593  0.93758  1.0000
  S   S169      1.0  0.24842  0.94006  0.92661  1.0000
  Fe  Fe88      1.0  0.28262  0.87372  0.92532  1.0000
  Fe  Fe89      1.0  0.28163  0.88317  0.96013  1.0000
  H   H765      1.0  0.32685  0.99990  0.87087  1.0000
  S   S170      1.0  0.24597  0.87439  0.92768  1.0000
  S   S171      1.0  0.24477  0.88458  0.96504  1.0000
  Fe  Fe90      1.0  0.12716  0.74327  0.92545  1.0000
  S   S172      1.0  0.12733  0.70772  0.94042  1.0000
  S   S173      1.0  0.15922  0.77475  0.91580  1.0000
  Fe  Fe91      1.0  0.07858  0.72350  0.92200  1.0000
  S   S174      1.0  0.07482  0.68649  0.93711  1.0000
  S   S175      1.0  0.05293  0.73473  0.90870  1.0000
  Fe  Fe92      1.0  0.09099  0.70465  0.95451  1.0000
  Fe  Fe93      1.0  0.11128  0.69294  0.92168  1.0000
  S   S176      1.0  0.12677  0.66945  0.90760  1.0000
  S   S177      1.0  0.09176  0.74143  0.94070  1.0000
  S   S178      1.0  0.11399  0.72872  0.90550  1.0000
  Fe  Fe94      1.0  0.07763  0.58013  0.86321  1.0000
  S   S179      1.0  0.06468  0.54637  0.85630  1.0000
  S   S180      1.0  0.06134  0.58910  0.88715  1.0000
  Fe  Fe95      1.0  0.11101  0.60426  0.82837  1.0000
  S   S181      1.0  0.10183  0.57301  0.81788  1.0000
  S   S182      1.0  0.13142  0.64204  0.81517  1.0000
  Fe  Fe96      1.0  0.06539  0.56963  0.83121  1.0000
  H   H766      1.0  0.30289  0.97553  0.88355  1.0000
  Fe  Fe97      1.0  0.10183  0.55112  0.84338  1.0000
  S   S183      1.0  0.07430  0.60277  0.83938  1.0000
  S   S184      1.0  0.11503  0.58292  0.85265  1.0000
  H   H767      1.0  0.14825  0.77281  0.77993  1.0000
  S   S185      1.0  0.27264  0.95687  0.84661  1.0000
  H   H768      1.0  0.21000  0.75182  0.87918  1.0000
  H   H769      1.0  0.14678  0.76490  0.95299  1.0000
  C   C626      1.0  0.06804  0.65253  0.76583  1.0000
  H   H770      1.0  0.20184  0.69342  0.90820  1.0000
  C   C627      1.0  0.17446  0.72113  0.90276  1.0000
  C   C628      1.0  0.20477  0.74885  0.94491  1.0000
  C   C629      1.0  0.07648  0.72688  0.77642  1.0000
  C   C630      1.0  0.06153  0.72127  0.76648  1.0000
  H   H771      1.0  0.16887  0.84086  0.95291  1.0000
  S   S186      1.0  0.11547  0.51904  0.84422  1.0000
  H   H772      1.0  0.11744  0.52756  0.80697  1.0000
  C   C631      1.0  0.10010  0.72946  0.77011  1.0000
  H   H773      1.0  0.04337  0.71948  0.77117  1.0000
  H   H774      1.0  0.25467  0.98425  0.86819  1.0000
  S   S187      1.0  0.02477  0.67349  0.82388  1.0000
  H   H775      1.0  0.11171  0.73378  0.77778  1.0000
  C   C632      1.0  0.14654  0.64691  0.79380  1.0000
  C   C633      1.0  0.14952  0.62790  0.78721  1.0000
  C   C634      1.0  0.16084  0.63207  0.76990  1.0000
  C   C635      1.0  0.16891  0.65512  0.75911  1.0000
  C   C636      1.0  0.16643  0.67421  0.76577  1.0000
  C   C637      1.0  0.15525  0.67009  0.78313  1.0000
  H   H776      1.0  0.14324  0.61003  0.79545  1.0000
  H   H777      1.0  0.16294  0.61743  0.76472  1.0000
  H   H778      1.0  0.05303  0.63685  0.76831  1.0000
  H   H779      1.0  0.15313  0.68482  0.78827  1.0000
  Fe  Fe98      1.0  0.30150  0.98960  0.83224  1.0000
  H   H780      1.0  0.23988  0.76557  0.74745  1.0000
  H   H781      1.0  0.19144  0.76126  0.76577  1.0000
  C   C638      1.0  0.02280  0.62065  0.80779  1.0000
  C   C639      1.0  0.01331  0.57182  0.86474  1.0000
  H   H782      1.0  0.06514  0.65965  0.77722  1.0000
  H   H783      1.0  0.05093  0.60872  0.81433  1.0000
  H   H784      1.0  0.06934  0.51026  0.83984  1.0000
  C   C640      1.0  0.13370  0.78568  0.75037  1.0000
  H   H785      1.0  0.11055  0.68106  0.74762  1.0000
  H   H786      1.0  0.08610  0.63554  0.78991  1.0000
  H   H787      1.0  0.08088  0.54142  0.76348  1.0000
  C   C641      1.0  0.14938  0.56916  0.76178  1.0000
  H   H788      1.0  0.04562  0.70811  0.97229  1.0000
  H   H789      1.0  0.06781  0.66676  0.75488  1.0000
  C   C642      1.0  0.10815  0.64715  0.90224  1.0000
  C   C643      1.0  0.08420  0.64063  0.90922  1.0000
  C   C644      1.0  0.06995  0.62245  0.90481  1.0000
  C   C645      1.0  0.07953  0.61113  0.89311  1.0000
  C   C646      1.0  0.10341  0.61800  0.88593  1.0000
  C   C647      1.0  0.11767  0.63572  0.89063  1.0000
  H   H790      1.0  0.07667  0.64933  0.91818  1.0000
  H   H791      1.0  0.05146  0.61736  0.91035  1.0000
  H   H792      1.0  0.11101  0.60942  0.87697  1.0000
  H   H793      1.0  0.13617  0.64064  0.88519  1.0000
  C   C648      1.0  0.03976  0.71519  0.89817  1.0000
  C   C649      1.0  0.03981  0.69139  0.90189  1.0000
  C   C650      1.0  0.02870  0.67610  0.89361  1.0000
  C   C651      1.0  0.00474  0.57421  0.80678  1.0000
  C   C652      1.0  0.01866  0.70858  0.87710  1.0000
  C   C653      1.0  0.02908  0.72369  0.88580  1.0000
  H   H794      1.0  0.04794  0.68464  0.91141  1.0000
  H   H795      1.0  0.17287  0.69191  0.96370  1.0000
  H   H796      1.0  0.02901  0.74207  0.88286  1.0000
  C   C654      1.0  0.25621  0.94580  0.90426  1.0000
  C   C655      1.0  0.26632  0.93063  0.89659  1.0000
  C   C656      1.0  0.27143  0.93418  0.87887  1.0000
  C   C657      1.0  0.26723  0.95348  0.86862  1.0000
  C   C658      1.0  0.25793  0.96928  0.87614  1.0000
  C   C659      1.0  0.25221  0.96530  0.89401  1.0000
  H   H797      1.0  0.27041  0.91616  0.90422  1.0000
  H   H798      1.0  0.27867  0.92194  0.87315  1.0000
  C   C660      1.0  0.10003  0.75596  0.98175  1.0000
  C   C661      1.0  0.17268  0.78652  0.93010  1.0000
  C   C662      1.0  0.19383  0.80416  0.92348  1.0000
  C   C663      1.0  0.20484  0.81435  0.93443  1.0000
  C   C664      1.0  0.19457  0.80730  0.95208  1.0000
  C   C665      1.0  0.17364  0.78931  0.95873  1.0000
  C   C666      1.0  0.16279  0.77883  0.94779  1.0000
  H   H799      1.0  0.20176  0.80993  0.90983  1.0000
  H   H800      1.0  0.22119  0.82775  0.92918  1.0000
  H   H801      1.0  0.16575  0.78364  0.97238  1.0000
  H   H802      1.0  0.32211  0.92800  0.86295  1.0000
  H   H803      1.0  0.01192  0.59018  0.89030  1.0000
  C   C667      1.0  0.12588  0.53872  0.79412  1.0000
  H   H804      1.0  0.31273  0.94296  0.89685  1.0000
  S   S188      1.0  0.32806  0.83670  0.74663  1.0000
  C   C668      1.0  0.30887  0.97881  0.91417  1.0000
  H   H805      1.0  0.22835  0.71657  0.90254  1.0000
  S   S189      1.0  0.30305  0.88808  0.97888  1.0000
  H   H806      1.0  0.01570  0.63008  0.85727  1.0000
  H   H807      1.0  0.02773  0.57205  0.87084  1.0000
  C   C669      1.0  0.01821  0.68468  0.88112  1.0000
  H   H808      1.0  0.31187  0.98864  0.77576  1.0000
  H   H809      1.0  0.21303  0.71185  0.88680  1.0000
  H   H810      1.0  0.29734  0.99022  0.91692  1.0000
  H   H811      1.0  0.02075  0.57236  0.85117  1.0000
  H   H812      1.0  0.22795  0.75878  0.89271  1.0000
  H   H813      1.0  0.30219  0.97066  0.97550  1.0000
  C   C670      1.0  0.20674  0.74934  0.92774  1.0000
  N   N42       1.0  0.19793  0.72882  0.90497  1.0000
  C   C671      1.0  0.19254  0.72826  0.95782  1.0000
  H   H814      1.0  0.07627  0.61178  0.78081  1.0000
  H   H815      1.0  0.09404  0.51854  0.75871  1.0000
  H   H816      1.0  0.29008  0.96165  0.76217  1.0000
  C   C672      1.0  0.00010  0.74080  0.75919  1.0000
  C   C673      1.0  0.18457  0.70811  0.93649  1.0000
  N   N43       1.0  0.08908  0.67750  0.85136  1.0000
  C   C674      1.0  0.07055  0.65958  0.86542  1.0000
  C   C675      1.0  0.08779  0.67138  0.83509  1.0000
  C   C676      1.0  0.11179  0.67582  0.85401  1.0000
  C   C677      1.0  0.08622  0.70127  0.85152  1.0000
  C   C678      1.0  0.07846  0.71474  0.83882  1.0000
  C   C679      1.0  0.08987  0.71102  0.86520  1.0000
  C   C680      1.0  0.07500  0.73671  0.83971  1.0000
  C   C681      1.0  0.08664  0.73314  0.86583  1.0000
  C   C682      1.0  0.07912  0.74591  0.85317  1.0000
  H   H817      1.0  0.05318  0.66056  0.86409  1.0000
  H   H818      1.0  0.07176  0.64132  0.86574  1.0000
  H   H819      1.0  0.07137  0.66225  0.87816  1.0000
  H   H820      1.0  0.09149  0.65412  0.83493  1.0000
  H   H821      1.0  0.10076  0.68485  0.82391  1.0000
  H   H822      1.0  0.07030  0.66962  0.83310  1.0000
  H   H823      1.0  0.12615  0.69012  0.84437  1.0000
  H   H824      1.0  0.11321  0.67693  0.86695  1.0000
  H   H825      1.0  0.11493  0.65856  0.85289  1.0000
  H   H826      1.0  0.07451  0.70857  0.82821  1.0000
  H   H827      1.0  0.09450  0.70131  0.87586  1.0000
  H   H828      1.0  0.06866  0.74641  0.83002  1.0000
  H   H829      1.0  0.08902  0.73999  0.87662  1.0000
  H   H830      1.0  0.07585  0.76264  0.85408  1.0000
  H   H831      1.0  0.10794  0.75496  0.96908  1.0000
  H   H832      1.0  0.10608  0.67658  0.77038  1.0000
  H   H833      1.0  0.31171  0.91211  0.78580  1.0000
  H   H834      1.0  0.17303  0.69207  0.75756  1.0000
  C   C683      1.0  0.11484  0.53846  0.78077  1.0000
  C   C684      1.0  0.02173  0.61417  0.85649  1.0000
  H   H835      1.0  0.12678  0.78698  0.76311  1.0000
  H   H836      1.0  0.12597  0.66441  0.75866  1.0000
  H   H837      1.0  0.17641  0.69187  0.93392  1.0000
  H   H838      1.0  0.00429  0.75486  0.76529  1.0000
  N   N44       1.0  0.19909  0.88628  0.89600  1.0000
  C   C685      1.0  0.17946  0.87310  0.89089  1.0000
  C   C686      1.0  0.20598  0.91128  0.88544  1.0000
  C   C687      1.0  0.21886  0.87636  0.89177  1.0000
  C   C688      1.0  0.19266  0.88385  0.91465  1.0000
  C   C689      1.0  0.19816  0.90334  0.92167  1.0000
  C   C690      1.0  0.18184  0.86124  0.92648  1.0000
  C   C691      1.0  0.19318  0.90021  0.93937  1.0000
  C   C692      1.0  0.17676  0.85837  0.94414  1.0000
  C   C693      1.0  0.18261  0.87777  0.95057  1.0000
  H   H839      1.0  0.16346  0.87814  0.89565  1.0000
  H   H840      1.0  0.18302  0.87663  0.87674  1.0000
  H   H841      1.0  0.17568  0.85356  0.89579  1.0000
  H   H842      1.0  0.19217  0.92008  0.88861  1.0000
  H   H843      1.0  0.20986  0.91268  0.87148  1.0000
  H   H844      1.0  0.22210  0.92181  0.88719  1.0000
  H   H845      1.0  0.21482  0.85749  0.89908  1.0000
  H   H846      1.0  0.22415  0.87735  0.87791  1.0000
  H   H847      1.0  0.23418  0.88627  0.89493  1.0000
  H   H848      1.0  0.20684  0.92116  0.91383  1.0000
  H   H849      1.0  0.17774  0.84540  0.92226  1.0000
  H   H850      1.0  0.19817  0.91527  0.94437  1.0000
  C   C694      1.0  0.19439  0.80440  0.74640  1.0000
  H   H851      1.0  0.17932  0.87531  0.96426  1.0000
  H   H852      1.0  0.99757  0.55616  0.80658  1.0000
  S   S190      1.0  0.29463  0.86458  0.76442  1.0000
  H   H853      1.0  0.06784  0.75731  0.97632  1.0000
  C   C695      1.0  0.31888  0.94898  0.75243  1.0000
  S   S191      1.0  0.08184  0.69101  0.98335  1.0000
  N   N45       1.0  0.17305  0.78470  0.75509  1.0000
  H   H854      1.0  0.01107  0.71645  0.98855  1.0000
  S   S192      1.0  0.00402  0.66494  0.87120  1.0000
  H   H855      1.0  0.29775  0.87879  0.82276  1.0000
  H   H856      1.0  0.15579  0.55352  0.80186  1.0000
  H   H857      1.0  0.21604  0.76607  0.91850  1.0000
  H   H858      1.0  0.03008  0.63864  0.80780  1.0000
  H   H859      1.0  0.07965  0.52769  0.80923  1.0000
  S   S193      1.0  0.03834  0.55834  0.81809  1.0000
  C   C696      1.0  0.31612  0.92237  0.83932  1.0000
  C   C697      1.0  0.15972  0.56874  0.77517  1.0000
  C   C698      1.0  0.32307  0.91393  0.79453  1.0000
  S   S194      1.0  0.29287  0.90691  0.93339  1.0000
  C   C699      1.0  0.10896  0.66798  0.75978  1.0000
  C   C700      1.0  0.20968  0.75236  0.89254  1.0000
  H   H860      1.0  0.01043  0.71532  0.86763  1.0000
  C   C701      1.0  0.30186  0.93429  0.97707  1.0000
  C   C702      1.0  0.05747  0.69738  0.99451  1.0000
  C   C703      1.0  0.18253  0.70790  0.95362  1.0000
  C   C704      1.0  0.29124  0.89455  0.81932  1.0000
  H   H861      1.0  0.29310  0.93302  0.96718  1.0000
  H   H862      1.0  0.16495  0.70276  0.91047  1.0000
  H   H863      1.0  0.21237  0.76476  0.94824  1.0000
  C   C705      1.0  0.02525  0.58032  0.81147  1.0000
  C   C706      1.0  0.17917  0.76194  0.75771  1.0000
  H   H864      1.0  0.06509  0.51093  0.77193  1.0000
  H   H865      1.0  0.29820  0.92196  0.84352  1.0000
  H   H866      1.0  0.27972  0.89571  0.83118  1.0000
  S   S195      1.0  0.06605  0.73159  0.79644  1.0000
  C   C707      1.0  0.19639  0.72897  0.92300  1.0000
  C   C708      1.0  0.03465  0.60370  0.81143  1.0000
  H   H867      1.0  0.20050  0.76575  0.89528  1.0000
  H   H868      1.0  0.17480  0.72137  0.88927  1.0000
  H   H869      1.0  0.24455  0.97722  0.89986  1.0000
  S   S196      1.0  0.30083  0.87101  0.89962  1.0000
  C   C709      1.0  0.07495  0.52898  0.79699  1.0000
  S   S197      1.0  0.00054  0.70098  0.79744  1.0000
  H   H870      1.0  0.12700  0.72909  0.74886  1.0000
  H   H871      1.0  0.12027  0.55568  0.75353  1.0000
  C   C710      1.0  0.14793  0.55363  0.79133  1.0000
  C   C711      1.0  0.10876  0.72673  0.75378  1.0000
  H   H872      1.0  0.02826  0.65758  0.89690  1.0000
  H   H873      1.0  0.10654  0.62462  0.77781  1.0000
  H   H874      1.0  0.31722  0.97582  0.92475  1.0000
  H   H875      1.0  0.03713  0.61574  0.86155  1.0000
  C   C712      1.0  0.30704  0.95560  0.98180  1.0000
  H   H876      1.0  0.16390  0.73287  0.90659  1.0000
  C   C713      1.0  0.21087  0.71195  0.90044  1.0000
  H   H877      1.0  0.29153  0.93615  0.79785  1.0000
  Fe  Fe99      1.0  0.02901  0.71079  0.80966  1.0000
  C   C714      1.0  0.07021  0.71892  0.75009  1.0000
  H   H878      1.0  0.02718  0.61504  0.84269  1.0000
  C   C715      1.0  0.07740  0.75732  0.98588  1.0000
  H   H879      1.0  0.19071  0.72819  0.97110  1.0000
  C   C716      1.0  0.08259  0.52349  0.76883  1.0000
  H   H880      1.0  0.28925  0.93826  0.81915  1.0000
  C   C717      1.0  0.12724  0.55433  0.76445  1.0000
  C   C718      1.0  0.30814  0.91477  0.98509  1.0000
  H   H881      1.0  0.29721  0.96152  0.91486  1.0000
  N   N46       1.0  0.31070  0.91631  0.81122  1.0000
  H   H882      1.0  0.17681  0.58037  0.77308  1.0000
  C   C719      1.0  0.08975  0.62874  0.77843  1.0000
  C   C720      1.0  0.04230  0.70548  0.98599  1.0000
  H   H883      1.0  0.15859  0.58122  0.74927  1.0000
  N   N47       1.0  0.09022  0.64618  0.76267  1.0000
  H   H884      1.0  0.16352  0.74665  0.76396  1.0000
  H   H885      1.0  0.28026  0.89107  0.81058  1.0000
  H   H886      1.0  0.07442  0.54756  0.79229  1.0000
  C   C721      1.0  0.02274  0.71014  0.99521  1.0000
  S   S198      1.0  0.00640  0.71880  0.83150  1.0000
  C   C722      1.0  0.30133  0.93697  0.80763  1.0000
  C   C723      1.0  0.32959  0.87008  0.89662  1.0000
  C   C724      1.0  0.30808  0.96285  0.76122  1.0000
  N   N48       1.0  0.00349  0.59202  0.86613  1.0000
  C   C725      1.0  0.32973  0.92598  0.85051  1.0000
  C   C726      1.0  0.32040  0.97813  0.76894  1.0000
  N   N49       1.0  0.09138  0.52248  0.78422  1.0000
  C   C727      1.0  0.32546  0.91964  0.82293  1.0000
  H   H887      1.0  0.32942  0.89788  0.79621  1.0000
  H   H888      1.0  0.17658  0.78817  0.77985  1.0000
  C   C728      1.0  0.16368  0.78774  0.77226  1.0000
  C   C729      1.0  0.31425  0.99251  0.88372  1.0000
  H   H889      1.0  0.15892  0.80470  0.77124  1.0000
  H   H890      1.0  0.05704  0.51725  0.80021  1.0000
  H   H891      1.0  0.12741  0.63025  0.75082  1.0000
  H   H892      1.0  0.32761  0.85986  0.92344  1.0000
  H   H893      1.0  0.31547  0.95383  0.80285  1.0000
  N   N50       1.0  0.32631  0.98947  0.89733  1.0000
  C   C730      1.0  0.00158  0.61423  0.80412  1.0000
  Fe  Fe100     1.0  0.00035  0.68055  0.84501  1.0000
  H   H894      1.0  0.12986  0.75415  0.99070  1.0000
  C   C731      1.0  0.09476  0.63642  0.74772  1.0000
  S   S199      1.0  0.26468  0.81089  0.74882  1.0000
  H   H895      1.0  0.20711  0.80524  0.75416  1.0000
  H   H896      1.0  0.00008  0.55454  0.87118  1.0000
  C   C732      1.0  0.31821  0.95749  0.99475  1.0000
  C   C733      1.0  0.11230  0.75541  0.99400  1.0000
  C   C734      1.0  0.99740  0.59171  0.88450  1.0000
  Fe  Fe101     1.0  0.32999  0.86073  0.76391  1.0000
  H   H897      1.0  0.46195  0.10928  0.11153  1.0000
  C   C735      1.0  0.58796  0.07720  0.11448  1.0000
  N   N51       1.0  0.56918  0.35054  0.16899  1.0000
  H   H898      1.0  0.41679  0.08196  0.10485  1.0000
  H   H899      1.0  0.46933  0.27576  0.06937  1.0000
  H   H900      1.0  0.37147  0.20835  0.23261  1.0000
  H   H901      1.0  0.41004  0.30176  0.05185  1.0000
  H   H902      1.0  0.35075  0.07635  0.12305  1.0000
  S   S200      1.0  0.35802  0.17712  0.07255  1.0000
  Fe  Fe102     1.0  0.40496  0.20860  0.09185  1.0000
  S   S201      1.0  0.37960  0.17329  0.10587  1.0000
  S   S202      1.0  0.43208  0.22306  0.10455  1.0000
  Fe  Fe103     1.0  0.38606  0.16365  0.08099  1.0000
  S   S203      1.0  0.39256  0.12813  0.08031  1.0000
  Fe  Fe104     1.0  0.35369  0.18939  0.09647  1.0000
  H   H903      1.0  0.36738  0.30914  0.22511  1.0000
  S   S204      1.0  0.41390  0.19761  0.06755  1.0000
  S   S205      1.0  0.37847  0.22561  0.08431  1.0000
  H   H904      1.0  0.56467  0.31291  0.17681  1.0000
  Fe  Fe105     1.0  0.51445  0.37587  0.13932  1.0000
  S   S206      1.0  0.51115  0.33884  0.13641  1.0000
  S   S207      1.0  0.54656  0.40708  0.12704  1.0000
  Fe  Fe106     1.0  0.46503  0.36237  0.16181  1.0000
  S   S208      1.0  0.45783  0.32441  0.16148  1.0000
  S   S209      1.0  0.44066  0.37916  0.17574  1.0000
  Fe  Fe107     1.0  0.49340  0.32752  0.16466  1.0000
  S   S210      1.0  0.49988  0.29821  0.18316  1.0000
  Fe  Fe108     1.0  0.47571  0.33863  0.13339  1.0000
  S   S211      1.0  0.45813  0.32716  0.11388  1.0000
  S   S212      1.0  0.49916  0.36437  0.16761  1.0000
  S   S213      1.0  0.48066  0.37685  0.13357  1.0000
  H   H905      1.0  0.37069  0.17722  0.02498  1.0000
  C   C736      1.0  0.35958  0.02721  0.12671  1.0000
  H   H906      1.0  0.54168  0.45743  0.14913  1.0000
  H   H907      1.0  0.46278  0.29339  0.02607  1.0000
  H   H908      1.0  0.35324  0.19221  0.01494  1.0000
  C   C737      1.0  0.50896  0.46618  0.15520  1.0000
  H   H909      1.0  0.46511  0.35869  0.05938  1.0000
  H   H910      1.0  0.41826  0.06768  0.23102  1.0000
  C   C738      1.0  0.63283  0.10611  0.09809  1.0000
  C   C739      1.0  0.49601  0.42362  0.16079  1.0000
  Fe  Fe109     1.0  0.38520  0.21198  0.06098  1.0000
  C   C740      1.0  0.41107  0.36380  0.18233  1.0000
  C   C741      1.0  0.40267  0.34192  0.17917  1.0000
  C   C742      1.0  0.37892  0.32989  0.18525  1.0000
  C   C743      1.0  0.36362  0.33977  0.19450  1.0000
  C   C744      1.0  0.37211  0.36168  0.19748  1.0000
  C   C745      1.0  0.39567  0.37363  0.19142  1.0000
  H   H911      1.0  0.41438  0.33419  0.17216  1.0000
  H   H912      1.0  0.37259  0.31293  0.18298  1.0000
  H   H913      1.0  0.36040  0.36936  0.20466  1.0000
  H   H914      1.0  0.40199  0.39048  0.19393  1.0000
  H   H915      1.0  0.51367  0.42161  0.15932  1.0000
  C   C746      1.0  0.62410  0.41552  0.15531  1.0000
  N   N52       1.0  0.43764  0.28466  0.05037  1.0000
  H   H916      1.0  0.58633  0.33021  0.18400  1.0000
  H   H917      1.0  0.42777  0.32436  0.22870  1.0000
  C   C747      1.0  0.47388  0.27707  0.23476  1.0000
  C   C748      1.0  0.48256  0.27710  0.21767  1.0000
  C   C749      1.0  0.48962  0.29829  0.20459  1.0000
  C   C750      1.0  0.48846  0.31944  0.20873  1.0000
  C   C751      1.0  0.48039  0.31952  0.22577  1.0000
  C   C752      1.0  0.47288  0.29834  0.23878  1.0000
  H   H918      1.0  0.48342  0.26065  0.21458  1.0000
  H   H919      1.0  0.49405  0.33586  0.19890  1.0000
  H   H920      1.0  0.47962  0.33601  0.22883  1.0000
  H   H921      1.0  0.42574  0.07998  0.19956  1.0000
  H   H922      1.0  0.36786  0.13735  0.00842  1.0000
  C   C753      1.0  0.44442  0.29270  0.03141  1.0000
  H   H923      1.0  0.60292  0.05584  0.12997  1.0000
  H   H924      1.0  0.41533  0.31077  0.14916  1.0000
  C   C754      1.0  0.43090  0.06494  0.20552  1.0000
  H   H925      1.0  0.56377  0.48894  0.15823  1.0000
  C   C755      1.0  0.55753  0.34766  0.15534  1.0000
  H   H926      1.0  0.37526  0.25194  0.19843  1.0000
  C   C756      1.0  0.41564  0.01974  0.09494  1.0000
  C   C757      1.0  0.38891  0.26166  0.20271  1.0000
  C   C758      1.0  0.46809  0.29372  0.06637  1.0000
  H   H927      1.0  0.48823  0.42160  0.17459  1.0000
  C   C759      1.0  0.43812  0.25163  0.10795  1.0000
  C   C760      1.0  0.45621  0.25859  0.11522  1.0000
  C   C761      1.0  0.46208  0.28144  0.11761  1.0000
  C   C762      1.0  0.44999  0.29759  0.11259  1.0000
  C   C763      1.0  0.43168  0.29049  0.10553  1.0000
  C   C764      1.0  0.42559  0.26751  0.10339  1.0000
  H   H928      1.0  0.46597  0.24639  0.11882  1.0000
  H   H929      1.0  0.47628  0.28676  0.12297  1.0000
  H   H930      1.0  0.42220  0.30287  0.10170  1.0000
  H   H931      1.0  0.41134  0.26218  0.09815  1.0000
  C   C765      1.0  0.37557  0.11006  0.07081  1.0000
  C   C766      1.0  0.38211  0.09063  0.06657  1.0000
  C   C767      1.0  0.36829  0.07556  0.05953  1.0000
  H   H932      1.0  0.53601  0.33410  0.18756  1.0000
  C   C768      1.0  0.44409  0.02609  0.22111  1.0000
  C   C769      1.0  0.35489  0.11400  0.06834  1.0000
  H   H933      1.0  0.39802  0.08735  0.06856  1.0000
  H   H934      1.0  0.37361  0.06084  0.05603  1.0000
  C   C770      1.0  0.54561  0.48725  0.15914  1.0000
  H   H935      1.0  0.37905  0.32660  0.23772  1.0000
  H   H936      1.0  0.59209  0.32988  0.16196  1.0000
  H   H937      1.0  0.54659  0.04623  0.17422  1.0000
  C   C771      1.0  0.58718  0.44888  0.15691  1.0000
  C   C772      1.0  0.56922  0.42814  0.16561  1.0000
  C   C773      1.0  0.55662  0.41533  0.15662  1.0000
  C   C774      1.0  0.56192  0.42298  0.13879  1.0000
  C   C775      1.0  0.57979  0.44381  0.13006  1.0000
  C   C776      1.0  0.59231  0.45680  0.13908  1.0000
  H   H938      1.0  0.56515  0.42190  0.17940  1.0000
  H   H939      1.0  0.54286  0.39952  0.16349  1.0000
  H   H940      1.0  0.58403  0.44994  0.11626  1.0000
  H   H941      1.0  0.60614  0.47271  0.13222  1.0000
  C   C777      1.0  0.59898  0.37983  0.17632  1.0000
  C   C778      1.0  0.59686  0.38761  0.14695  1.0000
  Fe  Fe110     1.0  0.48437  0.01235  0.13958  1.0000
  C   C779      1.0  0.42916  0.27406  0.20171  1.0000
  H   H942      1.0  0.37334  0.18095  0.00246  1.0000
  H   H943      1.0  0.62374  0.40676  0.18176  1.0000
  C   C780      1.0  0.38368  0.31680  0.22813  1.0000
  H   H944      1.0  0.34928  0.12837  0.07211  1.0000
  H   H945      1.0  0.57054  0.06590  0.12087  1.0000
  H   H946      1.0  0.54492  0.36583  0.18228  1.0000
  H   H947      1.0  0.40051  0.01654  0.20558  1.0000
  H   H948      1.0  0.61674  0.12725  0.08264  1.0000
  H   H949      1.0  0.46161  0.44330  0.16515  1.0000
  C   C781      1.0  0.47120  0.44596  0.15161  1.0000
  H   H950      1.0  0.59383  0.36919  0.18942  1.0000
  H   H951      1.0  0.58978  0.38392  0.13666  1.0000
  C   C782      1.0  0.60663  0.07155  0.11964  1.0000
  N   N53       1.0  0.64901  0.07896  0.11733  1.0000
  H   H952      1.0  0.34180  0.22045  0.16380  1.0000
  C   C783      1.0  0.53277  0.46917  0.15399  1.0000
  C   C784      1.0  0.55992  0.00986  0.14190  1.0000
  C   C785      1.0  0.36455  0.01065  0.13892  1.0000
  C   C786      1.0  0.34104  0.09888  0.06145  1.0000
  H   H953      1.0  0.33294  0.26617  0.11043  1.0000
  H   H954      1.0  0.59070  0.00955  0.15025  1.0000
  S   S214      1.0  0.59033  0.03787  0.17486  1.0000
  S   S215      1.0  0.60297  0.46368  0.16893  1.0000
  C   C787      1.0  0.33692  0.02975  0.12854  1.0000
  S   S216      1.0  0.44441  0.06004  0.17336  1.0000
  H   H955      1.0  0.34210  0.11724  0.02405  1.0000
  H   H956      1.0  0.40805  0.05932  0.13357  1.0000
  C   C788      1.0  0.57065  0.02881  0.16329  1.0000
  H   H957      1.0  0.66015  0.07286  0.14044  1.0000
  C   C789      1.0  0.40998  0.07546  0.13830  1.0000
  H   H958      1.0  0.43806  0.10389  0.15383  1.0000
  C   C790      1.0  0.61642  0.40109  0.17203  1.0000
  H   H959      1.0  0.64965  0.11799  0.09119  1.0000
  H   H960      1.0  0.36565  0.27322  0.21963  1.0000
  C   C791      1.0  0.48064  0.33284  0.07031  1.0000
  H   H961      1.0  0.35835  0.21133  0.17786  1.0000
  C   C792      1.0  0.44839  0.03307  0.20323  1.0000
  H   H962      1.0  0.40006  0.10082  0.11154  1.0000
  H   H963      1.0  0.43350  0.25246  0.06953  1.0000
  S   S217      1.0  0.33409  0.32497  0.20364  1.0000
  H   H964      1.0  0.55737  0.34838  0.19603  1.0000
  H   H965      1.0  0.44688  0.27417  0.19652  1.0000
  H   H966      1.0  0.43359  0.28051  0.02591  1.0000
  S   S218      1.0  0.63852  0.01164  0.15278  1.0000
  H   H967      1.0  0.42711  0.24804  0.05020  1.0000
  H   H968      1.0  0.40121  0.27119  0.05288  1.0000
  C   C793      1.0  0.57849  0.33000  0.17313  1.0000
  C   C794      1.0  0.42404  0.28629  0.21395  1.0000
  H   H969      1.0  0.45563  0.08922  0.13237  1.0000
  H   H970      1.0  0.42075  0.17425  0.12195  1.0000
  C   C795      1.0  0.55026  0.03587  0.16532  1.0000
  H   H971      1.0  0.62995  0.06156  0.14386  1.0000
  C   C796      1.0  0.45252  0.32502  0.05441  1.0000
  H   H972      1.0  0.49269  0.30348  0.08040  1.0000
  H   H973      1.0  0.41562  0.25187  0.18696  1.0000
  C   C797      1.0  0.58819  0.37273  0.16401  1.0000
  Fe  Fe111     1.0  0.62155  0.02400  0.17448  1.0000
  C   C798      1.0  0.41322  0.28448  0.05680  1.0000
  C   C799      1.0  0.46612  0.34060  0.06107  1.0000
  H   H974      1.0  0.55066  0.36298  0.15133  1.0000
  H   H975      1.0  0.39666  0.04376  0.08624  1.0000
  H   H976      1.0  0.56929  0.34578  0.14386  1.0000
  H   H977      1.0  0.43742  0.28127  0.15275  1.0000
  H   H978      1.0  0.50785  0.46560  0.12328  1.0000
  C   C800      1.0  0.41011  0.25232  0.15222  1.0000
  C   C801      1.0  0.38518  0.28570  0.14827  1.0000
  H   H979      1.0  0.41683  0.13977  0.11104  1.0000
  C   C802      1.0  0.35956  0.21386  0.24146  1.0000
  H   H980      1.0  0.41632  0.07124  0.14983  1.0000
  C   C803      1.0  0.42636  0.05778  0.22337  1.0000
  C   C804      1.0  0.55122  0.34980  0.18434  1.0000
  H   H981      1.0  0.44121  0.13906  0.16428  1.0000
  C   C805      1.0  0.61455  0.40864  0.14277  1.0000
  S   S219      1.0  0.39098  0.23480  0.03417  1.0000
  H   H982      1.0  0.34458  0.08500  0.10290  1.0000
  H   H983      1.0  0.40709  0.20985  0.14267  1.0000
  C   C806      1.0  0.43105  0.15884  0.14383  1.0000
  C   C807      1.0  0.38359  0.27389  0.21491  1.0000
  C   C808      1.0  0.53467  0.02983  0.15578  1.0000
  H   H984      1.0  0.37552  0.29869  0.14664  1.0000
  H   H985      1.0  0.38594  0.22667  0.12369  1.0000
  C   C809      1.0  0.42417  0.15862  0.12893  1.0000
  H   H986      1.0  0.35099  0.03820  0.09394  1.0000
  H   H987      1.0  0.42097  0.24060  0.15337  1.0000
  C   C810      1.0  0.43380  0.11876  0.14663  1.0000
  H   H988      1.0  0.42948  0.11310  0.09837  1.0000
  H   H989      1.0  0.39255  0.07796  0.14251  1.0000
  H   H990      1.0  0.51911  0.03557  0.15735  1.0000
  C   C811      1.0  0.41161  0.26162  0.19622  1.0000
  C   C812      1.0  0.43575  0.13890  0.15271  1.0000
  H   H991      1.0  0.45639  0.25826  0.05020  1.0000
  C   C813      1.0  0.43253  0.03809  0.23122  1.0000
  H   H992      1.0  0.37367  0.03782  0.11575  1.0000
  C   C814      1.0  0.42206  0.13854  0.12275  1.0000
  C   C815      1.0  0.41765  0.09829  0.10931  1.0000
  C   C816      1.0  0.40115  0.02754  0.08550  1.0000
  C   C817      1.0  0.45278  0.30097  0.05711  1.0000
  Fe  Fe112     1.0  0.45028  0.03206  0.16023  1.0000
  C   C818      1.0  0.61399  0.11167  0.09301  1.0000
  C   C819      1.0  0.43879  0.25982  0.05535  1.0000
  H   H993      1.0  0.34214  0.15996  0.23680  1.0000
  S   S220      1.0  0.47165  0.04436  0.13298  1.0000
  C   C820      1.0  0.34826  0.24109  0.00339  1.0000
  H   H994      1.0  0.36672  0.07107  0.10404  1.0000
  C   C821      1.0  0.39260  0.01456  0.07490  1.0000
  H   H995      1.0  0.43847  0.29537  0.21767  1.0000
  C   C822      1.0  0.35472  0.21049  0.16538  1.0000
  H   H996      1.0  0.52434  0.44595  0.12978  1.0000
  H   H997      1.0  0.54267  0.33140  0.15969  1.0000
  S   S221      1.0  0.52104  0.01038  0.13102  1.0000
  H   H998      1.0  0.44245  0.31063  0.02659  1.0000
  N   N54       1.0  0.34294  0.15426  0.01904  1.0000
  C   C823      1.0  0.53963  0.01712  0.14385  1.0000
  C   C824      1.0  0.48181  0.30955  0.07279  1.0000
  C   C825      1.0  0.36807  0.24279  0.00944  1.0000
  H   H999      1.0  0.39561  0.20283  0.16574  1.0000
  H   H1000     1.0  0.44952  0.07815  0.11502  1.0000
  C   C826      1.0  0.34928  0.07082  0.11127  1.0000
  H   H1001     1.0  0.39539  0.32997  0.21627  1.0000
  N   N55       1.0  0.49578  0.44648  0.14996  1.0000
  H   H1002     1.0  0.38169  0.02085  0.06749  1.0000
  C   C827      1.0  0.62963  0.08578  0.11167  1.0000
  C   C828      1.0  0.50662  0.44816  0.13182  1.0000
  C   C829      1.0  0.44148  0.05231  0.19545  1.0000
  H   H1003     1.0  0.63703  0.43241  0.15217  1.0000
  C   C830      1.0  0.42693  0.11795  0.13144  1.0000
  C   C831      1.0  0.37523  0.26230  0.14866  1.0000
  C   C832      1.0  0.38733  0.24484  0.15065  1.0000
  H   H1004     1.0  0.42355  0.29739  0.24509  1.0000
  C   C833      1.0  0.64518  0.07646  0.13597  1.0000
  H   H1005     1.0  0.48599  0.40841  0.15736  1.0000
  C   C834      1.0  0.65024  0.05593  0.11396  1.0000
  C   C835      1.0  0.39097  0.20397  0.15341  1.0000
  H   H1006     1.0  0.46189  0.43081  0.14761  1.0000
  H   H1007     1.0  0.43296  0.17460  0.14838  1.0000
  H   H1008     1.0  0.38500  0.25093  0.00058  1.0000
  H   H1009     1.0  0.49670  0.43400  0.12730  1.0000
  C   C836      1.0  0.34779  0.07981  0.05683  1.0000
  S   S222      1.0  0.42477  0.03573  0.10886  1.0000
  Fe  Fe113     1.0  0.63058  0.49930  0.15898  1.0000
  S   S223      1.0  0.36038  0.01611  0.02887  1.0000
  C   C837      1.0  0.40097  0.28639  0.22107  1.0000
  H   H1010     1.0  0.35792  0.25801  0.14733  1.0000
  C   C838      1.0  0.57522  0.01537  0.15177  1.0000
  H   H1011     1.0  0.46957  0.46241  0.14347  1.0000
  H   H1012     1.0  0.40789  0.28012  0.07101  1.0000
  H   H1013     1.0  0.63420  0.04150  0.12099  1.0000
  C   C839      1.0  0.36083  0.17709  0.01519  1.0000
  H   H1014     1.0  0.34228  0.21558  0.05168  1.0000
  S   S224      1.0  0.65481  0.04615  0.17663  1.0000
  H   H1015     1.0  0.34601  0.19175  0.16639  1.0000
  C   C840      1.0  0.40747  0.29245  0.14988  1.0000
  N   N56       1.0  0.39479  0.29853  0.23444  1.0000
  H   H1016     1.0  0.33351  0.23138  0.09890  1.0000
  H   H1017     1.0  0.36127  0.20157  0.13461  1.0000
  C   C841      1.0  0.36601  0.23344  0.02687  1.0000
  C   C842      1.0  0.44924  0.09321  0.12082  1.0000
  N   N57       1.0  0.42586  0.09668  0.12498  1.0000
  H   H1018     1.0  0.45688  0.02348  0.19552  1.0000
  H   H1019     1.0  0.44153  0.33190  0.04736  1.0000
  Fe  Fe114     1.0  0.44184  0.02012  0.12818  1.0000
  C   C843      1.0  0.33958  0.21803  0.23749  1.0000
  Fe  Fe115     1.0  0.65563  0.01356  0.19511  1.0000
  H   H1020     1.0  0.35854  0.23083  0.13220  1.0000
  H   H1021     1.0  0.49055  0.34469  0.07600  1.0000
  N   N58       1.0  0.37618  0.22016  0.15106  1.0000
  C   C844      1.0  0.41985  0.27578  0.15193  1.0000
  C   C845      1.0  0.37023  0.21977  0.13472  1.0000
  C   C846      1.0  0.49879  0.48257  0.16184  1.0000
  C   C847      1.0  0.34410  0.22267  0.03822  1.0000
  H   H1022     1.0  0.38205  0.18564  0.15357  1.0000
  H   H1023     1.0  0.62026  0.42021  0.12985  1.0000
  S   S225      1.0  0.33779  0.26942  0.18573  1.0000
  C   C848      1.0  0.35467  0.13512  0.02051  1.0000
  H   H1024     1.0  0.48080  0.48170  0.16333  1.0000
  H   H1025     1.0  0.36403  0.13505  0.03060  1.0000
  H   H1026     1.0  0.64239  0.09282  0.13924  1.0000
  H   H1027     1.0  0.57707  0.10155  0.09722  1.0000
  C   C849      1.0  0.59163  0.09725  0.10118  1.0000
  Fe  Fe116     1.0  0.33325  0.02523  0.04705  1.0000
  C   C850      1.0  0.51184  0.50073  0.16689  1.0000
  H   H1028     1.0  0.36849  0.01248  0.22892  1.0000
  C   C851      1.0  0.41490  0.31041  0.23966  1.0000
  H   H1029     1.0  0.65295  0.05701  0.10011  1.0000
  C   C852      1.0  0.53518  0.50304  0.16556  1.0000
  S   S226      1.0  0.33325  0.21308  0.21857  1.0000
  H   H1030     1.0  0.33521  0.14865  0.04644  1.0000
  H   H1031     1.0  0.44909  0.01097  0.22713  1.0000
  C   C853      1.0  0.33335  0.03922  0.09973  1.0000
  H   H1032     1.0  0.38203  0.00914  0.13721  1.0000
  H   H1033     1.0  0.46821  0.26064  0.24480  1.0000
  S   S227      1.0  0.41966  0.00965  0.15520  1.0000
  N   N59       1.0  0.33204  0.04740  0.11545  1.0000
  C   C854      1.0  0.33047  0.15520  0.00561  1.0000
  S   S228      1.0  0.45675  0.08580  0.45145  1.0000
  H   H1034     1.0  0.43979  0.39715  0.47338  1.0000
  S   S229      1.0  0.43859  0.06292  0.38401  1.0000
  H   H1035     1.0  0.42134  0.28051  0.42186  1.0000
  H   H1036     1.0  0.48977  0.05412  0.29027  1.0000
  C   C855      1.0  0.36703  0.26160  0.47747  1.0000
  H   H1037     1.0  0.48643  0.31227  0.49524  1.0000
  H   H1038     1.0  0.64263  0.06322  0.34231  1.0000
  Fe  Fe117     1.0  0.62111  0.03024  0.40054  1.0000
  H   H1039     1.0  0.46062  0.14294  0.44787  1.0000
  C   C856      1.0  0.39271  0.05916  0.34348  1.0000
  H   H1040     1.0  0.63548  0.49706  0.36061  1.0000
  S   S230      1.0  0.58409  0.03094  0.40981  1.0000
  H   H1041     1.0  0.34720  0.16487  0.25646  1.0000
  H   H1042     1.0  0.39058  0.25384  0.41394  1.0000
  Fe  Fe118     1.0  0.42973  0.21110  0.29118  1.0000
  Fe  Fe119     1.0  0.43978  0.26421  0.27765  1.0000
  S   S231      1.0  0.40916  0.26589  0.29699  1.0000
  Fe  Fe120     1.0  0.42023  0.24125  0.31581  1.0000
  S   S232      1.0  0.42421  0.24402  0.34197  1.0000
  Fe  Fe121     1.0  0.39056  0.23331  0.29093  1.0000
  S   S233      1.0  0.45225  0.24176  0.29674  1.0000
  S   S234      1.0  0.42043  0.23380  0.27000  1.0000
  S   S235      1.0  0.49793  0.26080  0.47561  1.0000
  S   S236      1.0  0.35738  0.37568  0.46343  1.0000
  Fe  Fe122     1.0  0.47072  0.35195  0.37597  1.0000
  S   S237      1.0  0.46427  0.37824  0.39097  1.0000
  S   S238      1.0  0.45117  0.34492  0.35650  1.0000
  Fe  Fe123     1.0  0.50618  0.33916  0.39368  1.0000
  S   S239      1.0  0.50275  0.36386  0.41011  1.0000
  S   S240      1.0  0.53151  0.31845  0.39772  1.0000
  Fe  Fe124     1.0  0.46493  0.35033  0.41341  1.0000
  S   S241      1.0  0.44234  0.33705  0.44038  1.0000
  Fe  Fe125     1.0  0.50294  0.38973  0.38635  1.0000
  S   S242      1.0  0.52615  0.42746  0.37776  1.0000
  S   S243      1.0  0.46816  0.32322  0.39884  1.0000
  S   S244      1.0  0.50940  0.36585  0.36939  1.0000
  H   H1043     1.0  0.51605  0.38605  0.45419  1.0000
  C   C857      1.0  0.42337  0.13689  0.28101  1.0000
  H   H1044     1.0  0.50959  0.34803  0.44923  1.0000
  C   C858      1.0  0.53869  0.43962  0.39236  1.0000
  C   C859      1.0  0.53238  0.42757  0.40973  1.0000
  C   C860      1.0  0.54347  0.43698  0.42092  1.0000
  H   H1045     1.0  0.40887  0.10384  0.27574  1.0000
  H   H1046     1.0  0.51886  0.41108  0.41458  1.0000
  H   H1047     1.0  0.53849  0.42755  0.43430  1.0000
  C   C861      1.0  0.38017  0.36462  0.45519  1.0000
  C   C862      1.0  0.40074  0.38015  0.44390  1.0000
  C   C863      1.0  0.41971  0.37163  0.43847  1.0000
  C   C864      1.0  0.41815  0.34766  0.44461  1.0000
  C   C865      1.0  0.39744  0.33209  0.45547  1.0000
  C   C866      1.0  0.37837  0.34048  0.46044  1.0000
  H   H1048     1.0  0.40213  0.39883  0.43961  1.0000
  H   H1049     1.0  0.43574  0.38373  0.43005  1.0000
  H   H1050     1.0  0.39610  0.31348  0.46004  1.0000
  C   C867      1.0  0.50718  0.27640  0.45391  1.0000
  C   C868      1.0  0.49246  0.28666  0.44622  1.0000
  C   C869      1.0  0.50012  0.29977  0.42906  1.0000
  C   C870      1.0  0.52224  0.30192  0.41924  1.0000
  C   C871      1.0  0.53699  0.29136  0.42682  1.0000
  C   C872      1.0  0.52955  0.27886  0.44422  1.0000
  H   H1051     1.0  0.47515  0.28466  0.45342  1.0000
  H   H1052     1.0  0.48867  0.30797  0.42349  1.0000
  H   H1053     1.0  0.55417  0.29303  0.41930  1.0000
  H   H1054     1.0  0.54100  0.27087  0.45013  1.0000
  C   C873      1.0  0.43063  0.27184  0.34648  1.0000
  C   C874      1.0  0.44120  0.27456  0.35962  1.0000
  C   C875      1.0  0.44746  0.29680  0.36296  1.0000
  C   C876      1.0  0.44265  0.31634  0.35344  1.0000
  C   C877      1.0  0.43110  0.31332  0.34089  1.0000
  C   C878      1.0  0.42528  0.29123  0.33730  1.0000
  H   H1055     1.0  0.44523  0.25959  0.36688  1.0000
  H   H1056     1.0  0.45638  0.29885  0.37264  1.0000
  H   H1057     1.0  0.42683  0.32823  0.33378  1.0000
  H   H1058     1.0  0.41648  0.28910  0.32754  1.0000
  H   H1059     1.0  0.43985  0.13349  0.28103  1.0000
  H   H1060     1.0  0.41145  0.28681  0.39275  1.0000
  C   C879      1.0  0.41951  0.15803  0.28396  1.0000
  C   C880      1.0  0.40588  0.12011  0.27803  1.0000
  H   H1061     1.0  0.43121  0.22384  0.43606  1.0000
  C   C881      1.0  0.39828  0.16244  0.28373  1.0000
  C   C882      1.0  0.44944  0.04845  0.28614  1.0000
  S   S245      1.0  0.43629  0.21807  0.48532  1.0000
  C   C883      1.0  0.65561  0.08701  0.31699  1.0000
  C   C884      1.0  0.46575  0.40655  0.48592  1.0000
  H   H1062     1.0  0.46420  0.11589  0.41773  1.0000
  C   C885      1.0  0.38092  0.14580  0.28068  1.0000
  C   C886      1.0  0.53305  0.00816  0.37983  1.0000
  H   H1063     1.0  0.50973  0.08951  0.43642  1.0000
  C   C887      1.0  0.36585  0.24257  0.47021  1.0000
  C   C888      1.0  0.45879  0.14195  0.46165  1.0000
  C   C889      1.0  0.43172  0.00667  0.29548  1.0000
  C   C890      1.0  0.38024  0.06093  0.33135  1.0000
  S   S246      1.0  0.41981  0.02527  0.48773  1.0000
  H   H1064     1.0  0.40226  0.39340  0.47658  1.0000
  C   C891      1.0  0.56481  0.02141  0.39821  1.0000
  C   C892      1.0  0.50043  0.31868  0.33717  1.0000
  H   H1065     1.0  0.41661  0.00953  0.29085  1.0000
  H   H1066     1.0  0.34900  0.13784  0.25148  1.0000
  C   C893      1.0  0.59357  0.41782  0.38875  1.0000
  C   C894      1.0  0.34456  0.22978  0.46916  1.0000
  S   S247      1.0  0.46207  0.29914  0.25987  1.0000
  H   H1067     1.0  0.47053  0.24765  0.43369  1.0000
  H   H1068     1.0  0.37359  0.25390  0.43381  1.0000
  C   C895      1.0  0.44911  0.07988  0.43326  1.0000
  C   C896      1.0  0.43777  0.05683  0.43361  1.0000
  S   S248      1.0  0.43663  0.27415  0.48042  1.0000
  C   C897      1.0  0.44079  0.06973  0.40325  1.0000
  C   C898      1.0  0.45114  0.09300  0.40309  1.0000
  C   C899      1.0  0.45553  0.09803  0.41803  1.0000
  H   H1069     1.0  0.45660  0.10696  0.39126  1.0000
  S   S249      1.0  0.39851  0.20850  0.31180  1.0000
  H   H1070     1.0  0.39513  0.17867  0.28598  1.0000
  H   H1071     1.0  0.50536  0.32794  0.34629  1.0000
  Fe  Fe126     1.0  0.34015  0.02471  0.26295  1.0000
  N   N60       1.0  0.42163  0.12447  0.33832  1.0000
  C   C900      1.0  0.42715  0.12094  0.35512  1.0000
  C   C901      1.0  0.44357  0.13228  0.32461  1.0000
  H   H1072     1.0  0.42963  0.16389  0.49118  1.0000
  C   C902      1.0  0.40704  0.10257  0.33636  1.0000
  C   C903      1.0  0.40608  0.07958  0.34593  1.0000
  C   C904      1.0  0.39459  0.10363  0.32378  1.0000
  H   H1073     1.0  0.37390  0.28915  0.26065  1.0000
  C   C905      1.0  0.41013  0.14385  0.33678  1.0000
  C   C906      1.0  0.42591  0.03079  0.31500  1.0000
  H   H1074     1.0  0.43889  0.10940  0.35632  1.0000
  H   H1075     1.0  0.43633  0.13792  0.35704  1.0000
  H   H1076     1.0  0.41118  0.11292  0.36591  1.0000
  H   H1077     1.0  0.45337  0.11882  0.32564  1.0000
  H   H1078     1.0  0.45482  0.14937  0.32491  1.0000
  H   H1079     1.0  0.43425  0.05093  0.28149  1.0000
  C   C907      1.0  0.54111  0.01313  0.40639  1.0000
  H   H1080     1.0  0.34361  0.21496  0.46361  1.0000
  H   H1081     1.0  0.37981  0.21382  0.25970  1.0000
  H   H1082     1.0  0.41547  0.07685  0.35544  1.0000
  H   H1083     1.0  0.39508  0.12026  0.31549  1.0000
  H   H1084     1.0  0.38582  0.26650  0.25467  1.0000
  H   H1085     1.0  0.59093  0.02877  0.37452  1.0000
  H   H1086     1.0  0.41049  0.03391  0.31103  1.0000
  C   C908      1.0  0.37505  0.30247  0.42297  1.0000
  C   C909      1.0  0.36674  0.34059  0.42310  1.0000
  C   C910      1.0  0.57754  0.39750  0.42491  1.0000
  S   S250      1.0  0.57487  0.46907  0.42941  1.0000
  H   H1087     1.0  0.36974  0.04513  0.32953  1.0000
  C   C911      1.0  0.43391  0.05169  0.41856  1.0000
  C   C912      1.0  0.33978  0.30465  0.44225  1.0000
  C   C913      1.0  0.45906  0.32097  0.29524  1.0000
  H   H1088     1.0  0.41936  0.01514  0.32632  1.0000
  C   C914      1.0  0.55601  0.46132  0.38633  1.0000
  H   H1089     1.0  0.42576  0.03367  0.41881  1.0000
  H   H1090     1.0  0.56022  0.34605  0.41391  1.0000
  H   H1091     1.0  0.53877  0.41639  0.46394  1.0000
  C   C915      1.0  0.48794  0.31895  0.31094  1.0000
  C   C916      1.0  0.47958  0.21837  0.44774  1.0000
  C   C917      1.0  0.47225  0.19431  0.45653  1.0000
  H   H1092     1.0  0.45758  0.35544  0.47734  1.0000
  H   H1093     1.0  0.41399  0.12285  0.47475  1.0000
  C   C918      1.0  0.34904  0.22416  0.26832  1.0000
  C   C919      1.0  0.43538  0.19128  0.45012  1.0000
  C   C920      1.0  0.57085  0.38800  0.44267  1.0000
  H   H1094     1.0  0.47621  0.14889  0.46320  1.0000
  H   H1095     1.0  0.43268  0.04272  0.44534  1.0000
  H   H1096     1.0  0.36360  0.26093  0.41487  1.0000
  C   C921      1.0  0.46275  0.02263  0.30722  1.0000
  C   C922      1.0  0.56092  0.45851  0.41491  1.0000
  H   H1097     1.0  0.50468  0.36628  0.29235  1.0000
  S   S251      1.0  0.35477  0.22955  0.28731  1.0000
  Fe  Fe127     1.0  0.38978  0.03260  0.26492  1.0000
  H   H1098     1.0  0.39202  0.04186  0.35109  1.0000
  C   C923      1.0  0.52747  0.39650  0.49035  1.0000
  H   H1099     1.0  0.49647  0.22912  0.44722  1.0000
  C   C924      1.0  0.55681  0.01555  0.37180  1.0000
  C   C925      1.0  0.49522  0.33081  0.32282  1.0000
  H   H1100     1.0  0.49744  0.04496  0.44473  1.0000
  H   H1101     1.0  0.52745  0.06561  0.35423  1.0000
  H   H1102     1.0  0.39768  0.33750  0.40800  1.0000
  N   N61       1.0  0.58200  0.39195  0.39484  1.0000
  H   H1103     1.0  0.56160  0.06881  0.36558  1.0000
  H   H1104     1.0  0.35076  0.01669  0.40482  1.0000
  H   H1105     1.0  0.39482  0.40393  0.49523  1.0000
  Fe  Fe128     1.0  0.35140  0.01794  0.29755  1.0000
  C   C926      1.0  0.34699  0.26799  0.48354  1.0000
  C   C927      1.0  0.38127  0.32758  0.41702  1.0000
  N   N62       1.0  0.48675  0.34126  0.47442  1.0000
  S   S252      1.0  0.45680  0.01442  0.36390  1.0000
  H   H1106     1.0  0.49654  0.34932  0.32161  1.0000
  H   H1107     1.0  0.37183  0.08444  0.31181  1.0000
  C   C928      1.0  0.50067  0.36057  0.47957  1.0000
  C   C929      1.0  0.51481  0.38228  0.46771  1.0000
  H   H1108     1.0  0.52048  0.04636  0.30269  1.0000
  H   H1109     1.0  0.34851  0.27265  0.44213  1.0000
  S   S253      1.0  0.63931  0.02713  0.37502  1.0000
  H   H1110     1.0  0.37488  0.38034  0.49144  1.0000
  Fe  Fe129     1.0  0.66157  0.02610  0.41557  1.0000
  C   C930      1.0  0.38131  0.08311  0.32144  1.0000
  C   C931      1.0  0.49892  0.32847  0.28000  1.0000
  C   C932      1.0  0.48544  0.03834  0.30069  1.0000
  H   H1111     1.0  0.44668  0.32370  0.30593  1.0000
  H   H1112     1.0  0.51731  0.33510  0.27979  1.0000
  N   N63       1.0  0.48324  0.33132  0.29519  1.0000
  C   C933      1.0  0.52801  0.39991  0.47313  1.0000
  C   C934      1.0  0.49186  0.31860  0.48106  1.0000
  H   H1113     1.0  0.36713  0.01609  0.42967  1.0000
  H   H1114     1.0  0.61334  0.38147  0.39333  1.0000
  H   H1115     1.0  0.41881  0.14197  0.45391  1.0000
  C   C935      1.0  0.59849  0.37966  0.38762  1.0000
  S   S254      1.0  0.38412  0.04753  0.28754  1.0000
  H   H1116     1.0  0.59029  0.36039  0.38996  1.0000
  H   H1117     1.0  0.60541  0.38687  0.37348  1.0000
  Fe  Fe130     1.0  0.45948  0.25130  0.48714  1.0000
  H   H1118     1.0  0.40183  0.28427  0.43983  1.0000
  C   C936      1.0  0.44110  0.15355  0.48619  1.0000
  H   H1119     1.0  0.39219  0.13773  0.34529  1.0000
  C   C937      1.0  0.55688  0.34896  0.43931  1.0000
  H   H1120     1.0  0.45532  0.32915  0.28318  1.0000
  H   H1121     1.0  0.54882  0.33009  0.44488  1.0000
  N   N64       1.0  0.51871  0.06761  0.41997  1.0000
  C   C938      1.0  0.53949  0.06619  0.42600  1.0000
  C   C939      1.0  0.51309  0.08948  0.42270  1.0000
  C   C940      1.0  0.65569  0.01755  0.49241  1.0000
  C   C941      1.0  0.52182  0.06809  0.40170  1.0000
  C   C942      1.0  0.50290  0.06738  0.39446  1.0000
  C   C943      1.0  0.54333  0.06937  0.39060  1.0000
  C   C944      1.0  0.50499  0.06666  0.37751  1.0000
  C   C945      1.0  0.54527  0.06878  0.37362  1.0000
  C   C946      1.0  0.52607  0.06704  0.36717  1.0000
  H   H1122     1.0  0.55440  0.08201  0.41914  1.0000
  H   H1123     1.0  0.53637  0.06523  0.43987  1.0000
  H   H1124     1.0  0.54480  0.05015  0.42425  1.0000
  H   H1125     1.0  0.52729  0.10554  0.41499  1.0000
  H   H1126     1.0  0.48396  0.18725  0.46269  1.0000
  H   H1127     1.0  0.49729  0.09145  0.41894  1.0000
  H   H1128     1.0  0.50200  0.03009  0.42808  1.0000
  C   C947      1.0  0.56715  0.47073  0.39756  1.0000
  Fe  Fe131     1.0  0.38380  0.02399  0.48605  1.0000
  H   H1129     1.0  0.48612  0.06684  0.40198  1.0000
  H   H1130     1.0  0.55877  0.07003  0.39484  1.0000
  H   H1131     1.0  0.48999  0.06528  0.37254  1.0000
  H   H1132     1.0  0.36396  0.14568  0.49436  1.0000
  H   H1133     1.0  0.56645  0.39525  0.37372  1.0000
  S   S255      1.0  0.44076  0.17833  0.28878  1.0000
  H   H1134     1.0  0.36225  0.32815  0.46820  1.0000
  H   H1135     1.0  0.44045  0.13519  0.31171  1.0000
  H   H1136     1.0  0.53496  0.01171  0.41986  1.0000
  C   C948      1.0  0.38461  0.12459  0.27789  1.0000
  H   H1137     1.0  0.47987  0.28394  0.30638  1.0000
  H   H1138     1.0  0.65810  0.50312  0.27813  1.0000
  S   S256      1.0  0.37205  0.05515  0.25042  1.0000
  S   S257      1.0  0.39285  0.06190  0.47104  1.0000
  H   H1139     1.0  0.50170  0.28509  0.35167  1.0000
  H   H1140     1.0  0.48560  0.36097  0.44977  1.0000
  S   S258      1.0  0.39103  0.23482  0.46261  1.0000
  H   H1141     1.0  0.45665  0.06499  0.28948  1.0000
  H   H1142     1.0  0.48828  0.26331  0.33180  1.0000
  C   C949      1.0  0.41915  0.14181  0.46727  1.0000
  S   S259      1.0  0.36209  0.10432  0.27431  1.0000
  N   N65       1.0  0.44225  0.15476  0.46800  1.0000
  C   C950      1.0  0.46189  0.33856  0.48163  1.0000
  H   H1143     1.0  0.47855  0.41701  0.47408  1.0000
  C   C951      1.0  0.50336  0.03407  0.30770  1.0000
  H   H1144     1.0  0.46204  0.04675  0.27499  1.0000
  Fe  Fe132     1.0  0.36361  0.06735  0.27407  1.0000
  C   C952      1.0  0.36435  0.21703  0.25679  1.0000
  Fe  Fe133     1.0  0.41225  0.24016  0.48100  1.0000
  C   C953      1.0  0.49083  0.28230  0.32904  1.0000
  H   H1145     1.0  0.55350  0.36820  0.39020  1.0000
  H   H1146     1.0  0.41789  0.18214  0.45090  1.0000
  C   C954      1.0  0.57436  0.38278  0.41374  1.0000
  H   H1147     1.0  0.48239  0.04805  0.42888  1.0000
  H   H1148     1.0  0.48116  0.33015  0.45217  1.0000
  H   H1149     1.0  0.56091  0.47077  0.37292  1.0000
  C   C955      1.0  0.49939  0.04680  0.43084  1.0000
  C   C956      1.0  0.37899  0.26336  0.41997  1.0000
  H   H1150     1.0  0.33520  0.33945  0.44070  1.0000
  H   H1151     1.0  0.45074  0.32493  0.47742  1.0000
  H   H1152     1.0  0.35493  0.00651  0.35630  1.0000
  C   C957      1.0  0.44287  0.21540  0.44143  1.0000
  H   H1153     1.0  0.36451  0.14934  0.28065  1.0000
  H   H1154     1.0  0.34350  0.02958  0.48807  1.0000
  H   H1155     1.0  0.40949  0.15109  0.32346  1.0000
  H   H1156     1.0  0.60935  0.42251  0.39319  1.0000
  H   H1157     1.0  0.40543  0.14937  0.47293  1.0000
  C   C958      1.0  0.49928  0.01420  0.32128  1.0000
  H   H1158     1.0  0.59891  0.42426  0.37453  1.0000
  C   C959      1.0  0.56181  0.38740  0.38781  1.0000
  H   H1159     1.0  0.36177  0.27287  0.24760  1.0000
  C   C960      1.0  0.44995  0.17993  0.45793  1.0000
  S   S260      1.0  0.42415  0.02719  0.25362  1.0000
  C   C961      1.0  0.56064  0.36379  0.44987  1.0000
  C   C962      1.0  0.49829  0.29451  0.34026  1.0000
  C   C963      1.0  0.33918  0.15127  0.25062  1.0000
  H   H1160     1.0  0.38645  0.34149  0.49173  1.0000
  C   C964      1.0  0.35406  0.29144  0.43612  1.0000
  H   H1161     1.0  0.45298  0.12281  0.46876  1.0000
  C   C965      1.0  0.44346  0.39532  0.48569  1.0000
  H   H1162     1.0  0.43425  0.13501  0.49449  1.0000
  H   H1163     1.0  0.51058  0.32013  0.47665  1.0000
  H   H1164     1.0  0.54851  0.39523  0.39366  1.0000
  H   H1165     1.0  0.57371  0.39959  0.45088  1.0000
  Fe  Fe134     1.0  0.42794  0.06403  0.47463  1.0000
  H   H1166     1.0  0.58175  0.42813  0.39325  1.0000
  H   H1167     1.0  0.64597  0.09927  0.32015  1.0000
  H   H1168     1.0  0.38349  0.27157  0.47826  1.0000
  Fe  Fe135     1.0  0.44127  0.02571  0.38663  1.0000
  C   C966      1.0  0.39344  0.38781  0.49050  1.0000
  H   H1169     1.0  0.58515  0.41646  0.42030  1.0000
  C   C967      1.0  0.40918  0.29085  0.42567  1.0000
  C   C968      1.0  0.40171  0.29842  0.39796  1.0000
  N   N66       1.0  0.39082  0.28891  0.41672  1.0000
  H   H1170     1.0  0.38854  0.30020  0.39084  1.0000
  H   H1171     1.0  0.41469  0.31596  0.39445  1.0000
  H   H1172     1.0  0.41943  0.30955  0.42290  1.0000
  C   C969      1.0  0.56353  0.35827  0.42154  1.0000
  C   C970      1.0  0.46494  0.22888  0.44018  1.0000
  H   H1173     1.0  0.49640  0.33807  0.26782  1.0000
  H   H1174     1.0  0.55559  0.35653  0.46364  1.0000
  H   H1175     1.0  0.56291  0.01663  0.35837  1.0000
  H   H1176     1.0  0.45496  0.30164  0.29648  1.0000
  H   H1177     1.0  0.48255  0.30400  0.47667  1.0000
  C   C971      1.0  0.48658  0.35710  0.29314  1.0000
  C   C972      1.0  0.63149  0.50314  0.34863  1.0000
  H   H1178     1.0  0.63874  0.48348  0.29784  1.0000
  C   C973      1.0  0.49114  0.34547  0.45559  1.0000
  H   H1179     1.0  0.47472  0.36043  0.30397  1.0000
  H   H1180     1.0  0.41962  0.15953  0.34010  1.0000
  H   H1181     1.0  0.45662  0.33310  0.49587  1.0000
  H   H1182     1.0  0.40971  0.31922  0.24978  1.0000
  H   H1183     1.0  0.43362  0.04617  0.31942  1.0000
  C   C974      1.0  0.48580  0.29428  0.31458  1.0000
  H   H1184     1.0  0.48280  0.36579  0.28123  1.0000
  H   H1185     1.0  0.45825  0.16091  0.48809  1.0000
  H   H1186     1.0  0.49574  0.30964  0.27966  1.0000
  H   H1187     1.0  0.37201  0.35978  0.41857  1.0000
  C   C975      1.0  0.52524  0.00666  0.39720  1.0000
  N   N67       1.0  0.44296  0.02720  0.30095  1.0000
  H   H1188     1.0  0.58050  0.48740  0.39285  1.0000
  C   C976      1.0  0.57268  0.02235  0.38094  1.0000
  C   C977      1.0  0.33151  0.03653  0.48153  1.0000
  H   H1189     1.0  0.34004  0.05564  0.47496  1.0000
  H   H1190     1.0  0.34828  0.28287  0.48880  1.0000
  H   H1191     1.0  0.65463  0.02347  0.47945  1.0000
  S   S261      1.0  0.65123  0.05733  0.40268  1.0000
  H   H1192     1.0  0.53777  0.41017  0.49448  1.0000
  H   H1193     1.0  0.51301  0.01116  0.32698  1.0000
  C   C978      1.0  0.34598  0.32915  0.43562  1.0000
  C   C979      1.0  0.65356  0.06661  0.32948  1.0000
  S   S262      1.0  0.46317  0.01203  0.40241  1.0000
  H   H1194     1.0  0.64499  0.05892  0.47775  1.0000
  H   H1195     1.0  0.41477  0.35768  0.47869  1.0000
  C   C980      1.0  0.37837  0.28105  0.24996  1.0000
  C   C981      1.0  0.40381  0.35104  0.49213  1.0000
  H   H1196     1.0  0.66237  0.49974  0.33386  1.0000
  Fe  Fe136     1.0  0.60311  0.50397  0.42055  1.0000
  C   C982      1.0  0.66260  0.06711  0.47857  1.0000
  C   C983      1.0  0.64623  0.50244  0.29051  1.0000
  H   H1197     1.0  0.33618  0.16801  0.52132  1.0000
  Fe  Fe137     1.0  0.35357  0.37805  0.71042  1.0000
  C   C984      1.0  0.39625  0.15374  0.52232  1.0000
  H   H1198     1.0  0.41087  0.33772  0.49920  1.0000
  S   S263      1.0  0.37200  0.03184  0.51118  1.0000
  H   H1199     1.0  0.50669  0.39354  0.61744  1.0000
  S   S264      1.0  0.35987  0.34750  0.72770  1.0000
  C   C985      1.0  0.45841  0.47710  0.60516  1.0000
  H   H1200     1.0  0.38246  0.17695  0.50643  1.0000
  H   H1201     1.0  0.33827  0.30396  0.67848  1.0000
  S   S265      1.0  0.40987  0.17574  0.53074  1.0000
  C   C986      1.0  0.49313  0.37819  0.65189  1.0000
  H   H1202     1.0  0.47139  0.36006  0.62958  1.0000
  Fe  Fe138     1.0  0.46527  0.41568  0.58297  1.0000
  S   S266      1.0  0.47299  0.38162  0.59345  1.0000
  S   S267      1.0  0.49017  0.45173  0.57826  1.0000
  Fe  Fe139     1.0  0.41850  0.39014  0.57936  1.0000
  S   S268      1.0  0.42259  0.35429  0.58980  1.0000
  S   S269      1.0  0.38666  0.39575  0.57179  1.0000
  Fe  Fe140     1.0  0.43598  0.37020  0.60904  1.0000
  S   S270      1.0  0.42265  0.34877  0.63655  1.0000
  Fe  Fe141     1.0  0.45881  0.36921  0.57303  1.0000
  S   S271      1.0  0.47569  0.34883  0.55666  1.0000
  S   S272      1.0  0.42908  0.40510  0.60002  1.0000
  S   S273      1.0  0.45401  0.40428  0.56120  1.0000
  H   H1203     1.0  0.44827  0.48578  0.59755  1.0000
  H   H1204     1.0  0.36048  0.32418  0.64914  1.0000
  H   H1205     1.0  0.44020  0.34928  0.72909  1.0000
  S   S274      1.0  0.54888  0.46897  0.63100  1.0000
  C   C987      1.0  0.38864  0.11325  0.51987  1.0000
  S   S275      1.0  0.44535  0.24374  0.51558  1.0000
  Fe  Fe142     1.0  0.40888  0.03618  0.51181  1.0000
  C   C988      1.0  0.39727  0.45817  0.65910  1.0000
  S   S276      1.0  0.41000  0.29141  0.52136  1.0000
  C   C989      1.0  0.46272  0.38929  0.67021  1.0000
  H   H1206     1.0  0.46299  0.44795  0.63294  1.0000
  H   H1207     1.0  0.39061  0.09560  0.52355  1.0000
  C   C990      1.0  0.33733  0.34607  0.64361  1.0000
  H   H1208     1.0  0.45521  0.45828  0.60473  1.0000
  H   H1209     1.0  0.38512  0.37361  0.52485  1.0000
  H   H1210     1.0  0.37618  0.25107  0.54575  1.0000
  C   C991      1.0  0.41189  0.45571  0.62545  1.0000
  C   C992      1.0  0.36263  0.38355  0.62540  1.0000
  C   C993      1.0  0.42621  0.38198  0.50104  1.0000
  H   H1211     1.0  0.55163  0.49736  0.59708  1.0000
  H   H1212     1.0  0.37671  0.43564  0.62946  1.0000
  H   H1213     1.0  0.44453  0.38752  0.67538  1.0000
  C   C994      1.0  0.51421  0.34959  0.64703  1.0000
  C   C995      1.0  0.45688  0.33134  0.54800  1.0000
  C   C996      1.0  0.43424  0.33274  0.54979  1.0000
  C   C997      1.0  0.41976  0.31958  0.54215  1.0000
  C   C998      1.0  0.42791  0.30531  0.53237  1.0000
  C   C999      1.0  0.45035  0.30332  0.53093  1.0000
  C   C1000     1.0  0.46477  0.31625  0.53882  1.0000
  H   H1214     1.0  0.42794  0.34422  0.55686  1.0000
  H   H1215     1.0  0.40219  0.32049  0.54384  1.0000
  H   H1216     1.0  0.45665  0.29202  0.52366  1.0000
  H   H1217     1.0  0.48217  0.31481  0.53763  1.0000
  C   C1001     1.0  0.37091  0.37356  0.56448  1.0000
  C   C1002     1.0  0.35465  0.37858  0.55578  1.0000
  H   H1218     1.0  0.37476  0.38324  0.63362  1.0000
  C   C1003     1.0  0.34412  0.33807  0.55375  1.0000
  C   C1004     1.0  0.36019  0.33301  0.56259  1.0000
  C   C1005     1.0  0.37377  0.35077  0.56770  1.0000
  H   H1219     1.0  0.35227  0.39616  0.55329  1.0000
  C   C1006     1.0  0.47926  0.40487  0.67466  1.0000
  H   H1220     1.0  0.36232  0.31534  0.56534  1.0000
  H   H1221     1.0  0.38614  0.34660  0.57438  1.0000
  C   C1007     1.0  0.53287  0.46451  0.61608  1.0000
  C   C1008     1.0  0.51460  0.44384  0.62020  1.0000
  C   C1009     1.0  0.50159  0.43963  0.60861  1.0000
  C   C1010     1.0  0.50677  0.45612  0.59277  1.0000
  C   C1011     1.0  0.52471  0.47706  0.58875  1.0000
  C   C1012     1.0  0.45536  0.39072  0.51657  1.0000
  H   H1222     1.0  0.51029  0.43126  0.63250  1.0000
  H   H1223     1.0  0.48729  0.42385  0.61203  1.0000
  C   C1013     1.0  0.33477  0.36057  0.61446  1.0000
  C   C1014     1.0  0.46943  0.37612  0.65900  1.0000
  C   C1015     1.0  0.39345  0.38769  0.67383  1.0000
  C   C1016     1.0  0.41047  0.40043  0.65860  1.0000
  C   C1017     1.0  0.41917  0.38866  0.64689  1.0000
  C   C1018     1.0  0.41123  0.36400  0.65060  1.0000
  C   C1019     1.0  0.39456  0.35121  0.66597  1.0000
  C   C1020     1.0  0.38543  0.36305  0.67745  1.0000
  H   H1224     1.0  0.41714  0.41936  0.65595  1.0000
  H   H1225     1.0  0.43256  0.39859  0.63532  1.0000
  H   H1226     1.0  0.38854  0.33210  0.66900  1.0000
  H   H1227     1.0  0.37234  0.35303  0.68918  1.0000
  H   H1228     1.0  0.53174  0.39334  0.62496  1.0000
  H   H1229     1.0  0.48885  0.34261  0.50682  1.0000
  C   C1021     1.0  0.49992  0.35815  0.49705  1.0000
  C   C1022     1.0  0.50948  0.39384  0.65702  1.0000
  C   C1023     1.0  0.66091  0.03346  0.50245  1.0000
  H   H1230     1.0  0.35693  0.17423  0.54306  1.0000
  N   N68       1.0  0.50096  0.36492  0.63969  1.0000
  S   S277      1.0  0.38280  0.40270  0.68839  1.0000
  C   C1024     1.0  0.51608  0.38174  0.62334  1.0000
  C   C1025     1.0  0.34148  0.36096  0.55021  1.0000
  H   H1231     1.0  0.39019  0.34499  0.52527  1.0000
  C   C1026     1.0  0.36801  0.34819  0.61818  1.0000
  H   H1232     1.0  0.46989  0.33575  0.64710  1.0000
  C   C1027     1.0  0.35021  0.26844  0.52667  1.0000
  H   H1233     1.0  0.46579  0.46928  0.64511  1.0000
  H   H1234     1.0  0.41307  0.32966  0.72975  1.0000
  H   H1235     1.0  0.35037  0.39323  0.63021  1.0000
  Fe  Fe143     1.0  0.42089  0.26431  0.50875  1.0000
  N   N69       1.0  0.40271  0.37042  0.50045  1.0000
  H   H1236     1.0  0.42115  0.36968  0.52880  1.0000
  C   C1028     1.0  0.37625  0.11859  0.50801  1.0000
  H   H1237     1.0  0.38229  0.34925  0.62445  1.0000
  H   H1238     1.0  0.53030  0.36003  0.64891  1.0000
  C   C1029     1.0  0.34986  0.20762  0.54395  1.0000
  H   H1239     1.0  0.52216  0.37239  0.61379  1.0000
  S   S278      1.0  0.42058  0.07531  0.49886  1.0000
  H   H1240     1.0  0.39162  0.45829  0.67238  1.0000
  S   S279      1.0  0.33757  0.31810  0.50121  1.0000
  C   C1030     1.0  0.43293  0.37974  0.51652  1.0000
  N   N70       1.0  0.35048  0.35921  0.62574  1.0000
  S   S280      1.0  0.41349  0.02083  0.53756  1.0000
  H   H1241     1.0  0.48805  0.33998  0.62618  1.0000
  Fe  Fe144     1.0  0.38457  0.07010  0.49630  1.0000
  H   H1242     1.0  0.36584  0.26746  0.51758  1.0000
  H   H1243     1.0  0.46283  0.02004  0.59778  1.0000
  H   H1244     1.0  0.47398  0.41530  0.68315  1.0000
  C   C1031     1.0  0.39828  0.13069  0.52723  1.0000
  C   C1032     1.0  0.48173  0.34950  0.63554  1.0000
  H   H1245     1.0  0.35284  0.23843  0.56525  1.0000
  H   H1246     1.0  0.40778  0.12645  0.53645  1.0000
  C   C1033     1.0  0.33676  0.18364  0.52596  1.0000
  H   H1247     1.0  0.35470  0.28570  0.52987  1.0000
  H   H1248     1.0  0.50369  0.33737  0.65969  1.0000
  C   C1034     1.0  0.34477  0.32870  0.65383  1.0000
  C   C1035     1.0  0.35882  0.25173  0.55256  1.0000
  C   C1036     1.0  0.38595  0.36007  0.51760  1.0000
  H   H1249     1.0  0.51231  0.37325  0.51584  1.0000
  S   S281      1.0  0.39403  0.23232  0.50871  1.0000
  H   H1250     1.0  0.52782  0.39657  0.65209  1.0000
  H   H1251     1.0  0.51551  0.41960  0.67131  1.0000
  H   H1252     1.0  0.51957  0.33857  0.63852  1.0000
  H   H1253     1.0  0.34450  0.36868  0.60072  1.0000
  C   C1037     1.0  0.42122  0.34402  0.73494  1.0000
  H   H1254     1.0  0.41635  0.45378  0.61262  1.0000
  C   C1038     1.0  0.66196  0.02329  0.51923  1.0000
  C   C1039     1.0  0.42024  0.46897  0.64966  1.0000
  H   H1255     1.0  0.46015  0.38858  0.52854  1.0000
  C   C1040     1.0  0.64830  0.06742  0.50769  1.0000
  H   H1256     1.0  0.47695  0.48575  0.59825  1.0000
  H   H1257     1.0  0.52861  0.49004  0.57657  1.0000
  C   C1041     1.0  0.51327  0.37572  0.50232  1.0000
  H   H1258     1.0  0.36813  0.35266  0.51676  1.0000
  H   H1259     1.0  0.41469  0.35929  0.73027  1.0000
  C   C1042     1.0  0.50260  0.40712  0.66810  1.0000
  H   H1260     1.0  0.36130  0.26945  0.55517  1.0000
  C   C1043     1.0  0.38395  0.15913  0.51038  1.0000
  C   C1044     1.0  0.53776  0.48124  0.60035  1.0000
  H   H1261     1.0  0.65649  0.02539  0.56485  1.0000
  H   H1262     1.0  0.45566  0.36452  0.65607  1.0000
  C   C1045     1.0  0.37352  0.14143  0.50354  1.0000
  H   H1263     1.0  0.65019  0.08668  0.50288  1.0000
  C   C1046     1.0  0.38891  0.44508  0.63502  1.0000
  H   H1264     1.0  0.35958  0.20936  0.55321  1.0000
  H   H1265     1.0  0.37640  0.35743  0.60441  1.0000
  Fe  Fe145     1.0  0.41981  0.21246  0.51307  1.0000
  N   N71       1.0  0.45293  0.47899  0.62304  1.0000
  C   C1047     1.0  0.38166  0.44618  0.65183  1.0000
  C   C1048     1.0  0.42832  0.46801  0.63255  1.0000
  C   C1049     1.0  0.44527  0.00772  0.60098  1.0000
  H   H1266     1.0  0.36405  0.43725  0.65944  1.0000
  H   H1267     1.0  0.65088  0.06488  0.52075  1.0000
  H   H1268     1.0  0.43594  0.01630  0.59250  1.0000
  C   C1050     1.0  0.33999  0.22550  0.53712  1.0000
  H   H1269     1.0  0.43174  0.47755  0.65607  1.0000
  C   C1051     1.0  0.34836  0.18713  0.53828  1.0000
  C   C1052     1.0  0.46755  0.46729  0.63193  1.0000
  H   H1270     1.0  0.63023  0.05754  0.50898  1.0000
  H   H1271     1.0  0.48622  0.47489  0.62499  1.0000
  H   H1272     1.0  0.36014  0.32931  0.61900  1.0000
  N   N72       1.0  0.34220  0.24796  0.54214  1.0000
  H   H1273     1.0  0.33683  0.26953  0.51972  1.0000
  H   H1274     1.0  0.37286  0.39410  0.61215  1.0000
  H   H1275     1.0  0.44570  0.00701  0.51332  1.0000
  C   C1053     1.0  0.47158  0.40445  0.50137  1.0000
  H   H1276     1.0  0.48873  0.41342  0.50160  1.0000
  S   S282      1.0  0.36484  0.09724  0.49814  1.0000
  Fe  Fe146     1.0  0.57720  0.50348  0.62431  1.0000
  H   H1277     1.0  0.34415  0.17617  0.73681  1.0000
  H   H1278     1.0  0.34517  0.15044  0.71790  1.0000
  S   S283      1.0  0.33287  0.38875  0.73182  1.0000
  C   C1054     1.0  0.34089  0.14279  0.73161  1.0000
  C   C1055     1.0  0.34027  0.15743  0.74268  1.0000
  H   H1279     1.0  0.43633  0.00646  0.61442  1.0000
  C   C1056     1.0  0.33217  0.31688  0.67077  1.0000
  C   C1057     1.0  0.33591  0.11833  0.73810  1.0000
  H   H1280     1.0  0.33632  0.10703  0.72951  1.0000
  H   H1281     1.0  0.40919  0.35951  0.88032  1.0000
  H   H1282     1.0  0.54235  0.49049  0.81901  1.0000
  C   C1058     1.0  0.34905  0.11849  0.82764  1.0000
  S   S284      1.0  0.37066  0.02936  0.84933  1.0000
  S   S285      1.0  0.50067  0.45261  0.82817  1.0000
  H   H1283     1.0  0.52647  0.02425  0.83793  1.0000
  H   H1284     1.0  0.34921  0.16937  0.79304  1.0000
  H   H1285     1.0  0.38425  0.34708  0.75659  1.0000
  C   C1059     1.0  0.33920  0.01345  0.89739  1.0000
  S   S286      1.0  0.35092  0.21734  0.80205  1.0000
  S   S287      1.0  0.38061  0.28295  0.80175  1.0000
  C   C1060     1.0  0.35245  0.33511  0.91702  1.0000
  C   C1061     1.0  0.42925  0.01671  0.85755  1.0000
  H   H1286     1.0  0.36744  0.34532  0.80015  1.0000
  C   C1062     1.0  0.41595  0.04740  0.80770  1.0000
  H   H1287     1.0  0.46262  0.36630  0.78672  1.0000
  H   H1288     1.0  0.35280  0.33699  0.87837  1.0000
  Fe  Fe147     1.0  0.46590  0.42440  0.83548  1.0000
  S   S288      1.0  0.43311  0.43527  0.83634  1.0000
  Fe  Fe148     1.0  0.44059  0.37229  0.83994  1.0000
  S   S289      1.0  0.40645  0.37966  0.84084  1.0000
  S   S290      1.0  0.43996  0.33374  0.84400  1.0000
  Fe  Fe149     1.0  0.42619  0.41172  0.81916  1.0000
  S   S291      1.0  0.41447  0.42477  0.79570  1.0000
  Fe  Fe150     1.0  0.41638  0.40203  0.85790  1.0000
  S   S292      1.0  0.38838  0.39749  0.88170  1.0000
  S   S293      1.0  0.45994  0.40274  0.81678  1.0000
  S   S294      1.0  0.44966  0.39285  0.85850  1.0000
  C   C1063     1.0  0.35884  0.35876  0.90701  1.0000
  H   H1289     1.0  0.39671  0.02637  0.79514  1.0000
  H   H1290     1.0  0.40332  0.05721  0.80996  1.0000
  C   C1064     1.0  0.37950  0.36775  0.89383  1.0000
  C   C1065     1.0  0.36724  0.32085  0.91426  1.0000
  C   C1066     1.0  0.38764  0.32985  0.90097  1.0000
  C   C1067     1.0  0.39343  0.35294  0.89053  1.0000
  C   C1068     1.0  0.34902  0.24723  0.90164  1.0000
  H   H1291     1.0  0.34012  0.34975  0.82642  1.0000
  H   H1292     1.0  0.35164  0.02320  0.88470  1.0000
  H   H1293     1.0  0.34764  0.31659  0.95238  1.0000
  H   H1294     1.0  0.38544  0.32676  0.77524  1.0000
  H   H1295     1.0  0.39489  0.37393  0.80892  1.0000
  C   C1069     1.0  0.37016  0.39537  0.77106  1.0000
  H   H1296     1.0  0.36586  0.11991  0.82991  1.0000
  H   H1297     1.0  0.41683  0.30640  0.77284  1.0000
  C   C1070     1.0  0.39654  0.29643  0.81407  1.0000
  C   C1071     1.0  0.40451  0.32119  0.80959  1.0000
  C   C1072     1.0  0.41747  0.33268  0.81892  1.0000
  C   C1073     1.0  0.42332  0.31944  0.83244  1.0000
  C   C1074     1.0  0.41589  0.29462  0.83668  1.0000
  C   C1075     1.0  0.40207  0.28309  0.82776  1.0000
  H   H1298     1.0  0.40061  0.33162  0.79891  1.0000
  H   H1299     1.0  0.42343  0.35182  0.81540  1.0000
  H   H1300     1.0  0.42101  0.28438  0.84676  1.0000
  H   H1301     1.0  0.39642  0.26394  0.83109  1.0000
  S   S295      1.0  0.36182  0.29214  0.92744  1.0000
  H   H1302     1.0  0.39714  0.34235  0.97766  1.0000
  H   H1303     1.0  0.55976  0.01839  0.82372  1.0000
  C   C1076     1.0  0.36317  0.37140  0.78001  1.0000
  C   C1077     1.0  0.39450  0.40412  0.78992  1.0000
  C   C1078     1.0  0.38787  0.38006  0.79853  1.0000
  C   C1079     1.0  0.37231  0.36385  0.79356  1.0000
  H   H1304     1.0  0.34757  0.34307  0.95892  1.0000
  H   H1305     1.0  0.34783  0.37010  0.90942  1.0000
  Fe  Fe151     1.0  0.34748  0.02005  0.83280  1.0000
  H   H1306     1.0  0.47856  0.49410  0.80831  1.0000
  C   C1080     1.0  0.51513  0.46758  0.84091  1.0000
  H   H1307     1.0  0.45994  0.01070  0.80272  1.0000
  C   C1081     1.0  0.50644  0.46227  0.85868  1.0000
  H   H1308     1.0  0.44493  0.33458  0.77591  1.0000
  H   H1309     1.0  0.49086  0.44803  0.86517  1.0000
  C   C1082     1.0  0.44749  0.02078  0.80339  1.0000
  Fe  Fe152     1.0  0.35424  0.24759  0.81406  1.0000
  C   C1083     1.0  0.46896  0.49880  0.83905  1.0000
  S   S296      1.0  0.34644  0.22456  0.84073  1.0000
  H   H1310     1.0  0.33817  0.31515  0.97459  1.0000
  H   H1311     1.0  0.47997  0.48772  0.84327  1.0000
  C   C1084     1.0  0.41044  0.02603  0.85720  1.0000
  H   H1312     1.0  0.35853  0.31716  0.82830  1.0000
  H   H1313     1.0  0.40907  0.04068  0.86264  1.0000
  C   C1085     1.0  0.42487  0.34678  0.92249  1.0000
  H   H1314     1.0  0.34705  0.08550  0.82076  1.0000
  C   C1086     1.0  0.33914  0.32592  0.85864  1.0000
  H   H1315     1.0  0.41229  0.29987  0.75379  1.0000
  H   H1316     1.0  0.41002  0.31495  0.94223  1.0000
  C   C1087     1.0  0.39361  0.01675  0.84962  1.0000
  H   H1317     1.0  0.43298  0.41401  0.75879  1.0000
  H   H1318     1.0  0.43718  0.02117  0.76266  1.0000
  C   C1088     1.0  0.42783  0.35544  0.76029  1.0000
  H   H1319     1.0  0.33639  0.32818  0.92703  1.0000
  C   C1089     1.0  0.33834  0.13650  0.82938  1.0000
  H   H1320     1.0  0.51113  0.47117  0.88184  1.0000
  H   H1321     1.0  0.39934  0.31911  0.89885  1.0000
  C   C1090     1.0  0.44938  0.39223  0.77305  1.0000
  C   C1091     1.0  0.38572  0.41172  0.77608  1.0000
  H   H1322     1.0  0.38041  0.31659  0.75723  1.0000
  N   N73       1.0  0.36475  0.25793  0.88415  1.0000
  C   C1092     1.0  0.37938  0.28127  0.88395  1.0000
  H   H1323     1.0  0.34294  0.30589  0.81455  1.0000
  C   C1093     1.0  0.56570  0.00900  0.83372  1.0000
  C   C1094     1.0  0.37807  0.24145  0.87950  1.0000
  C   C1095     1.0  0.40246  0.24689  0.87634  1.0000
  C   C1096     1.0  0.36659  0.21918  0.87783  1.0000
  C   C1097     1.0  0.41454  0.23139  0.87104  1.0000
  C   C1098     1.0  0.37880  0.20387  0.87244  1.0000
  C   C1099     1.0  0.40275  0.21003  0.86895  1.0000
  H   H1324     1.0  0.38925  0.27946  0.89369  1.0000
  H   H1325     1.0  0.36879  0.29331  0.88716  1.0000
  C   C1100     1.0  0.45255  0.36979  0.77773  1.0000
  H   H1326     1.0  0.33706  0.24646  0.87285  1.0000
  H   H1327     1.0  0.35881  0.24350  0.91124  1.0000
  H   H1328     1.0  0.43602  0.38019  0.90322  1.0000
  C   C1101     1.0  0.42805  0.01587  0.79675  1.0000
  C   C1102     1.0  0.39182  0.34157  0.94684  1.0000
  Fe  Fe153     1.0  0.33948  0.19398  0.82895  1.0000
  H   H1329     1.0  0.41269  0.26321  0.87757  1.0000
  H   H1330     1.0  0.34804  0.21356  0.88043  1.0000
  H   H1331     1.0  0.43319  0.23612  0.86833  1.0000
  H   H1332     1.0  0.36963  0.18725  0.87075  1.0000
  H   H1333     1.0  0.41217  0.19820  0.86461  1.0000
  C   C1103     1.0  0.45097  0.03863  0.81177  1.0000
  H   H1334     1.0  0.39090  0.43031  0.76928  1.0000
  C   C1104     1.0  0.44214  0.35162  0.77139  1.0000
  H   H1335     1.0  0.33954  0.19886  0.77411  1.0000
  H   H1336     1.0  0.39165  0.29061  0.87113  1.0000
  N   N74       1.0  0.37511  0.32761  0.96347  1.0000
  C   C1105     1.0  0.58954  0.01375  0.83140  1.0000
  C   C1106     1.0  0.33901  0.32499  0.87561  1.0000
  C   C1107     1.0  0.51794  0.47547  0.86810  1.0000
  H   H1337     1.0  0.34872  0.01254  0.90736  1.0000
  H   H1338     1.0  0.33878  0.25919  0.90562  1.0000
  H   H1339     1.0  0.61678  0.00590  0.84203  1.0000
  H   H1340     1.0  0.43758  0.06521  0.82087  1.0000
  H   H1341     1.0  0.37372  0.29287  0.95983  1.0000
  H   H1342     1.0  0.46549  0.04160  0.81721  1.0000
  H   H1343     1.0  0.36734  0.16221  0.77598  1.0000
  C   C1108     1.0  0.35084  0.26247  0.87190  1.0000
  H   H1344     1.0  0.34185  0.27600  0.87428  1.0000
  S   S297      1.0  0.35292  0.16191  0.83434  1.0000
  H   H1345     1.0  0.39409  0.30300  0.97133  1.0000
  H   H1346     1.0  0.40656  0.39631  0.91793  1.0000
  C   C1109     1.0  0.40891  0.33277  0.93788  1.0000
  H   H1347     1.0  0.45688  0.40611  0.77838  1.0000
  C   C1110     1.0  0.41229  0.02962  0.79930  1.0000
  C   C1111     1.0  0.34926  0.15829  0.78383  1.0000
  C   C1112     1.0  0.35115  0.32564  0.96229  1.0000
  C   C1113     1.0  0.42122  0.00726  0.77068  1.0000
  H   H1348     1.0  0.36735  0.32936  0.98969  1.0000
  C   C1114     1.0  0.42492  0.37852  0.75588  1.0000
  H   H1349     1.0  0.44053  0.31620  0.75363  1.0000
  S   S298      1.0  0.35404  0.04285  0.80621  1.0000
  C   C1115     1.0  0.43526  0.05192  0.81389  1.0000
  C   C1116     1.0  0.37690  0.30310  0.96926  1.0000
  H   H1350     1.0  0.36382  0.29296  0.98161  1.0000
  C   C1117     1.0  0.40754  0.37876  0.92382  1.0000
  C   C1118     1.0  0.53542  0.48622  0.83273  1.0000
  H   H1351     1.0  0.36197  0.26892  0.85848  1.0000
  H   H1352     1.0  0.44228  0.02412  0.86332  1.0000
  C   C1119     1.0  0.34196  0.30533  0.82821  1.0000
  N   N75       1.0  0.33362  0.16257  0.77291  1.0000
  H   H1353     1.0  0.45464  0.48656  0.83635  1.0000
  C   C1120     1.0  0.39043  0.33151  0.76100  1.0000
  C   C1121     1.0  0.39171  0.36506  0.93933  1.0000
  Fe  Fe154     1.0  0.34052  0.00866  0.79990  1.0000
  H   H1354     1.0  0.34417  0.13970  0.79180  1.0000
  C   C1122     1.0  0.42416  0.36969  0.91547  1.0000
  H   H1355     1.0  0.43743  0.33960  0.91563  1.0000
  H   H1356     1.0  0.35353  0.33860  0.84876  1.0000
  C   C1123     1.0  0.37902  0.33973  0.97684  1.0000
  C   C1124     1.0  0.53814  0.49421  0.85990  1.0000
  C   C1125     1.0  0.43586  0.39665  0.76198  1.0000
  S   S299      1.0  0.34248  0.35025  0.77524  1.0000
  H   H1357     1.0  0.33648  0.23026  0.90271  1.0000
  H   H1358     1.0  0.37919  0.37300  0.94523  1.0000
  H   H1359     1.0  0.35854  0.19465  0.75622  1.0000
  H   H1360     1.0  0.34990  0.24779  0.98991  1.0000
  C   C1126     1.0  0.33838  0.09895  0.82250  1.0000
  H   H1361     1.0  0.34126  0.28695  0.83483  1.0000
  H   H1362     1.0  0.37582  0.35746  0.97421  1.0000
  H   H1363     1.0  0.52452  0.01909  0.86037  1.0000
  C   C1127     1.0  0.51864  0.01103  0.85059  1.0000
  H   H1364     1.0  0.60136  0.02643  0.81992  1.0000
  H   H1365     1.0  0.49967  0.00847  0.85320  1.0000
  H   H1366     1.0  0.36319  0.40141  0.76058  1.0000
  H   H1367     1.0  0.40682  0.01555  0.77125  1.0000
  H   H1368     1.0  0.50589  0.50109  0.81290  1.0000
  C   C1128     1.0  0.54679  0.49954  0.84213  1.0000
  N   N76       1.0  0.41566  0.33641  0.75391  1.0000
  C   C1129     1.0  0.42174  0.31382  0.75871  1.0000
  H   H1369     1.0  0.41356  0.38258  0.74812  1.0000
  C   C1130     1.0  0.33465  0.14781  0.76071  1.0000
  C   C1131     1.0  0.34050  0.18842  0.76452  1.0000
  Fe  Fe155     1.0  0.33671  0.35627  0.74882  1.0000
  C   C1132     1.0  0.33055  0.13985  0.99469  1.0000
  H   H1370     1.0  0.33922  0.12608  0.99584  1.0000
  H   H1371     1.0  0.35264  0.98118  0.10186  1.0000
  C   C1133     1.0  0.37609  0.95923  0.12296  1.0000
  C   C1134     1.0  0.33759  0.97049  0.11289  1.0000
  H   H1372     1.0  0.48551  0.95515  0.18400  1.0000
  H   H1373     1.0  0.35007  0.94498  0.09103  1.0000
  C   C1135     1.0  0.66275  0.93069  0.18107  1.0000
  H   H1374     1.0  0.66274  0.96566  0.21597  1.0000
  H   H1375     1.0  0.41846  0.97035  0.08162  1.0000
  S   S300      1.0  0.42079  0.94254  0.17425  1.0000
  H   H1376     1.0  0.34727  0.90259  0.12546  1.0000
  C   C1136     1.0  0.49253  0.91724  0.17416  1.0000
  H   H1377     1.0  0.40877  0.99165  0.20043  1.0000
  C   C1137     1.0  0.49158  0.95755  0.16998  1.0000
  H   H1378     1.0  0.64051  0.94416  0.21222  1.0000
  H   H1379     1.0  0.37591  0.97751  0.12016  1.0000
  S   S301      1.0  0.62591  0.94411  0.17291  1.0000
  C   C1138     1.0  0.39344  0.92815  0.17271  1.0000
  C   C1139     1.0  0.56415  0.93791  0.17397  1.0000
  C   C1140     1.0  0.33500  0.92781  0.21876  1.0000
  C   C1141     1.0  0.51299  0.94600  0.14707  1.0000
  C   C1142     1.0  0.36047  0.99494  0.22715  1.0000
  C   C1143     1.0  0.65862  0.89446  0.20248  1.0000
  H   H1380     1.0  0.40060  0.89426  0.17675  1.0000
  H   H1381     1.0  0.34255  0.89669  0.21297  1.0000
  H   H1382     1.0  0.52255  0.97630  0.18271  1.0000
  C   C1144     1.0  0.64245  0.60592  0.16270  1.0000
  C   C1145     1.0  0.34951  0.91383  0.21490  1.0000
  N   N77       1.0  0.33711  0.94510  0.11719  1.0000
  H   H1383     1.0  0.64155  0.90100  0.23529  1.0000
  H   H1384     1.0  0.52159  0.93293  0.14302  1.0000
  C   C1146     1.0  0.39864  0.99380  0.07361  1.0000
  H   H1385     1.0  0.57647  0.92785  0.17135  1.0000
  C   C1147     1.0  0.36057  0.91756  0.12559  1.0000
  N   N78       1.0  0.64377  0.93654  0.23802  1.0000
  C   C1148     1.0  0.36781  0.95916  0.21927  1.0000
  H   H1386     1.0  0.63357  0.96850  0.23936  1.0000
  H   H1387     1.0  0.40701  0.97503  0.22988  1.0000
  H   H1388     1.0  0.50382  0.51306  0.17193  1.0000
  C   C1149     1.0  0.38006  0.91304  0.13009  1.0000
  C   C1150     1.0  0.38216  0.94458  0.21507  1.0000
  H   H1389     1.0  0.60648  0.89834  0.19669  1.0000
  H   H1390     1.0  0.47581  0.95368  0.16537  1.0000
  H   H1391     1.0  0.41228  0.92787  0.13500  1.0000
  C   C1151     1.0  0.54382  0.93355  0.16883  1.0000
  N   N79       1.0  0.50654  0.94213  0.16592  1.0000
  H   H1392     1.0  0.34832  0.98433  0.23974  1.0000
  C   C1152     1.0  0.52773  0.94686  0.17180  1.0000
  H   H1393     1.0  0.50162  0.90430  0.17048  1.0000
  C   C1153     1.0  0.38795  0.90369  0.17474  1.0000
  C   C1154     1.0  0.39533  0.95443  0.12771  1.0000
  C   C1155     1.0  0.39743  0.93146  0.13112  1.0000
  H   H1394     1.0  0.49770  0.94485  0.14186  1.0000
  H   H1395     1.0  0.54096  0.91987  0.16229  1.0000
  S   S302      1.0  0.62760  0.53214  0.14167  1.0000
  S   S303      1.0  0.62068  0.99272  0.19503  1.0000
  C   C1156     1.0  0.42216  0.99931  0.09334  1.0000
  C   C1157     1.0  0.56900  0.95551  0.18224  1.0000
  H   H1396     1.0  0.62391  0.87193  0.21381  1.0000
  H   H1397     1.0  0.38090  0.95904  0.16893  1.0000
  C   C1158     1.0  0.36628  0.89133  0.17401  1.0000
  S   S304      1.0  0.45662  0.98904  0.13194  1.0000
  C   C1159     1.0  0.63886  0.92462  0.18347  1.0000
  C   C1160     1.0  0.63479  0.88816  0.20455  1.0000
  S   S305      1.0  0.62443  0.57690  0.17180  1.0000
  H   H1398     1.0  0.40064  0.95057  0.21295  1.0000
  H   H1399     1.0  0.43379  0.99353  0.10025  1.0000
  H   H1400     1.0  0.52514  0.96392  0.14056  1.0000
  N   N80       1.0  0.37792  0.98275  0.22137  1.0000
  C   C1161     1.0  0.34956  0.90315  0.17176  1.0000
  H   H1401     1.0  0.50081  0.97653  0.16365  1.0000
  Fe  Fe156     1.0  0.63983  0.98163  0.17342  1.0000
  S   S306      1.0  0.63912  0.51738  0.17904  1.0000
  H   H1402     1.0  0.36238  0.87248  0.17534  1.0000
  H   H1403     1.0  0.38140  0.89506  0.13326  1.0000
  C   C1162     1.0  0.35805  0.94085  0.12175  1.0000
  C   C1163     1.0  0.53328  0.96477  0.18026  1.0000
  H   H1404     1.0  0.40867  0.96863  0.12885  1.0000
  C   C1164     1.0  0.62495  0.90312  0.19492  1.0000
  C   C1165     1.0  0.35480  0.92763  0.16998  1.0000
  Fe  Fe157     1.0  0.35820  0.98760  0.05212  1.0000
  C   C1166     1.0  0.65387  0.94643  0.21934  1.0000
  H   H1405     1.0  0.48816  0.91347  0.18836  1.0000
  Fe  Fe158     1.0  0.43682  0.98067  0.15944  1.0000
  S   S307      1.0  0.38729  0.97684  0.06093  1.0000
  C   C1167     1.0  0.37685  0.94020  0.17029  1.0000
  H   H1406     1.0  0.54525  0.51705  0.16953  1.0000
  H   H1407     1.0  0.35045  0.99860  0.21773  1.0000
  C   C1168     1.0  0.64239  0.62267  0.17217  1.0000
  C   C1169     1.0  0.33440  0.93642  0.10207  1.0000
  H   H1408     1.0  0.47598  0.91342  0.17052  1.0000
  Fe  Fe159     1.0  0.63891  0.55046  0.16072  1.0000
  H   H1409     1.0  0.65872  0.79884  0.21339  1.0000
  C   C1170     1.0  0.65165  0.61510  0.03152  1.0000
  H   H1410     1.0  0.63456  0.61029  0.04028  1.0000
  C   C1171     1.0  0.63105  0.91116  0.24155  1.0000
  C   C1172     1.0  0.41360  0.98631  0.08271  1.0000
  H   H1411     1.0  0.55783  0.98299  0.19148  1.0000
  H   H1412     1.0  0.65804  0.65825  0.17286  1.0000
  C   C1173     1.0  0.34389  0.95012  0.22098  1.0000
  H   H1413     1.0  0.34207  0.93691  0.16805  1.0000
  H   H1414     1.0  0.63052  0.61792  0.18478  1.0000
  C   C1174     1.0  0.65445  0.62204  0.01394  1.0000
  H   H1415     1.0  0.38448  0.99933  0.19457  1.0000
  C   C1175     1.0  0.39363  0.99818  0.20478  1.0000
  H   H1416     1.0  0.65740  0.59954  0.13881  1.0000
  C   C1176     1.0  0.39114  0.98035  0.23432  1.0000
  H   H1417     1.0  0.39694  0.99733  0.23753  1.0000
  H   H1418     1.0  0.61152  0.94522  0.23822  1.0000
  S   S308      1.0  0.33313  0.99853  0.07045  1.0000
  Fe  Fe160     1.0  0.33082  0.98916  0.02557  1.0000
  C   C1177     1.0  0.55361  0.96886  0.18542  1.0000
  C   C1178     1.0  0.37301  0.92212  0.21321  1.0000
  H   H1419     1.0  0.58491  0.95899  0.18599  1.0000
  H   H1420     1.0  0.38437  0.91141  0.20988  1.0000
  S   S309      1.0  0.46538  0.00201  0.16740  1.0000
  H   H1421     1.0  0.56382  0.99991  0.13276  1.0000
  H   H1422     1.0  0.61569  0.90893  0.23640  1.0000
  C   C1179     1.0  0.34707  0.99578  0.15310  1.0000
  H   H1423     1.0  0.35091  0.98285  0.16251  1.0000
  C   C1180     1.0  0.65764  0.61218  0.14635  1.0000
  C   C1181     1.0  0.62644  0.94893  0.24374  1.0000
  H   H1424     1.0  0.33805  0.97787  0.12403  1.0000
  C   C1182     1.0  0.65800  0.64541  0.16549  1.0000
  H   H1425     1.0  0.63962  0.62267  0.00902  1.0000
  H   H1426     1.0  0.33333  0.93926  0.01262  1.0000
  H   H1427     1.0  0.66153  0.58256  0.19115  1.0000
  H   H1428     1.0  0.33149  0.91697  0.10465  1.0000
  S   S310      1.0  0.33123  0.95999  0.04722  1.0000
  H   H1429     1.0  0.33162  0.95990  0.22403  1.0000
  C   C1183     1.0  0.63429  0.90073  0.41677  1.0000
  H   H1430     1.0  0.65017  0.93394  0.44301  1.0000
  H   H1431     1.0  0.60808  0.97145  0.39296  1.0000
  Fe  Fe161     1.0  0.47628  0.99773  0.38057  1.0000
  S   S311      1.0  0.41113  0.99327  0.39716  1.0000
  H   H1432     1.0  0.59796  0.69333  0.48021  1.0000
  S   S312      1.0  0.63012  0.99958  0.41520  1.0000
  C   C1184     1.0  0.57047  0.65323  0.45197  1.0000
  H   H1433     1.0  0.66258  0.59000  0.46610  1.0000
  S   S313      1.0  0.44919  0.96272  0.39098  1.0000
  Fe  Fe162     1.0  0.43412  0.97845  0.41147  1.0000
  S   S314      1.0  0.42092  0.96135  0.43990  1.0000
  H   H1434     1.0  0.61966  0.94351  0.25793  1.0000
  H   H1435     1.0  0.60573  0.57577  0.48645  1.0000
  H   H1436     1.0  0.34073  0.98129  0.39522  1.0000
  H   H1437     1.0  0.59596  0.92914  0.39638  1.0000
  C   C1185     1.0  0.37298  0.97753  0.32733  1.0000
  C   C1186     1.0  0.56272  0.62136  0.47757  1.0000
  H   H1438     1.0  0.36601  0.91612  0.39719  1.0000
  C   C1187     1.0  0.38061  0.98744  0.35751  1.0000
  S   S315      1.0  0.36427  0.99686  0.47550  1.0000
  H   H1439     1.0  0.62808  0.78914  0.47031  1.0000
  S   S316      1.0  0.63025  0.74071  0.47751  1.0000
  Fe  Fe163     1.0  0.61747  0.55600  0.42137  1.0000
  S   S317      1.0  0.61358  0.52165  0.44024  1.0000
  S   S318      1.0  0.60937  0.58958  0.42558  1.0000
  C   C1188     1.0  0.36450  0.99604  0.35023  1.0000
  S   S319      1.0  0.34059  0.00219  0.32616  1.0000
  C   C1189     1.0  0.57767  0.92977  0.39849  1.0000
  S   S320      1.0  0.60346  0.53814  0.40303  1.0000
  S   S321      1.0  0.61685  0.62152  0.49249  1.0000
  C   C1190     1.0  0.61690  0.61297  0.47347  1.0000
  C   C1191     1.0  0.62251  0.62978  0.45770  1.0000
  H   H1440     1.0  0.34179  0.91064  0.43329  1.0000
  C   C1192     1.0  0.61387  0.59820  0.44384  1.0000
  C   C1193     1.0  0.60938  0.58139  0.45945  1.0000
  C   C1194     1.0  0.61041  0.58880  0.47429  1.0000
  H   H1441     1.0  0.62732  0.88250  0.41691  1.0000
  C   C1195     1.0  0.34716  0.97969  0.40640  1.0000
  H   H1442     1.0  0.60398  0.56272  0.46023  1.0000
  C   C1196     1.0  0.55456  0.67865  0.47752  1.0000
  H   H1443     1.0  0.59891  0.68968  0.45937  1.0000
  H   H1444     1.0  0.54630  0.96601  0.41080  1.0000
  H   H1445     1.0  0.42502  0.99004  0.30596  1.0000
  S   S322      1.0  0.63026  0.88309  0.45047  1.0000
  H   H1446     1.0  0.36300  0.94304  0.43625  1.0000
  H   H1447     1.0  0.63763  0.82073  0.48482  1.0000
  C   C1197     1.0  0.56043  0.60500  0.46787  1.0000
  S   S323      1.0  0.65392  0.55635  0.36270  1.0000
  C   C1198     1.0  0.35025  0.95804  0.41514  1.0000
  C   C1199     1.0  0.54980  0.95019  0.40706  1.0000
  H   H1448     1.0  0.63578  0.91456  0.39033  1.0000
  C   C1200     1.0  0.56822  0.63670  0.44241  1.0000
  C   C1201     1.0  0.36652  0.88978  0.45561  1.0000
  C   C1202     1.0  0.38382  0.89657  0.44011  1.0000
  C   C1203     1.0  0.40078  0.91841  0.43529  1.0000
  C   C1204     1.0  0.40047  0.93355  0.44596  1.0000
  C   C1205     1.0  0.38320  0.92677  0.46146  1.0000
  C   C1206     1.0  0.36619  0.90497  0.46625  1.0000
  H   H1449     1.0  0.38412  0.88488  0.43183  1.0000
  H   H1450     1.0  0.41411  0.92352  0.42334  1.0000
  H   H1451     1.0  0.38248  0.93878  0.46945  1.0000
  H   H1452     1.0  0.35259  0.90011  0.47802  1.0000
  H   H1453     1.0  0.37834  0.93013  0.41140  1.0000
  C   C1207     1.0  0.63886  0.80315  0.49013  1.0000
  H   H1454     1.0  0.58804  0.98730  0.39891  1.0000
  H   H1455     1.0  0.64844  0.98141  0.49081  1.0000
  C   C1208     1.0  0.62044  0.62239  0.44301  1.0000
  C   C1209     1.0  0.56320  0.61264  0.45034  1.0000
  N   N81       1.0  0.34579  0.93624  0.40928  1.0000
  H   H1456     1.0  0.55726  0.58629  0.47384  1.0000
  N   N82       1.0  0.57079  0.66405  0.47963  1.0000
  H   H1457     1.0  0.53639  0.66732  0.48153  1.0000
  C   C1210     1.0  0.33205  0.91539  0.42387  1.0000
  C   C1211     1.0  0.34737  0.96994  0.49019  1.0000
  C   C1212     1.0  0.38810  0.96783  0.33513  1.0000
  S   S324      1.0  0.65086  0.96487  0.38328  1.0000
  H   H1458     1.0  0.34347  0.95107  0.38381  1.0000
  H   H1459     1.0  0.50697  0.00050  0.40355  1.0000
  C   C1213     1.0  0.36211  0.00005  0.42574  1.0000
  H   H1460     1.0  0.63203  0.50928  0.28712  1.0000
  H   H1461     1.0  0.47412  0.98295  0.33845  1.0000
  S   S325      1.0  0.41211  0.96152  0.35893  1.0000
  H   H1462     1.0  0.65958  0.61154  0.40970  1.0000
  C   C1214     1.0  0.65167  0.94791  0.41651  1.0000
  C   C1215     1.0  0.58671  0.94348  0.45580  1.0000
  C   C1216     1.0  0.59030  0.92651  0.44722  1.0000
  C   C1217     1.0  0.36820  0.93226  0.40192  1.0000
  S   S326      1.0  0.65949  0.92295  0.47855  1.0000
  H   H1463     1.0  0.61703  0.52732  0.30642  1.0000
  H   H1464     1.0  0.54591  0.95129  0.39446  1.0000
  C   C1218     1.0  0.58987  0.97166  0.39429  1.0000
  H   H1465     1.0  0.58712  0.97479  0.38127  1.0000
  H   H1466     1.0  0.59054  0.94247  0.46803  1.0000
  C   C1219     1.0  0.36549  0.97921  0.43444  1.0000
  S   S327      1.0  0.35860  0.00101  0.27593  1.0000
  H   H1467     1.0  0.57421  0.93214  0.38570  1.0000
  H   H1468     1.0  0.56112  0.61418  0.49096  1.0000
  C   C1220     1.0  0.33307  0.93750  0.39595  1.0000
  C   C1221     1.0  0.63564  0.76260  0.48844  1.0000
  H   H1469     1.0  0.38367  0.99148  0.36907  1.0000
  C   C1222     1.0  0.39223  0.97307  0.35005  1.0000
  H   H1470     1.0  0.57618  0.97537  0.45502  1.0000
  C   C1223     1.0  0.36093  0.99141  0.33499  1.0000
  C   C1224     1.0  0.63903  0.91883  0.40177  1.0000
  C   C1225     1.0  0.65695  0.53695  0.49213  1.0000
  H   H1471     1.0  0.56223  0.59992  0.44279  1.0000
  H   H1472     1.0  0.62763  0.64844  0.45686  1.0000
  H   H1473     1.0  0.41359  0.94682  0.48467  1.0000
  C   C1226     1.0  0.57790  0.94666  0.42330  1.0000
  S   S328      1.0  0.65452  0.56074  0.40830  1.0000
  Fe  Fe164     1.0  0.64041  0.54060  0.39120  1.0000
  C   C1227     1.0  0.57410  0.96345  0.43255  1.0000
  S   S329      1.0  0.65558  0.68938  0.46801  1.0000
  C   C1228     1.0  0.61141  0.51013  0.34887  1.0000
  H   H1474     1.0  0.53717  0.93423  0.41654  1.0000
  H   H1475     1.0  0.37909  0.94756  0.39101  1.0000
  H   H1476     1.0  0.57478  0.67171  0.44516  1.0000
  H   H1477     1.0  0.62376  0.63545  0.43097  1.0000
  Fe  Fe165     1.0  0.64974  0.52512  0.42568  1.0000
  Fe  Fe166     1.0  0.42865  0.98050  0.37581  1.0000
  C   C1229     1.0  0.56777  0.64609  0.46988  1.0000
  C   C1230     1.0  0.57857  0.96190  0.44850  1.0000
  H   H1478     1.0  0.55814  0.68922  0.46408  1.0000
  H   H1479     1.0  0.56833  0.97841  0.42727  1.0000
  N   N83       1.0  0.57387  0.94930  0.40612  1.0000
  H   H1480     1.0  0.59684  0.91229  0.45288  1.0000
  H   H1481     1.0  0.65816  0.96614  0.41648  1.0000
  H   H1482     1.0  0.38035  0.96708  0.24648  1.0000
  H   H1483     1.0  0.59076  0.52411  0.33385  1.0000
  C   C1231     1.0  0.35953  0.95852  0.42932  1.0000
  H   H1484     1.0  0.59004  0.91465  0.42508  1.0000
  C   C1232     1.0  0.58618  0.92806  0.43115  1.0000
  S   S330      1.0  0.51350  0.00131  0.36783  1.0000
  Fe  Fe167     1.0  0.63831  0.65800  0.49081  1.0000
  H   H1485     1.0  0.39680  0.95640  0.32949  1.0000
  C   C1233     1.0  0.63836  0.90612  0.43164  1.0000
  C   C1234     1.0  0.47737  0.99829  0.32773  1.0000
  C   C1235     1.0  0.64237  0.51364  0.31719  1.0000
  H   H1486     1.0  0.62518  0.90235  0.25553  1.0000
  H   H1487     1.0  0.56613  0.91229  0.40672  1.0000
  H   H1488     1.0  0.55578  0.69171  0.48527  1.0000
  C   C1236     1.0  0.59472  0.67975  0.47304  1.0000
  Fe  Fe168     1.0  0.65123  0.99898  0.39003  1.0000
  C   C1237     1.0  0.64730  0.94244  0.40170  1.0000
  C   C1238     1.0  0.64739  0.92970  0.43147  1.0000
  C   C1239     1.0  0.64686  0.50487  0.33307  1.0000
  H   H1489     1.0  0.34199  0.95272  0.47050  1.0000
  H   H1490     1.0  0.36996  0.97354  0.31574  1.0000
  Fe  Fe169     1.0  0.64527  0.71090  0.48593  1.0000
  H   H1491     1.0  0.60724  0.66918  0.47419  1.0000
  Fe  Fe170     1.0  0.64598  0.88937  0.47161  1.0000
  H   H1492     1.0  0.65243  0.54892  0.28795  1.0000
  S   S331      1.0  0.34495  0.86281  0.46095  1.0000
  H   H1493     1.0  0.57086  0.64252  0.42868  1.0000
  C   C1240     1.0  0.63349  0.78527  0.48191  1.0000
  N   N84       1.0  0.65840  0.51624  0.30042  1.0000
  H   H1494     1.0  0.37338  0.97920  0.44495  1.0000
  H   H1495     1.0  0.39129  0.95900  0.49309  1.0000
  H   H1496     1.0  0.59991  0.50936  0.36096  1.0000
  H   H1497     1.0  0.38721  0.90794  0.49502  1.0000
  H   H1498     1.0  0.65939  0.97154  0.25387  1.0000
  H   H1499     1.0  0.44260  0.98979  0.32669  1.0000
  C   C1241     1.0  0.33830  0.95088  0.48410  1.0000
  C   C1242     1.0  0.62158  0.52034  0.31794  1.0000
  H   H1500     1.0  0.62323  0.53103  0.48803  1.0000
  S   S332      1.0  0.63923  0.50508  0.40726  1.0000
  C   C1243     1.0  0.35293  0.00029  0.41177  1.0000
  C   C1244     1.0  0.60639  0.51859  0.33357  1.0000
  C   C1245     1.0  0.63420  0.53805  0.49547  1.0000
  H   H1501     1.0  0.66316  0.62996  0.47089  1.0000
  H   H1502     1.0  0.66356  0.52904  0.48222  1.0000
  C   C1246     1.0  0.45937  0.00241  0.32088  1.0000
  H   H1503     1.0  0.44394  0.00351  0.28481  1.0000
  C   C1247     1.0  0.66277  0.93927  0.24640  1.0000
  H   H1504     1.0  0.65526  0.91729  0.72366  1.0000
  C   C1248     1.0  0.64965  0.66402  0.59476  1.0000
  H   H1505     1.0  0.63304  0.87206  0.70858  1.0000
  S   S333      1.0  0.37415  0.86754  0.70540  1.0000
  H   H1506     1.0  0.59475  0.55001  0.53827  1.0000
  C   C1249     1.0  0.41736  0.97884  0.55499  1.0000
  C   C1250     1.0  0.40918  0.89305  0.73480  1.0000
  C   C1251     1.0  0.36247  0.92107  0.55763  1.0000
  H   H1507     1.0  0.50343  0.87863  0.56453  1.0000
  H   H1508     1.0  0.65568  0.58052  0.68899  1.0000
  H   H1509     1.0  0.47763  0.51355  0.61452  1.0000
  H   H1510     1.0  0.63857  0.60297  0.53663  1.0000
  Fe  Fe171     1.0  0.45264  0.87847  0.60037  1.0000
  S   S334      1.0  0.41573  0.86112  0.61578  1.0000
  S   S335      1.0  0.48377  0.86825  0.60672  1.0000
  Fe  Fe172     1.0  0.43873  0.90759  0.57196  1.0000
  S   S336      1.0  0.40071  0.89336  0.58475  1.0000
  S   S337      1.0  0.45500  0.93346  0.54602  1.0000
  Fe  Fe173     1.0  0.41092  0.89742  0.60862  1.0000
  S   S338      1.0  0.38839  0.91190  0.62646  1.0000
  Fe  Fe174     1.0  0.40797  0.85816  0.59090  1.0000
  S   S339      1.0  0.38402  0.82338  0.59161  1.0000
  S   S340      1.0  0.44849  0.91524  0.59517  1.0000
  S   S341      1.0  0.44535  0.87195  0.57612  1.0000
  N   N85       1.0  0.39563  0.93013  0.51143  1.0000
  S   S342      1.0  0.61739  0.94246  0.64376  1.0000
  H   H1511     1.0  0.48992  0.94503  0.64214  1.0000
  S   S343      1.0  0.62995  0.94444  0.60286  1.0000
  H   H1512     1.0  0.53220  0.90944  0.53018  1.0000
  Fe  Fe175     1.0  0.64103  0.90139  0.50551  1.0000
  Fe  Fe176     1.0  0.59897  0.92834  0.62571  1.0000
  S   S344      1.0  0.56531  0.93656  0.62362  1.0000
  S   S345      1.0  0.60593  0.89278  0.63242  1.0000
  Fe  Fe177     1.0  0.59703  0.54472  0.63835  1.0000
  S   S346      1.0  0.56772  0.53687  0.62642  1.0000
  S   S347      1.0  0.59259  0.56117  0.66066  1.0000
  Fe  Fe178     1.0  0.62866  0.52871  0.61252  1.0000
  H   H1513     1.0  0.35205  0.85351  0.66450  1.0000
  Fe  Fe179     1.0  0.59468  0.55341  0.60143  1.0000
  S   S348      1.0  0.58620  0.57727  0.58055  1.0000
  H   H1514     1.0  0.45831  0.50763  0.63512  1.0000
  H   H1515     1.0  0.39996  0.90069  0.74430  1.0000
  C   C1252     1.0  0.42582  0.86138  0.73033  1.0000
  N   N86       1.0  0.63099  0.56857  0.53171  1.0000
  C   C1253     1.0  0.48098  0.95288  0.63356  1.0000
  C   C1254     1.0  0.60718  0.60424  0.57033  1.0000
  C   C1255     1.0  0.62892  0.60873  0.57341  1.0000
  H   H1516     1.0  0.58070  0.64000  0.64567  1.0000
  H   H1517     1.0  0.34914  0.82691  0.62109  1.0000
  C   C1256     1.0  0.61851  0.64316  0.55042  1.0000
  C   C1257     1.0  0.60197  0.62149  0.55887  1.0000
  H   H1518     1.0  0.63319  0.59541  0.58201  1.0000
  H   H1519     1.0  0.51056  0.98211  0.61938  1.0000
  H   H1520     1.0  0.61415  0.65661  0.54195  1.0000
  H   H1521     1.0  0.58510  0.61815  0.55654  1.0000
  C   C1258     1.0  0.62236  0.90459  0.57357  1.0000
  C   C1259     1.0  0.61478  0.90923  0.55874  1.0000
  H   H1522     1.0  0.61038  0.90086  0.58602  1.0000
  H   H1523     1.0  0.59685  0.90847  0.55982  1.0000
  C   C1260     1.0  0.50579  0.88707  0.61216  1.0000
  C   C1261     1.0  0.50445  0.90926  0.61423  1.0000
  C   C1262     1.0  0.52289  0.92416  0.61772  1.0000
  C   C1263     1.0  0.54267  0.91700  0.61934  1.0000
  C   C1264     1.0  0.54403  0.89483  0.61725  1.0000
  C   C1265     1.0  0.52562  0.87992  0.61371  1.0000
  H   H1524     1.0  0.48931  0.91499  0.61304  1.0000
  H   H1525     1.0  0.52203  0.94144  0.61905  1.0000
  H   H1526     1.0  0.55924  0.88922  0.61841  1.0000
  H   H1527     1.0  0.52675  0.86279  0.61211  1.0000
  H   H1528     1.0  0.60344  0.57842  0.52229  1.0000
  C   C1266     1.0  0.34867  0.82955  0.55492  1.0000
  C   C1267     1.0  0.36330  0.83562  0.56531  1.0000
  C   C1268     1.0  0.36640  0.81778  0.57784  1.0000
  C   C1269     1.0  0.35483  0.79413  0.57991  1.0000
  S   S349      1.0  0.62495  0.67923  0.50779  1.0000
  C   C1270     1.0  0.65166  0.88871  0.68212  1.0000
  H   H1529     1.0  0.37208  0.85395  0.56368  1.0000
  H   H1530     1.0  0.35712  0.78026  0.58951  1.0000
  H   H1531     1.0  0.42612  0.90611  0.72791  1.0000
  S   S350      1.0  0.64315  0.66328  0.70484  1.0000
  C   C1271     1.0  0.64029  0.64765  0.55339  1.0000
  C   C1272     1.0  0.44956  0.97431  0.52754  1.0000
  C   C1273     1.0  0.44272  0.95719  0.54334  1.0000
  C   C1274     1.0  0.42635  0.95929  0.55699  1.0000
  C   C1275     1.0  0.64482  0.59368  0.52708  1.0000
  S   S351      1.0  0.61677  0.60634  0.74552  1.0000
  H   H1532     1.0  0.60832  0.56802  0.72897  1.0000
  H   H1533     1.0  0.42075  0.94597  0.56913  1.0000
  H   H1534     1.0  0.36404  0.91855  0.50472  1.0000
  H   H1535     1.0  0.33204  0.76969  0.57125  1.0000
  H   H1536     1.0  0.42487  0.91738  0.50267  1.0000
  C   C1276     1.0  0.34255  0.96737  0.50780  1.0000
  H   H1537     1.0  0.41330  0.97866  0.59232  1.0000
  H   H1538     1.0  0.55761  0.62857  0.61913  1.0000
  S   S352      1.0  0.60229  0.51966  0.59825  1.0000
  C   C1277     1.0  0.37861  0.88121  0.68361  1.0000
  C   C1278     1.0  0.36496  0.89534  0.67813  1.0000
  C   C1279     1.0  0.36832  0.90505  0.66054  1.0000
  C   C1280     1.0  0.38521  0.90054  0.64841  1.0000
  C   C1281     1.0  0.39908  0.88673  0.65392  1.0000
  C   C1282     1.0  0.39580  0.87713  0.67148  1.0000
  H   H1539     1.0  0.35760  0.91580  0.65632  1.0000
  H   H1540     1.0  0.41228  0.88335  0.64468  1.0000
  H   H1541     1.0  0.40642  0.86622  0.67564  1.0000
  H   H1542     1.0  0.62403  0.53676  0.55189  1.0000
  Fe  Fe180     1.0  0.63824  0.91011  0.61087  1.0000
  C   C1283     1.0  0.60638  0.56839  0.53416  1.0000
  C   C1284     1.0  0.58962  0.60336  0.62059  1.0000
  H   H1543     1.0  0.58076  0.63804  0.60034  1.0000
  C   C1285     1.0  0.61160  0.59601  0.67426  1.0000
  S   S353      1.0  0.62315  0.56405  0.61338  1.0000
  H   H1544     1.0  0.59458  0.59157  0.68299  1.0000
  H   H1545     1.0  0.53914  0.92307  0.58295  1.0000
  C   C1286     1.0  0.64529  0.56170  0.74085  1.0000
  S   S354      1.0  0.34858  0.89331  0.74244  1.0000
  C   C1287     1.0  0.63333  0.55597  0.54838  1.0000
  H   H1546     1.0  0.56090  0.61289  0.64601  1.0000
  C   C1288     1.0  0.48113  0.98373  0.60948  1.0000
  C   C1289     1.0  0.42431  0.99608  0.53927  1.0000
  S   S355      1.0  0.62462  0.86917  0.49821  1.0000
  H   H1547     1.0  0.58740  0.61192  0.65047  1.0000
  Fe  Fe181     1.0  0.64885  0.95552  0.62133  1.0000
  C   C1290     1.0  0.41506  0.92059  0.51444  1.0000
  H   H1548     1.0  0.38008  0.85158  0.73838  1.0000
  S   S356      1.0  0.60438  0.50965  0.63861  1.0000
  H   H1549     1.0  0.65819  0.67073  0.58114  1.0000
  H   H1550     1.0  0.41844  0.96520  0.49863  1.0000
  C   C1291     1.0  0.38391  0.93523  0.52719  1.0000
  H   H1551     1.0  0.41776  0.85930  0.71971  1.0000
  C   C1292     1.0  0.61555  0.58374  0.66179  1.0000
  H   H1552     1.0  0.62625  0.62365  0.68503  1.0000
  C   C1293     1.0  0.63947  0.55736  0.51826  1.0000
  C   C1294     1.0  0.65318  0.98382  0.51534  1.0000
  H   H1553     1.0  0.61831  0.64633  0.59073  1.0000
  C   C1295     1.0  0.37374  0.91678  0.54261  1.0000
  C   C1296     1.0  0.40513  0.95126  0.49638  1.0000
  C   C1297     1.0  0.64252  0.75771  0.50349  1.0000
  C   C1298     1.0  0.45765  0.97299  0.61079  1.0000
  H   H1554     1.0  0.64089  0.58005  0.64110  1.0000
  H   H1555     1.0  0.42853  0.94251  0.62640  1.0000
  H   H1556     1.0  0.49082  0.99999  0.59979  1.0000
  H   H1557     1.0  0.65705  0.55013  0.69239  1.0000
  N   N87       1.0  0.59047  0.62681  0.62375  1.0000
  C   C1299     1.0  0.57948  0.62291  0.64225  1.0000
  S   S357      1.0  0.62625  0.88896  0.67549  1.0000
  C   C1300     1.0  0.36093  0.94379  0.55775  1.0000
  H   H1558     1.0  0.46221  0.97271  0.51695  1.0000
  H   H1559     1.0  0.59664  0.60473  0.60682  1.0000
  C   C1301     1.0  0.62542  0.54786  0.50843  1.0000
  H   H1560     1.0  0.64371  0.60354  0.51447  1.0000
  H   H1561     1.0  0.63966  0.96844  0.68218  1.0000
  Fe  Fe182     1.0  0.34381  0.86983  0.72503  1.0000
  S   S358      1.0  0.62014  0.91592  0.52431  1.0000
  N   N88       1.0  0.61732  0.83370  0.55964  1.0000
  C   C1302     1.0  0.64243  0.84023  0.55835  1.0000
  C   C1303     1.0  0.61003  0.80826  0.56027  1.0000
  C   C1304     1.0  0.61429  0.84779  0.54374  1.0000
  C   C1305     1.0  0.60302  0.83794  0.57482  1.0000
  C   C1306     1.0  0.57894  0.83466  0.57708  1.0000
  C   C1307     1.0  0.61220  0.84484  0.58791  1.0000
  C   C1308     1.0  0.56513  0.83875  0.59124  1.0000
  C   C1309     1.0  0.59824  0.84881  0.60203  1.0000
  C   C1310     1.0  0.57480  0.84590  0.60366  1.0000
  H   H1562     1.0  0.64645  0.82916  0.56923  1.0000
  C   C1311     1.0  0.64991  0.87941  0.69950  1.0000
  H   H1563     1.0  0.65304  0.77154  0.52339  1.0000
  H   H1564     1.0  0.62070  0.80433  0.54914  1.0000
  H   H1565     1.0  0.59178  0.80245  0.55992  1.0000
  H   H1566     1.0  0.61173  0.79698  0.57216  1.0000
  H   H1567     1.0  0.59654  0.84231  0.54240  1.0000
  H   H1568     1.0  0.61839  0.86693  0.54319  1.0000
  H   H1569     1.0  0.62581  0.84588  0.53216  1.0000
  H   H1570     1.0  0.57060  0.82891  0.56788  1.0000
  H   H1571     1.0  0.63026  0.84785  0.58742  1.0000
  H   H1572     1.0  0.54683  0.83641  0.59262  1.0000
  C   C1312     1.0  0.34062  0.81444  0.69621  1.0000
  H   H1573     1.0  0.56414  0.84920  0.61458  1.0000
  N   N89       1.0  0.52389  0.91518  0.55536  1.0000
  C   C1313     1.0  0.52092  0.88988  0.56350  1.0000
  C   C1314     1.0  0.50542  0.92306  0.56530  1.0000
  C   C1315     1.0  0.52041  0.91711  0.53800  1.0000
  C   C1316     1.0  0.54692  0.92928  0.55526  1.0000
  C   C1317     1.0  0.56528  0.94010  0.54004  1.0000
  C   C1318     1.0  0.55186  0.93161  0.57085  1.0000
  H   H1574     1.0  0.52289  0.93588  0.53109  1.0000
  H   H1575     1.0  0.62822  0.59116  0.71148  1.0000
  C   C1319     1.0  0.59095  0.95529  0.55606  1.0000
  S   S359      1.0  0.65418  0.89492  0.59056  1.0000
  H   H1576     1.0  0.61234  0.52779  0.73428  1.0000
  H   H1577     1.0  0.53404  0.88304  0.55618  1.0000
  H   H1578     1.0  0.48805  0.91426  0.56432  1.0000
  H   H1579     1.0  0.64517  0.51145  0.58067  1.0000
  H   H1580     1.0  0.65031  0.96488  0.52018  1.0000
  H   H1581     1.0  0.40917  0.90344  0.52449  1.0000
  H   H1582     1.0  0.50254  0.90722  0.53861  1.0000
  C   C1320     1.0  0.34300  0.82467  0.63475  1.0000
  H   H1583     1.0  0.47645  0.99837  0.57722  1.0000
  H   H1584     1.0  0.66202  0.96178  0.64944  1.0000
  H   H1585     1.0  0.42083  0.95207  0.59961  1.0000
  C   C1321     1.0  0.33736  0.80566  0.55702  1.0000
  H   H1586     1.0  0.52280  0.88699  0.57674  1.0000
  C   C1322     1.0  0.38228  0.95828  0.52782  1.0000
  C   C1323     1.0  0.37075  0.96232  0.54288  1.0000
  C   C1324     1.0  0.57347  0.94454  0.57121  1.0000
  C   C1325     1.0  0.64756  0.77544  0.51183  1.0000
  H   H1587     1.0  0.60752  0.54770  0.51051  1.0000
  H   H1588     1.0  0.45329  0.89943  0.74113  1.0000
  H   H1589     1.0  0.63218  0.55775  0.68810  1.0000
  H   H1590     1.0  0.64587  0.93747  0.69849  1.0000
  C   C1326     1.0  0.35176  0.84241  0.64193  1.0000
  H   H1591     1.0  0.42816  0.84395  0.73621  1.0000
  C   C1327     1.0  0.37907  0.91217  0.50688  1.0000
  H   H1592     1.0  0.35175  0.89869  0.68741  1.0000
  H   H1593     1.0  0.44325  0.87401  0.72434  1.0000
  C   C1328     1.0  0.64537  0.63058  0.56510  1.0000
  H   H1594     1.0  0.38970  0.97354  0.51688  1.0000
  N   N90       1.0  0.44587  0.98398  0.59882  1.0000
  S   S360      1.0  0.66146  0.67404  0.54193  1.0000
  C   C1329     1.0  0.65322  0.91431  0.54138  1.0000
  H   H1595     1.0  0.50409  0.91860  0.57920  1.0000
  C   C1330     1.0  0.65540  0.60796  0.65163  1.0000
  H   H1596     1.0  0.37439  0.89882  0.54318  1.0000
  C   C1331     1.0  0.65085  0.66024  0.62400  1.0000
  C   C1332     1.0  0.49256  0.97374  0.62070  1.0000
  C   C1333     1.0  0.44635  0.95186  0.62419  1.0000
  H   H1597     1.0  0.45953  0.96920  0.57873  1.0000
  H   H1598     1.0  0.65278  0.83762  0.54649  1.0000
  H   H1599     1.0  0.39938  0.89178  0.72505  1.0000
  C   C1334     1.0  0.62781  0.64654  0.62978  1.0000
  H   H1600     1.0  0.60584  0.85465  0.61159  1.0000
  C   C1335     1.0  0.64613  0.79829  0.50503  1.0000
  H   H1601     1.0  0.56357  0.93859  0.52763  1.0000
  H   H1602     1.0  0.34936  0.98202  0.51260  1.0000
  H   H1603     1.0  0.62068  0.64002  0.64348  1.0000
  C   C1336     1.0  0.62213  0.53196  0.72061  1.0000
  C   C1337     1.0  0.45856  0.98668  0.58088  1.0000
  H   H1604     1.0  0.64896  0.85924  0.55787  1.0000
  H   H1605     1.0  0.65220  0.93883  0.66898  1.0000
  H   H1606     1.0  0.63388  0.52037  0.71980  1.0000
  H   H1607     1.0  0.36986  0.98010  0.54305  1.0000
  H   H1608     1.0  0.42735  0.93310  0.51868  1.0000
  C   C1338     1.0  0.64499  0.90328  0.57226  1.0000
  H   H1609     1.0  0.35542  0.83058  0.69015  1.0000
  C   C1339     1.0  0.45794  0.94195  0.63527  1.0000
  H   H1610     1.0  0.57168  0.59147  0.62475  1.0000
  Fe  Fe183     1.0  0.64543  0.63667  0.72730  1.0000
  C   C1340     1.0  0.57633  0.63812  0.61402  1.0000
  H   H1611     1.0  0.62600  0.56317  0.55898  1.0000
  C   C1341     1.0  0.34432  0.83944  0.65955  1.0000
  C   C1342     1.0  0.62951  0.61415  0.67547  1.0000
  H   H1612     1.0  0.41066  0.96788  0.61451  1.0000
  C   C1343     1.0  0.64562  0.56162  0.69500  1.0000
  Fe  Fe184     1.0  0.62724  0.90826  0.64852  1.0000
  C   C1344     1.0  0.34055  0.78813  0.56957  1.0000
  H   H1613     1.0  0.50823  0.94250  0.56060  1.0000
  H   H1614     1.0  0.36459  0.85852  0.63381  1.0000
  C   C1345     1.0  0.61484  0.64145  0.61809  1.0000
  H   H1615     1.0  0.35092  0.94092  0.74386  1.0000
  C   C1346     1.0  0.63016  0.91368  0.54264  1.0000
  C   C1347     1.0  0.63755  0.58970  0.65052  1.0000
  S   S361      1.0  0.65501  0.82075  0.51479  1.0000
  H   H1616     1.0  0.57852  0.65682  0.61456  1.0000
  C   C1348     1.0  0.65146  0.62028  0.66408  1.0000
  C   C1349     1.0  0.58691  0.95293  0.54053  1.0000
  H   H1617     1.0  0.44894  0.92561  0.64522  1.0000
  H   H1618     1.0  0.33628  0.81273  0.71023  1.0000
  H   H1619     1.0  0.34693  0.79910  0.69394  1.0000
  C   C1350     1.0  0.42168  0.97001  0.60148  1.0000
  H   H1620     1.0  0.60084  0.96051  0.52883  1.0000
  H   H1621     1.0  0.40464  0.98045  0.56552  1.0000
  H   H1622     1.0  0.57676  0.94582  0.58338  1.0000
  H   H1623     1.0  0.59995  0.59435  0.62780  1.0000
  Fe  Fe185     1.0  0.65606  0.85758  0.50076  1.0000
  C   C1351     1.0  0.61889  0.57193  0.71557  1.0000
  H   H1624     1.0  0.60784  0.96485  0.55641  1.0000
  H   H1625     1.0  0.60928  0.52681  0.71349  1.0000
  C   C1352     1.0  0.62666  0.65022  0.60040  1.0000
  N   N91       1.0  0.63528  0.55730  0.71364  1.0000
  H   H1626     1.0  0.37214  0.89510  0.51699  1.0000
  H   H1627     1.0  0.64806  0.99792  0.59366  1.0000
  H   H1628     1.0  0.60636  0.56893  0.70787  1.0000
  H   H1629     1.0  0.64385  0.74019  0.50878  1.0000
  H   H1630     1.0  0.34620  0.84325  0.54531  1.0000
  H   H1631     1.0  0.44807  0.51375  0.61641  1.0000
  H   H1632     1.0  0.60057  0.57700  0.54430  1.0000
  C   C1353     1.0  0.65256  0.56303  0.72318  1.0000
  H   H1633     1.0  0.65254  0.99249  0.66363  1.0000
  Fe  Fe186     1.0  0.65829  0.68267  0.51505  1.0000
  N   N92       1.0  0.41141  0.86962  0.74324  1.0000
  H   H1634     1.0  0.66038  0.66388  0.63320  1.0000
  C   C1354     1.0  0.65625  0.98195  0.67496  1.0000
  H   H1635     1.0  0.35225  0.94710  0.56942  1.0000
  H   H1636     1.0  0.35488  0.90665  0.56923  1.0000
  H   H1637     1.0  0.44999  0.99475  0.57158  1.0000
  S   S362      1.0  0.33267  0.85960  0.51027  1.0000
  C   C1355     1.0  0.44018  0.99365  0.52545  1.0000
  H   H1638     1.0  0.66206  0.63424  0.56765  1.0000
  C   C1356     1.0  0.65800  0.99886  0.52557  1.0000
  C   C1357     1.0  0.66045  0.90829  0.55616  1.0000
  S   S363      1.0  0.65995  0.92247  0.62735  1.0000
  H   H1639     1.0  0.65878  0.99165  0.53847  1.0000
  H   H1640     1.0  0.65157  0.55730  0.54829  1.0000
  H   H1641     1.0  0.56897  0.66763  0.50523  1.0000
  H   H1642     1.0  0.54886  0.64178  0.50418  1.0000
  H   H1643     1.0  0.66153  0.76549  0.72327  1.0000
  H   H1644     1.0  0.66072  0.99389  0.68306  1.0000
  C   C1358     1.0  0.56670  0.65368  0.49828  1.0000
  H   H1645     1.0  0.66176  0.51123  0.55078  1.0000
  C   C1359     1.0  0.65205  0.99315  0.49880  1.0000
  H   H1646     1.0  0.57924  0.64352  0.50085  1.0000
  H   H1647     1.0  0.66117  0.81079  0.67802  1.0000
  C   C1360     1.0  0.66258  0.55587  0.51454  1.0000
  C   C1361     1.0  0.66326  0.51998  0.57448  1.0000
  C   C1362     1.0  0.66168  0.66912  0.60655  1.0000
  H   H1648     1.0  0.66336  0.59553  0.52614  1.0000
  C   C1363     1.0  0.66364  0.94224  0.69891  1.0000
  H   H1649     1.0  0.66327  0.83211  0.69895  1.0000
  C   C1364     1.0  0.45946  0.50456  0.62227  1.0000
  N   N93       1.0  0.37086  0.91697  0.94147  1.0000
  C   C1365     1.0  0.65628  0.87222  0.80902  1.0000
  C   C1366     1.0  0.35301  0.92695  0.84575  1.0000
  C   C1367     1.0  0.41427  0.98843  0.84298  1.0000
  H   H1650     1.0  0.36349  0.92962  0.85448  1.0000
  C   C1368     1.0  0.34923  0.92052  0.81854  1.0000
  H   H1651     1.0  0.40212  0.92616  0.77265  1.0000
  H   H1652     1.0  0.39228  0.90286  0.91432  1.0000
  H   H1653     1.0  0.34715  0.92935  0.92871  1.0000
  C   C1369     1.0  0.38799  0.85267  0.74914  1.0000
  C   C1370     1.0  0.39298  0.90975  0.78239  1.0000
  H   H1654     1.0  0.37606  0.85813  0.75859  1.0000
  H   H1655     1.0  0.45889  0.53998  0.82817  1.0000
  C   C1371     1.0  0.45468  0.89128  0.76700  1.0000
  S   S364      1.0  0.62913  0.90514  0.85742  1.0000
  Fe  Fe187     1.0  0.60669  0.58600  0.87429  1.0000
  S   S365      1.0  0.61217  0.55032  0.87380  1.0000
  S   S366      1.0  0.61006  0.60222  0.89638  1.0000
  Fe  Fe188     1.0  0.59806  0.59412  0.83890  1.0000
  S   S367      1.0  0.60368  0.55968  0.83527  1.0000
  S   S368      1.0  0.59365  0.62305  0.81884  1.0000
  Fe  Fe189     1.0  0.58175  0.54437  0.86247  1.0000
  C   C1372     1.0  0.42244  0.87174  0.75726  1.0000
  Fe  Fe190     1.0  0.63331  0.56865  0.84674  1.0000
  C   C1373     1.0  0.40022  0.92084  0.91416  1.0000
  S   S369      1.0  0.57440  0.57867  0.86543  1.0000
  S   S370      1.0  0.62938  0.60436  0.84793  1.0000
  C   C1374     1.0  0.33869  0.86475  0.91053  1.0000
  S   S371      1.0  0.63518  0.96268  0.84498  1.0000
  C   C1375     1.0  0.36861  0.94288  0.88707  1.0000
  Fe  Fe191     1.0  0.42826  0.89857  0.86199  1.0000
  S   S372      1.0  0.46126  0.92342  0.86206  1.0000
  S   S373      1.0  0.40628  0.87504  0.88774  1.0000
  Fe  Fe192     1.0  0.43412  0.91935  0.82440  1.0000
  S   S374      1.0  0.46747  0.94600  0.82149  1.0000
  S   S375      1.0  0.42306  0.92478  0.80003  1.0000
  Fe  Fe193     1.0  0.47630  0.91614  0.83741  1.0000
  S   S376      1.0  0.51317  0.91499  0.82867  1.0000
  Fe  Fe194     1.0  0.44969  0.95091  0.84621  1.0000
  C   C1376     1.0  0.44394  0.87748  0.78373  1.0000
  S   S377      1.0  0.44425  0.88866  0.83838  1.0000
  S   S378      1.0  0.41550  0.92693  0.84805  1.0000
  H   H1656     1.0  0.62719  0.55641  0.74767  1.0000
  C   C1377     1.0  0.35471  0.96660  0.75841  1.0000
  C   C1378     1.0  0.37400  0.89382  0.94959  1.0000
  H   H1657     1.0  0.64758  0.90781  0.90984  1.0000
  C   C1379     1.0  0.37903  0.96608  0.88672  1.0000
  H   H1658     1.0  0.49904  0.97515  0.83863  1.0000
  H   H1659     1.0  0.40318  0.97048  0.81103  1.0000
  H   H1660     1.0  0.33651  0.91695  0.89104  1.0000
  H   H1661     1.0  0.41600  0.97434  0.83710  1.0000
  C   C1380     1.0  0.36908  0.86744  0.80746  1.0000
  C   C1381     1.0  0.38746  0.88341  0.81022  1.0000
  C   C1382     1.0  0.39964  0.90443  0.79753  1.0000
  C   C1383     1.0  0.37442  0.89401  0.77980  1.0000
  H   H1662     1.0  0.39236  0.87929  0.82202  1.0000
  C   C1384     1.0  0.36269  0.87260  0.79215  1.0000
  C   C1385     1.0  0.65964  0.91426  0.80170  1.0000
  S   S379      1.0  0.35963  0.99840  0.77750  1.0000
  C   C1386     1.0  0.36269  0.92407  0.82985  1.0000
  C   C1387     1.0  0.56311  0.86363  0.86511  1.0000
  H   H1663     1.0  0.63185  0.84873  0.93579  1.0000
  H   H1664     1.0  0.65373  0.89276  0.82734  1.0000
  C   C1388     1.0  0.36211  0.86542  0.90769  1.0000
  C   C1389     1.0  0.37663  0.87232  0.89098  1.0000
  C   C1390     1.0  0.36744  0.87746  0.87709  1.0000
  C   C1391     1.0  0.43118  0.99788  0.85049  1.0000
  H   H1665     1.0  0.39541  0.84479  0.77841  1.0000
  H   H1666     1.0  0.36904  0.86078  0.91844  1.0000
  H   H1667     1.0  0.37836  0.88211  0.86417  1.0000
  H   H1668     1.0  0.43883  0.97180  0.77816  1.0000
  C   C1392     1.0  0.59881  0.61819  0.79850  1.0000
  C   C1393     1.0  0.60765  0.63761  0.78400  1.0000
  C   C1394     1.0  0.61343  0.63407  0.76766  1.0000
  C   C1395     1.0  0.60959  0.61106  0.76580  1.0000
  C   C1396     1.0  0.60009  0.59163  0.78024  1.0000
  C   C1397     1.0  0.59494  0.59520  0.79661  1.0000
  H   H1669     1.0  0.61008  0.65538  0.78542  1.0000
  H   H1670     1.0  0.33462  0.90166  0.94500  1.0000
  H   H1671     1.0  0.59692  0.57381  0.77881  1.0000
  H   H1672     1.0  0.58760  0.58014  0.80770  1.0000
  C   C1398     1.0  0.34115  0.97368  0.89418  1.0000
  C   C1399     1.0  0.51039  0.97108  0.86742  1.0000
  H   H1673     1.0  0.52730  0.90982  0.88526  1.0000
  C   C1400     1.0  0.51801  0.97924  0.83695  1.0000
  C   C1401     1.0  0.53938  0.85981  0.86792  1.0000
  C   C1402     1.0  0.36580  0.92897  0.95519  1.0000
  H   H1674     1.0  0.35782  0.91839  0.80647  1.0000
  C   C1403     1.0  0.52981  0.86143  0.85412  1.0000
  H   H1675     1.0  0.37488  0.99925  0.88929  1.0000
  H   H1676     1.0  0.37906  0.93119  0.88409  1.0000
  C   C1404     1.0  0.39141  0.93099  0.92719  1.0000
  H   H1677     1.0  0.65496  0.56740  0.76332  1.0000
  H   H1678     1.0  0.51139  0.85909  0.85630  1.0000
  H   H1679     1.0  0.35990  0.85100  0.81717  1.0000
  C   C1405     1.0  0.43022  0.95718  0.89911  1.0000
  C   C1406     1.0  0.58324  0.98564  0.85847  1.0000
  H   H1680     1.0  0.52844  0.85616  0.88078  1.0000
  Fe  Fe195     1.0  0.66265  0.96717  0.85879  1.0000
  C   C1407     1.0  0.55901  0.92223  0.86503  1.0000
  C   C1408     1.0  0.53491  0.91460  0.87158  1.0000
  C   C1409     1.0  0.52064  0.91256  0.86053  1.0000
  C   C1410     1.0  0.53042  0.91833  0.84287  1.0000
  C   C1411     1.0  0.55446  0.92651  0.83630  1.0000
  C   C1412     1.0  0.56877  0.92834  0.84734  1.0000
  C   C1413     1.0  0.65644  0.89312  0.81400  1.0000
  H   H1681     1.0  0.50213  0.90592  0.86574  1.0000
  H   H1682     1.0  0.56197  0.93148  0.82263  1.0000
  H   H1683     1.0  0.58731  0.93452  0.84218  1.0000
  S   S380      1.0  0.55169  0.51052  0.87237  1.0000
  S   S381      1.0  0.65713  0.93993  0.80774  1.0000
  N   N94       1.0  0.42364  0.99706  0.78789  1.0000
  C   C1414     1.0  0.63404  0.62644  0.89385  1.0000
  C   C1415     1.0  0.63548  0.63678  0.90742  1.0000
  N   N95       1.0  0.52465  0.98838  0.85098  1.0000
  N   N96       1.0  0.64672  0.81443  0.92099  1.0000
  H   H1684     1.0  0.36041  0.94516  0.95072  1.0000
  H   H1685     1.0  0.62173  0.63004  0.91921  1.0000
  C   C1416     1.0  0.46571  0.53130  0.81838  1.0000
  S   S382      1.0  0.57644  0.92430  0.87920  1.0000
  C   C1417     1.0  0.41211  0.85769  0.77445  1.0000
  H   H1686     1.0  0.65566  0.66348  0.91639  1.0000
  H   H1687     1.0  0.43014  0.98629  0.91028  1.0000
  H   H1688     1.0  0.65417  0.91396  0.93715  1.0000
  H   H1689     1.0  0.38677  0.98571  0.79971  1.0000
  C   C1418     1.0  0.34389  0.87598  0.87992  1.0000
  H   H1690     1.0  0.38250  0.99070  0.83663  1.0000
  H   H1691     1.0  0.51226  0.55971  0.80119  1.0000
  C   C1419     1.0  0.52517  0.54859  0.84532  1.0000
  H   H1692     1.0  0.44494  0.96716  0.88833  1.0000
  H   H1693     1.0  0.65352  0.85575  0.81852  1.0000
  C   C1420     1.0  0.35045  0.91249  0.93469  1.0000
  H   H1694     1.0  0.38832  0.83435  0.75496  1.0000
  H   H1695     1.0  0.38086  0.93368  0.96040  1.0000
  H   H1696     1.0  0.64896  0.77856  0.92957  1.0000
  H   H1697     1.0  0.41738  0.99345  0.76381  1.0000
  H   H1698     1.0  0.45175  0.88017  0.79395  1.0000
  H   H1699     1.0  0.33676  0.87969  0.86915  1.0000
  C   C1421     1.0  0.42181  0.96791  0.91149  1.0000
  H   H1700     1.0  0.39015  0.89632  0.95376  1.0000
  H   H1701     1.0  0.44398  0.97545  0.79783  1.0000
  H   H1702     1.0  0.64404  0.58911  0.79082  1.0000
  H   H1703     1.0  0.39803  0.96401  0.79182  1.0000
  C   C1422     1.0  0.50705  0.53224  0.84284  1.0000
  H   H1704     1.0  0.63395  0.66904  0.80392  1.0000
  C   C1423     1.0  0.65190  0.63529  0.87869  1.0000
  N   N97       1.0  0.48227  0.51882  0.82379  1.0000
  C   C1424     1.0  0.42288  0.86053  0.78738  1.0000
  H   H1705     1.0  0.62231  0.65579  0.83474  1.0000
  H   H1706     1.0  0.57058  0.86297  0.87584  1.0000
  C   C1425     1.0  0.40199  0.97857  0.79803  1.0000
  H   H1707     1.0  0.51414  0.97702  0.87861  1.0000
  H   H1708     1.0  0.54367  0.58795  0.80613  1.0000
  C   C1426     1.0  0.65310  0.60165  0.79698  1.0000
  H   H1709     1.0  0.37467  0.88204  0.94095  1.0000
  H   H1710     1.0  0.64145  0.57244  0.90328  1.0000
  H   H1711     1.0  0.51326  0.95329  0.86828  1.0000
  H   H1712     1.0  0.64327  0.61496  0.79793  1.0000
  H   H1713     1.0  0.52628  0.99205  0.82418  1.0000
  H   H1714     1.0  0.62102  0.78274  0.93715  1.0000
  C   C1427     1.0  0.64558  0.67712  0.81042  1.0000
  H   H1715     1.0  0.63143  0.78198  0.91534  1.0000
  C   C1428     1.0  0.66268  0.83768  0.96401  1.0000
  C   C1429     1.0  0.34470  0.93485  0.89096  1.0000
  C   C1430     1.0  0.50134  0.53568  0.82695  1.0000
  H   H1716     1.0  0.45072  0.51886  0.81651  1.0000
  C   C1431     1.0  0.36562  0.98134  0.89025  1.0000
  H   H1717     1.0  0.39766  0.97251  0.88323  1.0000
  Fe  Fe196     1.0  0.61479  0.93214  0.86758  1.0000
  S   S383      1.0  0.45495  0.98660  0.85118  1.0000
  C   C1432     1.0  0.40262  0.95514  0.92532  1.0000
  S   S384      1.0  0.64059  0.93935  0.88264  1.0000
  C   C1433     1.0  0.59828  0.00219  0.84381  1.0000
  H   H1718     1.0  0.39689  0.96459  0.93435  1.0000
  H   H1719     1.0  0.65553  0.67397  0.77650  1.0000
  H   H1720     1.0  0.38071  0.92437  0.82629  1.0000
  H   H1721     1.0  0.49818  0.51684  0.85350  1.0000
  H   H1722     1.0  0.64075  0.69666  0.77792  1.0000
  C   C1434     1.0  0.63657  0.78834  0.92600  1.0000
  H   H1723     1.0  0.52301  0.96266  0.83646  1.0000
  H   H1724     1.0  0.35931  0.88359  0.96105  1.0000
  C   C1435     1.0  0.34372  0.97993  0.76764  1.0000
  H   H1725     1.0  0.49930  0.52212  0.79738  1.0000
  C   C1436     1.0  0.65464  0.65574  0.90584  1.0000
  H   H1726     1.0  0.45925  0.99813  0.77797  1.0000
  C   C1437     1.0  0.53818  0.56864  0.83216  1.0000
  H   H1727     1.0  0.62714  0.81918  0.90242  1.0000
  C   C1438     1.0  0.51517  0.55619  0.81374  1.0000
  H   H1728     1.0  0.41442  0.85005  0.80047  1.0000
  H   H1729     1.0  0.36918  0.89855  0.76829  1.0000
  H   H1730     1.0  0.59014  0.97630  0.86795  1.0000
  H   H1731     1.0  0.35123  0.91735  0.96619  1.0000
  C   C1439     1.0  0.63050  0.82549  0.91357  1.0000
  H   H1732     1.0  0.33788  0.92977  0.78763  1.0000
  H   H1733     1.0  0.64142  0.86094  0.95997  1.0000
  S   S385      1.0  0.33745  0.98594  0.82590  1.0000
  C   C1440     1.0  0.54983  0.99247  0.84864  1.0000
  Fe  Fe197     1.0  0.65663  0.91461  0.87073  1.0000
  C   C1441     1.0  0.53324  0.57242  0.81638  1.0000
  N   N98       1.0  0.58398  0.87833  0.81657  1.0000
  C   C1442     1.0  0.57191  0.88083  0.80289  1.0000
  C   C1443     1.0  0.60111  0.90142  0.81355  1.0000
  C   C1444     1.0  0.59647  0.86018  0.81467  1.0000
  C   C1445     1.0  0.56829  0.87148  0.83408  1.0000
  C   C1446     1.0  0.57735  0.86905  0.84849  1.0000
  C   C1447     1.0  0.54395  0.86730  0.83740  1.0000
  C   C1448     1.0  0.44235  0.98524  0.78538  1.0000
  C   C1449     1.0  0.39544  0.99786  0.84254  1.0000
  H   H1734     1.0  0.55228  0.58117  0.83415  1.0000
  H   H1735     1.0  0.56262  0.89472  0.80335  1.0000
  H   H1736     1.0  0.58424  0.88616  0.78991  1.0000
  H   H1737     1.0  0.55935  0.86381  0.80393  1.0000
  H   H1738     1.0  0.59257  0.91553  0.81515  1.0000
  H   H1739     1.0  0.61307  0.90735  0.80042  1.0000
  H   H1740     1.0  0.61213  0.90086  0.82250  1.0000
  H   H1741     1.0  0.60753  0.85861  0.82357  1.0000
  H   H1742     1.0  0.58424  0.84238  0.81724  1.0000
  H   H1743     1.0  0.60826  0.86451  0.80155  1.0000
  H   H1744     1.0  0.59563  0.87180  0.84698  1.0000
  H   H1745     1.0  0.53536  0.86915  0.82735  1.0000
  H   H1746     1.0  0.61353  0.82137  0.92313  1.0000
  C   C1450     1.0  0.64253  0.83983  0.94192  1.0000
  C   C1451     1.0  0.64788  0.84707  0.95589  1.0000
  S   S386      1.0  0.34019  0.85198  0.78866  1.0000
  H   H1747     1.0  0.63772  0.84510  0.90865  1.0000
  H   H1748     1.0  0.35260  0.90268  0.92478  1.0000
  H   H1749     1.0  0.64672  0.67241  0.85177  1.0000
  H   H1750     1.0  0.54886  0.96732  0.87247  1.0000
  H   H1751     1.0  0.65132  0.62735  0.86827  1.0000
  C   C1452     1.0  0.66013  0.57627  0.89962  1.0000
  C   C1453     1.0  0.65150  0.82229  0.93596  1.0000
  H   H1752     1.0  0.37280  0.96811  0.75718  1.0000
  C   C1454     1.0  0.41935  0.93373  0.90043  1.0000
  H   H1753     1.0  0.62025  0.64911  0.75648  1.0000
  C   C1455     1.0  0.49186  0.50871  0.80997  1.0000
  H   H1754     1.0  0.47362  0.54519  0.80605  1.0000
  H   H1755     1.0  0.52945  0.54544  0.85747  1.0000
  C   C1456     1.0  0.44425  0.88836  0.75390  1.0000
  C   C1457     1.0  0.63858  0.66928  0.82829  1.0000
  H   H1756     1.0  0.56228  0.51389  0.83563  1.0000
  H   H1757     1.0  0.42556  0.92539  0.89069  1.0000
  H   H1758     1.0  0.66020  0.55120  0.88457  1.0000
  Fe  Fe198     1.0  0.65146  0.93630  0.83580  1.0000
  C   C1458     1.0  0.33115  0.94995  0.89436  1.0000
  C   C1459     1.0  0.34226  0.95097  0.75101  1.0000
  C   C1460     1.0  0.66141  0.90249  0.91415  1.0000
  C   C1461     1.0  0.65229  0.67864  0.83791  1.0000
  C   C1462     1.0  0.55936  0.98069  0.86092  1.0000
  H   H1759     1.0  0.65154  0.59124  0.81013  1.0000
  C   C1463     1.0  0.66116  0.56800  0.74998  1.0000
  H   H1760     1.0  0.49158  0.96857  0.86880  1.0000
  H   H1761     1.0  0.47104  0.90451  0.76426  1.0000
  C   C1464     1.0  0.65791  0.69339  0.77394  1.0000
  S   S387      1.0  0.65865  0.84643  0.78560  1.0000
  C   C1465     1.0  0.65986  0.87263  0.79173  1.0000
  H   H1762     1.0  0.66158  0.62730  0.81666  1.0000
  H   H1763     1.0  0.66082  0.73409  0.78477  1.0000
  H   H1764     1.0  0.66300  0.97777  0.94277  1.0000
  H   H1765     1.0  0.46115  0.50512  0.84996  1.0000
  C   C1466     1.0  0.66351  0.91471  0.78441  1.0000
  C   C1467     1.0  0.99605  0.44357  0.18977  1.0000
  S   S388      1.0  0.74376  0.01366  0.07665  1.0000
  C   C1468     1.0  0.79101  0.48922  0.21970  1.0000
  C   C1469     1.0  0.67188  0.09635  0.10851  1.0000
  C   C1470     1.0  0.71014  0.07550  0.21217  1.0000
  C   C1471     1.0  0.98065  0.11919  0.03130  1.0000
  C   C1472     1.0  0.96836  0.20939  0.20189  1.0000
  H   H1766     1.0  0.84530  0.12771  0.08936  1.0000
  S   S389      1.0  0.80481  0.09415  0.22736  1.0000
  H   H1767     1.0  0.93793  0.23454  0.21308  1.0000
  H   H1768     1.0  0.97035  0.13550  0.05935  1.0000
  C   C1473     1.0  0.73779  0.05870  0.16611  1.0000
  H   H1769     1.0  0.73562  0.07234  0.15623  1.0000
  H   H1770     1.0  0.96446  0.19126  0.23603  1.0000
  S   S390      1.0  0.81851  0.03551  0.22697  1.0000
  H   H1771     1.0  0.91489  0.10808  0.03368  1.0000
  C   C1474     1.0  0.98060  0.30828  0.19694  1.0000
  H   H1772     1.0  0.82987  0.03213  0.13183  1.0000
  S   S391      1.0  0.96925  0.28506  0.14175  1.0000
  C   C1475     1.0  0.84166  0.10239  0.11299  1.0000
  H   H1773     1.0  0.97287  0.29832  0.24572  1.0000
  C   C1476     1.0  0.90530  0.07075  0.04007  1.0000
  C   C1477     1.0  0.95801  0.36947  0.11215  1.0000
  C   C1478     1.0  0.75080  0.01139  0.22043  1.0000
  C   C1479     1.0  0.98125  0.47017  0.17167  1.0000
  Fe  Fe199     1.0  0.76762  0.08546  0.24173  1.0000
  C   C1480     1.0  0.93518  0.35027  0.09634  1.0000
  S   S392      1.0  0.80807  0.03165  0.08179  1.0000
  H   H1774     1.0  0.94696  0.31205  0.11106  1.0000
  Fe  Fe200     1.0  0.83190  0.05310  0.05619  1.0000
  S   S393      1.0  0.85340  0.09092  0.05119  1.0000
  H   H1775     1.0  0.92359  0.20273  0.20103  1.0000
  S   S394      1.0  0.80491  0.04531  0.04212  1.0000
  H   H1776     1.0  0.80296  0.49457  0.22747  1.0000
  Fe  Fe201     1.0  0.97020  0.20414  0.08358  1.0000
  S   S395      1.0  0.94938  0.17770  0.10835  1.0000
  S   S396      1.0  0.97224  0.24302  0.07775  1.0000
  H   H1777     1.0  0.97636  0.48651  0.16871  1.0000
  S   S397      1.0  0.97549  0.14047  0.09510  1.0000
  Fe  Fe202     1.0  0.94373  0.15163  0.09279  1.0000
  S   S398      1.0  0.91204  0.11995  0.10150  1.0000
  H   H1778     1.0  0.93592  0.32495  0.12735  1.0000
  S   S399      1.0  0.96129  0.17912  0.06758  1.0000
  C   C1481     1.0  0.87052  0.09831  0.06485  1.0000
  C   C1482     1.0  0.88381  0.12184  0.06142  1.0000
  C   C1483     1.0  0.89711  0.12854  0.07232  1.0000
  C   C1484     1.0  0.89706  0.11175  0.08680  1.0000
  C   C1485     1.0  0.88405  0.08814  0.09011  1.0000
  C   C1486     1.0  0.87088  0.08140  0.07913  1.0000
  H   H1779     1.0  0.88353  0.13500  0.05041  1.0000
  H   H1780     1.0  0.90689  0.14681  0.06976  1.0000
  H   H1781     1.0  0.88390  0.07506  0.10131  1.0000
  H   H1782     1.0  0.86073  0.06323  0.08185  1.0000
  C   C1487     1.0  0.97634  0.33676  0.07933  1.0000
  H   H1783     1.0  0.98640  0.36790  0.18851  1.0000
  C   C1488     1.0  0.96123  0.29131  0.20859  1.0000
  C   C1489     1.0  0.95855  0.28749  0.22619  1.0000
  H   H1784     1.0  0.97229  0.36970  0.11840  1.0000
  H   H1785     1.0  0.96144  0.38729  0.10324  1.0000
  S   S400      1.0  0.74189  0.09472  0.22765  1.0000
  H   H1786     1.0  0.94842  0.28101  0.20396  1.0000
  S   S401      1.0  0.70196  0.05626  0.13548  1.0000
  C   C1490     1.0  0.76208  0.50064  0.23767  1.0000
  C   C1491     1.0  0.97155  0.25451  0.09560  1.0000
  C   C1492     1.0  0.69638  0.03084  0.23544  1.0000
  H   H1787     1.0  0.80204  0.49162  0.20667  1.0000
  C   C1493     1.0  0.97080  0.27352  0.12388  1.0000
  C   C1494     1.0  0.95851  0.25003  0.12613  1.0000
  C   C1495     1.0  0.95905  0.24049  0.11206  1.0000
  N   N99       1.0  0.95748  0.11713  0.04219  1.0000
  H   H1788     1.0  0.99353  0.28890  0.08063  1.0000
  H   H1789     1.0  0.94848  0.23916  0.13879  1.0000
  H   H1790     1.0  0.94926  0.22248  0.11393  1.0000
  C   C1496     1.0  0.73209  0.03521  0.16554  1.0000
  C   C1497     1.0  0.69327  0.05707  0.21017  1.0000
  Fe  Fe203     1.0  0.78240  0.02114  0.06739  1.0000
  H   H1791     1.0  0.71525  0.09288  0.20323  1.0000
  C   C1498     1.0  0.71418  0.04367  0.11982  1.0000
  C   C1499     1.0  0.73559  0.05617  0.10809  1.0000
  C   C1500     1.0  0.74524  0.04665  0.09515  1.0000
  H   H1792     1.0  0.94204  0.11530  0.06839  1.0000
  H   H1793     1.0  0.99295  0.13680  0.02930  1.0000
  H   H1794     1.0  0.75293  0.48183  0.24467  1.0000
  H   H1795     1.0  0.74464  0.07333  0.10890  1.0000
  H   H1796     1.0  0.76152  0.05653  0.08588  1.0000
  H   H1797     1.0  0.81584  0.02387  0.11638  1.0000
  Fe  Fe204     1.0  0.98242  0.16837  0.10885  1.0000
  C   C1501     1.0  0.94303  0.22211  0.22251  1.0000
  C   C1502     1.0  0.98727  0.19937  0.20146  1.0000
  H   H1798     1.0  0.98464  0.42293  0.15625  1.0000
  H   H1799     1.0  0.76879  0.02323  0.21569  1.0000
  H   H1800     1.0  0.78171  0.01728  0.99846  1.0000
  H   H1801     1.0  0.91123  0.18359  0.22223  1.0000
  C   C1503     1.0  0.77533  0.03136  0.12962  1.0000
  H   H1802     1.0  0.79058  0.06458  0.10175  1.0000
  H   H1803     1.0  0.67666  0.09810  0.09451  1.0000
  H   H1804     1.0  0.97535  0.38521  0.17388  1.0000
  H   H1805     1.0  0.95855  0.23250  0.22515  1.0000
  C   C1504     1.0  0.73384  0.48543  0.21681  1.0000
  Fe  Fe205     1.0  0.67182  0.03093  0.15655  1.0000
  C   C1505     1.0  0.73402  0.01741  0.17852  1.0000
  N   N100      1.0  0.92400  0.10451  0.15321  1.0000
  C   C1506     1.0  0.93024  0.12903  0.14207  1.0000
  C   C1507     1.0  0.94448  0.10147  0.15913  1.0000
  C   C1508     1.0  0.91913  0.08823  0.14242  1.0000
  C   C1509     1.0  0.90381  0.09911  0.16817  1.0000
  C   C1510     1.0  0.89533  0.07613  0.17979  1.0000
  C   C1511     1.0  0.89210  0.11617  0.17174  1.0000
  C   C1512     1.0  0.87627  0.07055  0.19400  1.0000
  C   C1513     1.0  0.87312  0.11040  0.18605  1.0000
  C   C1514     1.0  0.86523  0.08766  0.19713  1.0000
  H   H1806     1.0  0.93537  0.14249  0.14896  1.0000
  H   H1807     1.0  0.94542  0.13231  0.13100  1.0000
  H   H1808     1.0  0.91594  0.13246  0.13658  1.0000
  H   H1809     1.0  0.96026  0.10630  0.14819  1.0000
  H   H1810     1.0  0.94215  0.08296  0.16639  1.0000
  H   H1811     1.0  0.94839  0.11317  0.16752  1.0000
  H   H1812     1.0  0.90332  0.08945  0.13825  1.0000
  H   H1813     1.0  0.93349  0.09267  0.13053  1.0000
  H   H1814     1.0  0.91668  0.06945  0.14912  1.0000
  H   H1815     1.0  0.90341  0.06229  0.17801  1.0000
  H   H1816     1.0  0.89724  0.13412  0.16371  1.0000
  H   H1817     1.0  0.86990  0.05286  0.20274  1.0000
  H   H1818     1.0  0.86443  0.12363  0.18864  1.0000
  H   H1819     1.0  0.85051  0.08323  0.20821  1.0000
  C   C1515     1.0  0.99461  0.42770  0.17926  1.0000
  H   H1820     1.0  0.71680  0.47784  0.18150  1.0000
  C   C1516     1.0  0.70247  0.02161  0.11864  1.0000
  Fe  Fe206     1.0  0.99353  0.16959  0.07098  1.0000
  H   H1821     1.0  0.89863  0.03289  0.04784  1.0000
  C   C1517     1.0  0.94931  0.18404  0.23154  1.0000
  C   C1518     1.0  0.94596  0.07261  0.04995  1.0000
  C   C1519     1.0  0.71930  0.47889  0.20677  1.0000
  H   H1822     1.0  0.88932  0.06998  0.03642  1.0000
  H   H1823     1.0  0.95070  0.16715  0.22852  1.0000
  C   C1520     1.0  0.81268  0.02561  0.12970  1.0000
  H   H1824     1.0  0.96314  0.15505  0.03391  1.0000
  H   H1825     1.0  0.96606  0.32706  0.12127  1.0000
  H   H1826     1.0  0.66471  0.05016  0.11797  1.0000
  C   C1521     1.0  0.80439  0.07458  0.10561  1.0000
  H   H1827     1.0  0.83598  0.07392  0.13478  1.0000
  H   H1828     1.0  0.96139  0.07243  0.05408  1.0000
  H   H1829     1.0  0.78232  0.02484  0.15948  1.0000
  N   N101      1.0  0.95550  0.35047  0.10321  1.0000
  C   C1522     1.0  0.95085  0.32768  0.11621  1.0000
  C   C1523     1.0  0.75809  0.49517  0.20957  1.0000
  C   C1524     1.0  0.71183  0.01240  0.10544  1.0000
  H   H1830     1.0  0.76426  0.04364  0.13016  1.0000
  H   H1831     1.0  0.93065  0.33498  0.09096  1.0000
  C   C1525     1.0  0.92032  0.09270  0.03852  1.0000
  H   H1832     1.0  0.80451  0.00752  0.13846  1.0000
  C   C1526     1.0  0.97006  0.22744  0.18717  1.0000
  H   H1833     1.0  0.73942  0.02082  0.22665  1.0000
  H   H1834     1.0  0.99306  0.30564  0.10554  1.0000
  H   H1835     1.0  0.93464  0.03442  0.05662  1.0000
  C   C1527     1.0  0.95929  0.11810  0.05956  1.0000
  H   H1836     1.0  0.96168  0.32154  0.08199  1.0000
  H   H1837     1.0  0.99063  0.47643  0.19405  1.0000
  S   S402      1.0  0.84701  0.02385  0.05072  1.0000
  H   H1838     1.0  0.85667  0.11295  0.11545  1.0000
  N   N102      1.0  0.94748  0.20147  0.21662  1.0000
  C   C1528     1.0  0.81688  0.09679  0.09449  1.0000
  H   H1839     1.0  0.75878  0.49368  0.16830  1.0000
  S   S403      1.0  0.98999  0.16195  0.13453  1.0000
  C   C1529     1.0  0.94122  0.09428  0.04340  1.0000
  H   H1840     1.0  0.92858  0.21668  0.23445  1.0000
  H   H1841     1.0  0.78462  0.05596  0.15288  1.0000
  H   H1842     1.0  0.95630  0.23573  0.18641  1.0000
  H   H1843     1.0  0.68550  0.06027  0.19972  1.0000
  H   H1844     1.0  0.75404  0.05261  0.20274  1.0000
  C   C1530     1.0  0.72074  0.07138  0.22543  1.0000
  H   H1845     1.0  0.96722  0.38422  0.19617  1.0000
  H   H1846     1.0  0.93380  0.17919  0.24270  1.0000
  C   C1531     1.0  0.73322  0.02487  0.09369  1.0000
  H   H1847     1.0  0.94905  0.13879  0.02150  1.0000
  C   C1532     1.0  0.68630  0.03471  0.22188  1.0000
  H   H1848     1.0  0.75894  0.01223  0.04322  1.0000
  H   H1849     1.0  0.96712  0.10459  0.06536  1.0000
  H   H1850     1.0  0.97342  0.45962  0.14996  1.0000
  H   H1851     1.0  0.93361  0.13849  0.04272  1.0000
  C   C1533     1.0  0.99647  0.37261  0.08482  1.0000
  S   S404      1.0  0.99034  0.34667  0.15185  1.0000
  C   C1534     1.0  0.95040  0.13819  0.03473  1.0000
  N   N103      1.0  0.79799  0.04163  0.13248  1.0000
  H   H1852     1.0  0.72683  0.02596  0.02158  1.0000
  H   H1853     1.0  0.80942  0.04566  0.15498  1.0000
  C   C1535     1.0  0.98945  0.23507  0.17302  1.0000
  Fe  Fe207     1.0  0.81805  0.01409  0.03873  1.0000
  C   C1536     1.0  0.79345  0.04218  0.15069  1.0000
  C   C1537     1.0  0.98354  0.28750  0.10745  1.0000
  H   H1854     1.0  0.98281  0.31066  0.18338  1.0000
  C   C1538     1.0  0.74176  0.02261  0.19259  1.0000
  H   H1855     1.0  0.93849  0.36674  0.08597  1.0000
  C   C1539     1.0  0.76232  0.01128  0.02975  1.0000
  C   C1540     1.0  0.71383  0.04894  0.23703  1.0000
  C   C1541     1.0  0.74598  0.06453  0.17951  1.0000
  C   C1542     1.0  0.98599  0.43399  0.16491  1.0000
  H   H1856     1.0  0.77727  0.02694  0.11713  1.0000
  C   C1543     1.0  0.92723  0.19019  0.21134  1.0000
  C   C1544     1.0  0.83533  0.11075  0.09824  1.0000
  H   H1857     1.0  0.69098  0.01363  0.24458  1.0000
  H   H1858     1.0  0.76795  0.02988  0.02163  1.0000
  H   H1859     1.0  0.68594  0.09073  0.11331  1.0000
  C   C1545     1.0  0.97506  0.30095  0.23214  1.0000
  H   H1860     1.0  0.81269  0.10295  0.08259  1.0000
  H   H1861     1.0  0.72563  0.03063  0.15516  1.0000
  C   C1546     1.0  0.98369  0.27808  0.09333  1.0000
  C   C1547     1.0  0.72830  0.48190  0.18936  1.0000
  C   C1548     1.0  0.91047  0.04984  0.04655  1.0000
  H   H1862     1.0  0.94220  0.36690  0.12253  1.0000
  H   H1863     1.0  0.75018  0.08282  0.18007  1.0000
  C   C1549     1.0  0.97614  0.35346  0.08915  1.0000
  H   H1864     1.0  0.92999  0.17484  0.20649  1.0000
  C   C1550     1.0  0.97950  0.45495  0.16119  1.0000
  C   C1551     1.0  0.81021  0.06557  0.12088  1.0000
  C   C1552     1.0  0.82958  0.08000  0.12403  1.0000
  H   H1865     1.0  0.98767  0.18548  0.21193  1.0000
  C   C1553     1.0  0.74804  0.04685  0.19259  1.0000
  C   C1554     1.0  0.93076  0.05076  0.05149  1.0000
  H   H1866     1.0  0.70077  0.47240  0.21237  1.0000
  H   H1867     1.0  0.91951  0.34896  0.10646  1.0000
  H   H1868     1.0  0.97974  0.11697  0.01847  1.0000
  H   H1869     1.0  0.76546  0.01438  0.13942  1.0000
  C   C1555     1.0  0.98182  0.38491  0.18540  1.0000
  C   C1556     1.0  0.99564  0.33906  0.06608  1.0000
  H   H1870     1.0  0.72547  0.48338  0.23006  1.0000
  H   H1871     1.0  0.78219  0.46995  0.22524  1.0000
  C   C1557     1.0  0.98940  0.46445  0.18595  1.0000
  H   H1872     1.0  0.68599  0.01180  0.12769  1.0000
  C   C1558     1.0  0.75197  0.49103  0.18193  1.0000
  C   C1559     1.0  0.72279  0.00808  0.03057  1.0000
  H   H1873     1.0  0.98875  0.10593  0.03708  1.0000
  C   C1560     1.0  0.76673  0.49742  0.19186  1.0000
  Fe  Fe208     1.0  0.80320  0.05785  0.24235  1.0000
  S   S405      1.0  0.66511  0.01110  0.22012  1.0000
  H   H1874     1.0  0.67228  0.11405  0.11071  1.0000
  H   H1875     1.0  0.71999  0.01026  0.04382  1.0000
  S   S406      1.0  0.93447  0.26584  0.24050  1.0000
  C   C1561     1.0  0.99410  0.31842  0.22046  1.0000
  H   H1876     1.0  0.99019  0.24889  0.16196  1.0000
  S   S407      1.0  0.82292  0.00592  0.01297  1.0000
  Fe  Fe209     1.0  0.99660  0.31837  0.13905  1.0000
  S   S408      1.0  0.83864  0.14194  0.24511  1.0000
  C   C1562     1.0  0.80241  0.00564  0.23218  1.0000
  C   C1563     1.0  0.99698  0.32192  0.20288  1.0000
  H   H1877     1.0  0.99539  0.32599  0.05883  1.0000
  N   N104      1.0  0.77400  0.50320  0.21958  1.0000
  H   H1878     1.0  0.87040  0.13851  0.48386  1.0000
  C   C1564     1.0  0.91712  0.19844  0.46257  1.0000
  H   H1879     1.0  0.80180  0.07874  0.30362  1.0000
  N   N105      1.0  0.96211  0.50163  0.33527  1.0000
  H   H1880     1.0  0.79255  0.14063  0.32716  1.0000
  S   S409      1.0  0.69328  0.08093  0.35497  1.0000
  H   H1881     1.0  0.86604  0.18465  0.24889  1.0000
  C   C1565     1.0  0.96530  0.46303  0.32915  1.0000
  S   S410      1.0  0.74411  0.08906  0.45992  1.0000
  S   S411      1.0  0.76538  0.04834  0.25519  1.0000
  S   S412      1.0  0.68358  0.02308  0.39135  1.0000
  C   C1566     1.0  0.79163  0.10408  0.32722  1.0000
  C   C1567     1.0  0.71676  0.07622  0.43958  1.0000
  C   C1568     1.0  0.97176  0.43185  0.34971  1.0000
  H   H1882     1.0  0.67378  0.06443  0.26880  1.0000
  Fe  Fe210     1.0  0.77640  0.06437  0.27531  1.0000
  S   S413      1.0  0.77565  0.10093  0.26291  1.0000
  S   S414      1.0  0.75910  0.04489  0.30301  1.0000
  H   H1883     1.0  0.83634  0.11393  0.32641  1.0000
  C   C1569     1.0  0.98415  0.31540  0.31457  1.0000
  C   C1570     1.0  0.76534  0.11664  0.34786  1.0000
  H   H1884     1.0  0.96923  0.30397  0.35792  1.0000
  C   C1571     1.0  0.96843  0.29571  0.31288  1.0000
  S   S415      1.0  0.81444  0.07053  0.26373  1.0000
  Fe  Fe211     1.0  0.94202  0.24789  0.26436  1.0000
  H   H1885     1.0  0.97151  0.47908  0.36551  1.0000
  H   H1886     1.0  0.82049  0.12934  0.28507  1.0000
  Fe  Fe212     1.0  0.94086  0.24035  0.30176  1.0000
  S   S416      1.0  0.95347  0.20783  0.30258  1.0000
  S   S417      1.0  0.93462  0.25260  0.32598  1.0000
  Fe  Fe213     1.0  0.97865  0.22941  0.27764  1.0000
  Fe  Fe214     1.0  0.92921  0.19795  0.28680  1.0000
  S   S418      1.0  0.90960  0.16019  0.28933  1.0000
  S   S419      1.0  0.91390  0.22822  0.28845  1.0000
  C   C1572     1.0  0.78409  0.12212  0.33346  1.0000
  S   S420      1.0  0.97611  0.28170  0.41423  1.0000
  C   C1573     1.0  0.93640  0.28628  0.46572  1.0000
  C   C1574     1.0  0.93875  0.30376  0.45086  1.0000
  C   C1575     1.0  0.95081  0.30246  0.43485  1.0000
  C   C1576     1.0  0.95960  0.28313  0.43371  1.0000
  C   C1577     1.0  0.95653  0.26531  0.44849  1.0000
  C   C1578     1.0  0.94559  0.26725  0.46448  1.0000
  H   H1887     1.0  0.93144  0.31837  0.45174  1.0000
  H   H1888     1.0  0.95304  0.31621  0.42339  1.0000
  H   H1889     1.0  0.96375  0.25061  0.44767  1.0000
  H   H1890     1.0  0.94482  0.25425  0.47580  1.0000
  C   C1579     1.0  0.95315  0.28228  0.34362  1.0000
  H   H1891     1.0  0.94112  0.26954  0.35493  1.0000
  H   H1892     1.0  0.67599  0.09535  0.26616  1.0000
  C   C1580     1.0  0.88409  0.15485  0.47830  1.0000
  H   H1893     1.0  0.84779  0.12878  0.30401  1.0000
  C   C1581     1.0  0.88616  0.17437  0.26596  1.0000
  C   C1582     1.0  0.89135  0.15547  0.27591  1.0000
  C   C1583     1.0  0.88125  0.13225  0.27562  1.0000
  C   C1584     1.0  0.86539  0.12786  0.26596  1.0000
  C   C1585     1.0  0.70032  0.06023  0.43507  1.0000
  H   H1894     1.0  0.70708  0.12064  0.27402  1.0000
  H   H1895     1.0  0.88546  0.11759  0.28312  1.0000
  H   H1896     1.0  0.85763  0.10993  0.26585  1.0000
  C   C1586     1.0  0.96908  0.30180  0.34534  1.0000
  C   C1587     1.0  0.89794  0.19231  0.45645  1.0000
  H   H1897     1.0  0.72293  0.09463  0.43228  1.0000
  H   H1898     1.0  0.66462  0.03518  0.33546  1.0000
  Fe  Fe215     1.0  0.67037  0.05173  0.37811  1.0000
  C   C1588     1.0  0.95313  0.27881  0.32743  1.0000
  H   H1899     1.0  0.75942  0.06234  0.42162  1.0000
  C   C1589     1.0  0.74254  0.02556  0.42480  1.0000
  H   H1900     1.0  0.75137  0.05672  0.35753  1.0000
  C   C1590     1.0  0.76087  0.07499  0.35096  1.0000
  C   C1591     1.0  0.97300  0.44624  0.36079  1.0000
  H   H1901     1.0  0.82148  0.07800  0.31698  1.0000
  H   H1902     1.0  0.89573  0.20453  0.44570  1.0000
  H   H1903     1.0  0.92981  0.21545  0.45650  1.0000
  H   H1904     1.0  0.73878  0.08891  0.36744  1.0000
  C   C1592     1.0  0.83236  0.12415  0.31512  1.0000
  C   C1593     1.0  0.71065  0.07088  0.33991  1.0000
  C   C1594     1.0  0.72523  0.08687  0.32457  1.0000
  C   C1595     1.0  0.73985  0.07908  0.31287  1.0000
  C   C1596     1.0  0.74006  0.05533  0.31658  1.0000
  C   C1597     1.0  0.72523  0.03937  0.33175  1.0000
  C   C1598     1.0  0.71044  0.04705  0.34329  1.0000
  H   H1905     1.0  0.72545  0.10533  0.32190  1.0000
  H   H1906     1.0  0.75130  0.09151  0.30124  1.0000
  H   H1907     1.0  0.73458  0.03053  0.41473  1.0000
  H   H1908     1.0  0.69902  0.03448  0.35487  1.0000
  C   C1599     1.0  0.69191  0.03662  0.44484  1.0000
  C   C1600     1.0  0.70049  0.02884  0.45865  1.0000
  C   C1601     1.0  0.71703  0.04471  0.46301  1.0000
  C   C1602     1.0  0.72489  0.06852  0.45371  1.0000
  H   H1909     1.0  0.95821  0.35914  0.44839  1.0000
  H   H1910     1.0  0.72380  0.03841  0.47347  1.0000
  H   H1911     1.0  0.93511  0.18850  0.48080  1.0000
  H   H1912     1.0  0.96821  0.29361  0.30032  1.0000
  H   H1913     1.0  0.79023  0.11591  0.29472  1.0000
  C   C1603     1.0  0.71379  0.06564  0.27701  1.0000
  S   S421      1.0  0.96765  0.26253  0.27763  1.0000
  H   H1914     1.0  0.78338  0.06523  0.33254  1.0000
  H   H1915     1.0  0.70172  0.06572  0.48802  1.0000
  H   H1916     1.0  0.89384  0.19233  0.26609  1.0000
  H   H1917     1.0  0.84421  0.16743  0.49345  1.0000
  C   C1604     1.0  0.97031  0.46901  0.35623  1.0000
  H   H1918     1.0  0.98302  0.21270  0.32765  1.0000
  H   H1919     1.0  0.96923  0.23417  0.34419  1.0000
  H   H1920     1.0  0.69375  0.06630  0.42437  1.0000
  Fe  Fe216     1.0  0.75143  0.07596  0.48520  1.0000
  H   H1921     1.0  0.98588  0.30119  0.46678  1.0000
  C   C1605     1.0  0.77942  0.08023  0.33646  1.0000
  H   H1922     1.0  0.72873  0.11088  0.26209  1.0000
  H   H1923     1.0  0.72431  0.06473  0.28633  1.0000
  S   S422      1.0  0.98652  0.40042  0.39377  1.0000
  C   C1606     1.0  0.97638  0.36055  0.44188  1.0000
  H   H1924     1.0  0.96046  0.24214  0.37206  1.0000
  C   C1607     1.0  0.67032  0.09186  0.30060  1.0000
  N   N106      1.0  0.99305  0.37453  0.44904  1.0000
  C   C1608     1.0  0.75686  0.04414  0.42861  1.0000
  H   H1925     1.0  0.99140  0.26282  0.38267  1.0000
  C   C1609     1.0  0.98473  0.31838  0.33081  1.0000
  H   H1926     1.0  0.93894  0.49266  0.31981  1.0000
  H   H1927     1.0  0.67420  0.48883  0.30883  1.0000
  H   H1928     1.0  0.77732  0.05413  0.44528  1.0000
  H   H1929     1.0  0.69748  0.08658  0.25297  1.0000
  H   H1930     1.0  0.75955  0.13067  0.35221  1.0000
  H   H1931     1.0  0.97368  0.41412  0.35347  1.0000
  C   C1610     1.0  0.80646  0.12519  0.29708  1.0000
  H   H1932     1.0  0.72622  0.07124  0.26412  1.0000
  H   H1933     1.0  0.80478  0.14254  0.29895  1.0000
  Fe  Fe217     1.0  0.81300  0.10625  0.24974  1.0000
  N   N107      1.0  0.69966  0.08244  0.27897  1.0000
  S   S423      1.0  0.95575  0.21699  0.26197  1.0000
  H   H1934     1.0  0.95973  0.33404  0.47230  1.0000
  C   C1611     1.0  0.96810  0.44030  0.33385  1.0000
  Fe  Fe218     1.0  0.99322  0.31778  0.39623  1.0000
  C   C1612     1.0  0.68380  0.07655  0.29632  1.0000
  C   C1613     1.0  0.87038  0.16997  0.25625  1.0000
  H   H1935     1.0  0.92524  0.48672  0.34224  1.0000
  H   H1936     1.0  0.83064  0.14125  0.31754  1.0000
  H   H1937     1.0  0.97850  0.34245  0.44282  1.0000
  H   H1938     1.0  0.98176  0.44341  0.40190  1.0000
  H   H1939     1.0  0.72560  0.10766  0.28460  1.0000
  C   C1614     1.0  0.81670  0.08953  0.30675  1.0000
  H   H1940     1.0  0.67122  0.10786  0.29134  1.0000
  S   S424      1.0  0.66972  0.01664  0.44085  1.0000
  C   C1615     1.0  0.96595  0.47798  0.34031  1.0000
  H   H1941     1.0  0.77077  0.01280  0.46201  1.0000
  C   C1616     1.0  0.97275  0.34308  0.47737  1.0000
  H   H1942     1.0  0.70296  0.04748  0.27856  1.0000
  C   C1617     1.0  0.71590  0.10642  0.27480  1.0000
  C   C1618     1.0  0.76699  0.03957  0.44197  1.0000
  S   S425      1.0  0.97688  0.34064  0.38056  1.0000
  S   S426      1.0  0.78537  0.06970  0.48686  1.0000
  H   H1943     1.0  0.67540  0.06255  0.46913  1.0000
  H   H1944     1.0  0.96241  0.46874  0.31673  1.0000
  H   H1945     1.0  0.72522  0.02095  0.33466  1.0000
  C   C1619     1.0  0.91990  0.18290  0.47657  1.0000
  S   S427      1.0  0.92305  0.28876  0.48589  1.0000
  N   N108      1.0  0.81140  0.11042  0.31183  1.0000
  H   H1946     1.0  0.69057  0.04297  0.30741  1.0000
  C   C1620     1.0  0.88154  0.17051  0.46424  1.0000
  C   C1621     1.0  0.98938  0.39841  0.44698  1.0000
  C   C1622     1.0  0.85961  0.14670  0.25647  1.0000
  C   C1623     1.0  0.66598  0.05084  0.32558  1.0000
  C   C1624     1.0  0.93946  0.49920  0.33133  1.0000
  H   H1947     1.0  0.72179  0.04540  0.24727  1.0000
  H   H1948     1.0  0.83153  0.09484  0.29513  1.0000
  C   C1625     1.0  0.75373  0.09312  0.35658  1.0000
  H   H1949     1.0  0.69426  0.01053  0.46613  1.0000
  C   C1626     1.0  0.99067  0.36372  0.46731  1.0000
  C   C1627     1.0  0.68610  0.08219  0.26622  1.0000
  H   H1950     1.0  0.86646  0.16581  0.45959  1.0000
  H   H1951     1.0  0.99011  0.40674  0.43349  1.0000
  C   C1628     1.0  0.76315  0.01633  0.45144  1.0000
  C   C1629     1.0  0.68099  0.05565  0.30930  1.0000
  H   H1952     1.0  0.98157  0.25202  0.31468  1.0000
  H   H1953     1.0  0.97883  0.36890  0.42806  1.0000
  H   H1954     1.0  0.97594  0.43954  0.37309  1.0000
  H   H1955     1.0  0.69290  0.09136  0.49063  1.0000
  C   C1630     1.0  0.98356  0.24227  0.34856  1.0000
  C   C1631     1.0  0.97829  0.24691  0.36453  1.0000
  H   H1956     1.0  0.97219  0.39751  0.45512  1.0000
  C   C1632     1.0  0.90327  0.16076  0.48509  1.0000
  H   H1957     1.0  0.99171  0.19311  0.26151  1.0000
  H   H1958     1.0  0.94349  0.15298  0.49017  1.0000
  H   H1959     1.0  0.92705  0.12897  0.48419  1.0000
  C   C1633     1.0  0.99571  0.25863  0.37050  1.0000
  H   H1960     1.0  0.96721  0.42903  0.32523  1.0000
  H   H1961     1.0  0.66590  0.08667  0.47415  1.0000
  C   C1634     1.0  0.97107  0.33335  0.49460  1.0000
  C   C1635     1.0  0.92775  0.13759  0.49477  1.0000
  H   H1962     1.0  0.78342  0.00471  0.25738  1.0000
  H   H1963     1.0  0.99598  0.32832  0.30327  1.0000
  C   C1636     1.0  0.68867  0.07183  0.49600  1.0000
  H   H1964     1.0  0.94848  0.50411  0.36083  1.0000
  Fe  Fe219     1.0  0.73290  0.06381  0.52386  1.0000
  S   S428      1.0  0.76553  0.05657  0.52877  1.0000
  S   S429      1.0  0.69819  0.05799  0.54213  1.0000
  H   H1965     1.0  0.90971  0.14546  0.52546  1.0000
  N   N109      1.0  0.77033  0.50384  0.54503  1.0000
  H   H1966     1.0  0.71913  0.02212  0.59322  1.0000
  C   C1637     1.0  0.82646  0.13726  0.51509  1.0000
  H   H1967     1.0  0.88466  0.11196  0.49897  1.0000
  C   C1638     1.0  0.90037  0.29775  0.57181  1.0000
  S   S430      1.0  0.95752  0.25762  0.51132  1.0000
  H   H1968     1.0  0.95722  0.31757  0.50197  1.0000
  Fe  Fe220     1.0  0.89767  0.20985  0.53147  1.0000
  S   S431      1.0  0.90336  0.24736  0.53369  1.0000
  S   S432      1.0  0.86492  0.18005  0.54553  1.0000
  C   C1639     1.0  0.90753  0.28307  0.58366  1.0000
  Fe  Fe221     1.0  0.93694  0.24405  0.53889  1.0000
  S   S433      1.0  0.94946  0.25219  0.56135  1.0000
  C   C1640     1.0  0.88392  0.28792  0.56423  1.0000
  S   S434      1.0  0.93001  0.20587  0.53856  1.0000
  H   H1969     1.0  0.90527  0.24788  0.59663  1.0000
  H   H1970     1.0  0.87393  0.21595  0.61124  1.0000
  C   C1641     1.0  0.66547  0.00884  0.58720  1.0000
  C   C1642     1.0  0.70548  0.02263  0.58699  1.0000
  Fe  Fe222     1.0  0.92343  0.25761  0.50603  1.0000
  H   H1971     1.0  0.90466  0.21430  0.58790  1.0000
  C   C1643     1.0  0.85523  0.21328  0.57597  1.0000
  C   C1644     1.0  0.97802  0.30986  0.57579  1.0000
  H   H1972     1.0  0.70822  0.00722  0.54799  1.0000
  H   H1973     1.0  0.97137  0.27194  0.58439  1.0000
  C   C1645     1.0  0.97532  0.32869  0.56401  1.0000
  C   C1646     1.0  0.96425  0.32393  0.55148  1.0000
  C   C1647     1.0  0.95661  0.30062  0.55031  1.0000
  C   C1648     1.0  0.95917  0.28178  0.56216  1.0000
  C   C1649     1.0  0.96962  0.28645  0.57502  1.0000
  S   S435      1.0  0.98448  0.35826  0.56493  1.0000
  H   H1974     1.0  0.96162  0.33842  0.54262  1.0000
  H   H1975     1.0  0.94825  0.29720  0.54053  1.0000
  S   S436      1.0  0.91483  0.22048  0.50338  1.0000
  H   H1976     1.0  0.69141  0.06889  0.50897  1.0000
  H   H1977     1.0  0.75991  0.46663  0.54633  1.0000
  H   H1978     1.0  0.98403  0.15803  0.73751  1.0000
  H   H1979     1.0  0.98970  0.46937  0.57675  1.0000
  H   H1980     1.0  0.88953  0.11154  0.51946  1.0000
  H   H1981     1.0  0.83979  0.21984  0.57918  1.0000
  H   H1982     1.0  0.89411  0.16471  0.51692  1.0000
  H   H1983     1.0  0.66594  0.03425  0.52757  1.0000
  H   H1984     1.0  0.84753  0.22077  0.60751  1.0000
  N   N110      1.0  0.87263  0.22165  0.58489  1.0000
  C   C1650     1.0  0.71171  0.48454  0.57794  1.0000
  H   H1985     1.0  0.78908  0.48183  0.53414  1.0000
  H   H1986     1.0  0.90793  0.31678  0.56829  1.0000
  H   H1987     1.0  0.78141  0.47478  0.55716  1.0000
  C   C1651     1.0  0.82237  0.12826  0.53277  1.0000
  C   C1652     1.0  0.83370  0.14180  0.54210  1.0000
  C   C1653     1.0  0.84929  0.16430  0.53382  1.0000
  C   C1654     1.0  0.88174  0.24779  0.58033  1.0000
  C   C1655     1.0  0.85270  0.17355  0.51628  1.0000
  H   H1988     1.0  0.81113  0.11060  0.53912  1.0000
  H   H1989     1.0  0.83084  0.13452  0.55568  1.0000
  H   H1990     1.0  0.86212  0.25698  0.56191  1.0000
  Fe  Fe223     1.0  0.78386  0.08970  0.50704  1.0000
  H   H1991     1.0  0.93041  0.12496  0.50557  1.0000
  H   H1992     1.0  0.87862  0.29942  0.55483  1.0000
  C   C1656     1.0  0.71041  0.03770  0.57048  1.0000
  C   C1657     1.0  0.69271  0.03888  0.56256  1.0000
  H   H1993     1.0  0.92485  0.17227  0.50941  1.0000
  H   H1994     1.0  0.98577  0.33620  0.51564  1.0000
  C   C1658     1.0  0.88692  0.12298  0.50804  1.0000
  H   H1995     1.0  0.72778  0.04882  0.56407  1.0000
  H   H1996     1.0  0.92075  0.29080  0.58922  1.0000
  C   C1659     1.0  0.77539  0.48075  0.54569  1.0000
  C   C1660     1.0  0.89187  0.21102  0.58046  1.0000
  H   H1997     1.0  0.74887  0.49650  0.52804  1.0000
  H   H1998     1.0  0.98072  0.50117  0.64116  1.0000
  H   H1999     1.0  0.86261  0.21885  0.56184  1.0000
  C   C1661     1.0  0.67024  0.02447  0.57093  1.0000
  C   C1662     1.0  0.89850  0.25847  0.58782  1.0000
  Fe  Fe224     1.0  0.94781  0.21984  0.51057  1.0000
  H   H2000     1.0  0.85371  0.19289  0.60735  1.0000
  H   H2001     1.0  0.88563  0.19149  0.58264  1.0000
  Fe  Fe225     1.0  0.76428  0.03758  0.50814  1.0000
  H   H2002     1.0  0.84896  0.19357  0.57944  1.0000
  C   C1663     1.0  0.86149  0.21244  0.60355  1.0000
  H   H2003     1.0  0.90153  0.21861  0.56676  1.0000
  C   C1664     1.0  0.71655  0.49513  0.59063  1.0000
  C   C1665     1.0  0.87456  0.26333  0.56844  1.0000
  S   S437      1.0  0.81671  0.11961  0.50202  1.0000
  H   H2004     1.0  0.98890  0.27424  0.53256  1.0000
  C   C1666     1.0  0.90889  0.15734  0.51350  1.0000
  S   S438      1.0  0.97138  0.20133  0.49765  1.0000
  H   H2005     1.0  0.98615  0.31333  0.58567  1.0000
  C   C1667     1.0  0.98958  0.48119  0.58498  1.0000
  H   H2006     1.0  0.87041  0.12734  0.51251  1.0000
  C   C1668     1.0  0.99586  0.49063  0.61084  1.0000
  H   H2007     1.0  0.86431  0.19098  0.50976  1.0000
  C   C1669     1.0  0.84129  0.16013  0.50704  1.0000
  H   H2008     1.0  0.99170  0.23726  0.72630  1.0000
  C   C1670     1.0  0.72917  0.48742  0.56322  1.0000
  S   S439      1.0  0.73051  0.04233  0.50500  1.0000
  H   H2009     1.0  0.69419  0.47447  0.57936  1.0000
  C   C1671     1.0  0.75207  0.50137  0.56064  1.0000
  C   C1672     1.0  0.99486  0.47505  0.60050  1.0000
  C   C1673     1.0  0.68305  0.00807  0.59531  1.0000
  S   S440      1.0  0.75103  0.09818  0.50374  1.0000
  H   H2010     1.0  0.72447  0.47885  0.55377  1.0000
  N   N111      1.0  0.90645  0.14481  0.50009  1.0000
  H   H2011     1.0  0.70281  0.49332  0.60184  1.0000
  C   C1674     1.0  0.98461  0.50267  0.57996  1.0000
  H   H2012     1.0  0.98454  0.19567  0.74132  1.0000
  C   C1675     1.0  0.98701  0.34384  0.50233  1.0000
  H   H2013     1.0  0.99573  0.24723  0.53048  1.0000
  N   N112      1.0  0.66499  0.05943  0.49616  1.0000
  S   S441      1.0  0.84207  0.02586  0.83066  1.0000
  H   H2014     1.0  0.89336  0.02288  0.82624  1.0000
  Fe  Fe226     1.0  0.98187  0.14967  0.83003  1.0000
  S   S442      1.0  0.89945  0.06228  0.79461  1.0000
  S   S443      1.0  0.78893  0.04859  0.82976  1.0000
  C   C1676     1.0  0.89358  0.00510  0.83341  1.0000
  H   H2015     1.0  0.96419  0.11835  0.80343  1.0000
  C   C1677     1.0  0.91341  0.07768  0.80733  1.0000
  C   C1678     1.0  0.90333  0.07400  0.82477  1.0000
  C   C1679     1.0  0.91538  0.08583  0.83457  1.0000
  C   C1680     1.0  0.93742  0.10187  0.82698  1.0000
  C   C1681     1.0  0.94720  0.10615  0.80941  1.0000
  C   C1682     1.0  0.93532  0.09396  0.79969  1.0000
  H   H2016     1.0  0.88624  0.06210  0.83068  1.0000
  H   H2017     1.0  0.90762  0.08242  0.84813  1.0000
  H   H2018     1.0  0.94323  0.09698  0.78620  1.0000
  Fe  Fe227     1.0  0.81231  0.02801  0.81953  1.0000
  H   H2019     1.0  0.96595  0.06386  0.82550  1.0000
  S   S444      1.0  0.96822  0.22836  0.81188  1.0000
  C   C1683     1.0  0.75916  0.03470  0.83838  1.0000
  C   C1684     1.0  0.74519  0.04773  0.84519  1.0000
  C   C1685     1.0  0.72131  0.03780  0.85169  1.0000
  S   S445      1.0  0.95234  0.11559  0.83998  1.0000
  H   H2020     1.0  0.75286  0.06569  0.84532  1.0000
  H   H2021     1.0  0.71071  0.04811  0.85689  1.0000
  C   C1686     1.0  0.76982  0.00507  0.97901  1.0000
  S   S446      1.0  0.83446  0.04060  0.79244  1.0000
  Fe  Fe228     1.0  0.86374  0.03546  0.80368  1.0000
  H   H2022     1.0  0.94946  0.26740  0.80783  1.0000
  C   C1687     1.0  0.97796  0.25668  0.81482  1.0000
  Fe  Fe229     1.0  0.98822  0.20231  0.81781  1.0000
  C   C1688     1.0  0.91676  0.02157  0.85137  1.0000
  H   H2023     1.0  0.98648  0.29263  0.85718  1.0000
  C   C1689     1.0  0.74907  0.01143  0.83830  1.0000
  H   H2024     1.0  0.77227  0.00753  0.78801  1.0000
  C   C1690     1.0  0.75328  0.02981  0.79737  1.0000
  H   H2025     1.0  0.69526  0.01556  0.81396  1.0000
  H   H2026     1.0  0.94208  0.04301  0.88018  1.0000
  C   C1691     1.0  0.93403  0.03600  0.83628  1.0000
  C   C1692     1.0  0.92050  0.02422  0.86724  1.0000
  C   C1693     1.0  0.95619  0.05502  0.85292  1.0000
  H   H2027     1.0  0.93268  0.03558  0.82359  1.0000
  S   S447      1.0  0.98746  0.17386  0.80411  1.0000
  H   H2028     1.0  0.76873  0.04402  0.79534  1.0000
  H   H2029     1.0  0.96078  0.30698  0.81257  1.0000
  H   H2030     1.0  0.78636  0.01366  0.96961  1.0000
  H   H2031     1.0  0.90822  0.01374  0.87924  1.0000
  C   C1694     1.0  0.95341  0.05241  0.83716  1.0000
  C   C1695     1.0  0.93987  0.04083  0.86794  1.0000
  C   C1696     1.0  0.71193  0.01377  0.80786  1.0000
  C   C1697     1.0  0.97131  0.29501  0.81461  1.0000
  C   C1698     1.0  0.99101  0.30197  0.82009  1.0000
  C   C1699     1.0  0.96488  0.27257  0.81194  1.0000
  N   N113      1.0  0.90261  0.15496  0.83015  1.0000
  C   C1700     1.0  0.89431  0.17631  0.83019  1.0000
  C   C1701     1.0  0.90637  0.14593  0.84710  1.0000
  C   C1702     1.0  0.92538  0.16260  0.81721  1.0000
  C   C1703     1.0  0.88517  0.13640  0.82686  1.0000
  C   C1704     1.0  0.86258  0.12719  0.83819  1.0000
  C   C1705     1.0  0.88992  0.12679  0.81266  1.0000
  C   C1706     1.0  0.84586  0.10948  0.83551  1.0000
  C   C1707     1.0  0.87301  0.10918  0.81006  1.0000
  C   C1708     1.0  0.85108  0.10048  0.82148  1.0000
  H   H2032     1.0  0.87836  0.17280  0.84063  1.0000
  H   H2033     1.0  0.90745  0.19096  0.83198  1.0000
  H   H2034     1.0  0.89050  0.18310  0.81785  1.0000
  H   H2035     1.0  0.89092  0.14284  0.85786  1.0000
  H   H2036     1.0  0.92085  0.15846  0.84945  1.0000
  H   H2037     1.0  0.91077  0.12879  0.84804  1.0000
  H   H2038     1.0  0.92403  0.17019  0.80416  1.0000
  H   H2039     1.0  0.93800  0.17667  0.82001  1.0000
  H   H2040     1.0  0.93324  0.14768  0.81702  1.0000
  H   H2041     1.0  0.85772  0.13349  0.84932  1.0000
  H   H2042     1.0  0.90668  0.13214  0.80354  1.0000
  H   H2043     1.0  0.82875  0.10251  0.84438  1.0000
  H   H2044     1.0  0.87707  0.10177  0.79930  1.0000
  H   H2045     1.0  0.83812  0.08658  0.81952  1.0000
  H   H2046     1.0  0.97083  0.06842  0.85345  1.0000
  C   C1709     1.0  0.73173  0.03234  0.80457  1.0000
  H   H2047     1.0  0.98131  0.25012  0.85892  1.0000
  S   S448      1.0  0.98008  0.17800  0.84399  1.0000
  H   H2048     1.0  0.87575  0.02945  0.85503  1.0000
  H   H2049     1.0  0.73046  0.04843  0.80815  1.0000
  C   C1710     1.0  0.71105  0.01479  0.85133  1.0000
  C   C1711     1.0  0.99129  0.25831  0.86649  1.0000
  H   H2050     1.0  0.98620  0.16843  0.76397  1.0000
  C   C1712     1.0  0.87495  0.01057  0.86016  1.0000
  C   C1713     1.0  0.75512  0.00869  0.79344  1.0000
  C   C1714     1.0  0.99426  0.28229  0.86540  1.0000
  H   H2051     1.0  0.87300  0.00726  0.87413  1.0000
  N   N114      1.0  0.89547  0.00475  0.85100  1.0000
  C   C1715     1.0  0.76683  0.00701  0.99578  1.0000
  H   H2052     1.0  0.99682  0.20984  0.90816  1.0000
  S   S449      1.0  0.82842  0.97612  0.09593  1.0000
  C   C1716     1.0  0.77975  0.93956  0.02374  1.0000
  Fe  Fe230     1.0  0.71422  0.74120  0.17247  1.0000
  S   S450      1.0  0.74033  0.73057  0.18519  1.0000
  S   S451      1.0  0.70261  0.77373  0.17447  1.0000
  Fe  Fe231     1.0  0.70762  0.69842  0.15784  1.0000
  S   S452      1.0  0.73344  0.68458  0.16911  1.0000
  Fe  Fe232     1.0  0.71650  0.69387  0.19243  1.0000
  C   C1717     1.0  0.75506  0.69400  0.00223  1.0000
  Fe  Fe233     1.0  0.75442  0.72256  0.16051  1.0000
  S   S453      1.0  0.79194  0.73508  0.14654  1.0000
  H   H2053     1.0  0.68456  0.63974  0.12687  1.0000
  S   S454      1.0  0.73000  0.73589  0.14723  1.0000
  C   C1718     1.0  0.80578  0.99260  0.22016  1.0000
  Fe  Fe234     1.0  0.75873  0.68116  0.06320  1.0000
  S   S455      1.0  0.76732  0.71749  0.04534  1.0000
  S   S456      1.0  0.72121  0.66402  0.07670  1.0000
  Fe  Fe235     1.0  0.80909  0.68207  0.05890  1.0000
  S   S457      1.0  0.82165  0.71810  0.04043  1.0000
  S   S458      1.0  0.83372  0.66278  0.06783  1.0000
  Fe  Fe236     1.0  0.79465  0.72691  0.05861  1.0000
  S   S459      1.0  0.80394  0.76023  0.06672  1.0000
  Fe  Fe237     1.0  0.79322  0.70496  0.02890  1.0000
  H   H2054     1.0  0.88937  0.68313  0.03723  1.0000
  S   S460      1.0  0.78381  0.69175  0.07793  1.0000
  S   S461      1.0  0.78277  0.66777  0.04581  1.0000
  Fe  Fe238     1.0  0.95154  0.71420  0.08093  1.0000
  H   H2055     1.0  0.75839  0.97467  0.20962  1.0000
  S   S462      1.0  0.91916  0.72622  0.08360  1.0000
  C   C1719     1.0  0.69077  0.58828  0.21049  1.0000
  H   H2056     1.0  0.78529  0.87439  0.01500  1.0000
  H   H2057     1.0  0.94502  0.71843  0.00127  1.0000
  S   S463      1.0  0.96966  0.70449  0.10113  1.0000
  S   S464      1.0  0.95398  0.68344  0.07025  1.0000
  Fe  Fe239     1.0  0.75472  0.88479  0.19736  1.0000
  S   S465      1.0  0.77466  0.92201  0.19558  1.0000
  S   S466      1.0  0.77082  0.85651  0.19066  1.0000
  Fe  Fe240     1.0  0.70846  0.89311  0.20944  1.0000
  S   S467      1.0  0.72355  0.93051  0.20915  1.0000
  H   H2058     1.0  0.71062  0.82391  0.23730  1.0000
  Fe  Fe241     1.0  0.74742  0.93275  0.18421  1.0000
  S   S468      1.0  0.75127  0.96379  0.16250  1.0000
  Fe  Fe242     1.0  0.74933  0.91709  0.22076  1.0000
  H   H2059     1.0  0.71956  0.67823  0.00327  1.0000
  S   S469      1.0  0.73010  0.89642  0.18338  1.0000
  S   S470      1.0  0.73166  0.87890  0.22361  1.0000
  H   H2060     1.0  0.77326  0.63696  0.18515  1.0000
  C   C1720     1.0  0.69169  0.73195  0.22048  1.0000
  C   C1721     1.0  0.77149  0.96426  0.14417  1.0000
  C   C1722     1.0  0.76857  0.97349  0.12814  1.0000
  C   C1723     1.0  0.78575  0.97628  0.11330  1.0000
  C   C1724     1.0  0.80603  0.97015  0.11446  1.0000
  C   C1725     1.0  0.80863  0.96009  0.13049  1.0000
  C   C1726     1.0  0.79126  0.95704  0.14539  1.0000
  H   H2061     1.0  0.75308  0.97872  0.12717  1.0000
  H   H2062     1.0  0.73366  0.97371  0.05189  1.0000
  H   H2063     1.0  0.82432  0.95531  0.13139  1.0000
  H   H2064     1.0  0.79361  0.95003  0.15780  1.0000
  Fe  Fe243     1.0  0.66574  0.53874  0.13018  1.0000
  C   C1727     1.0  0.79206  0.96923  0.22360  1.0000
  H   H2065     1.0  0.79455  0.95936  0.21419  1.0000
  C   C1728     1.0  0.79549  0.78688  0.02005  1.0000
  C   C1729     1.0  0.73550  0.62504  0.02072  1.0000
  C   C1730     1.0  0.78771  0.85623  0.01690  1.0000
  H   H2066     1.0  0.92157  0.64200  0.20963  1.0000
  H   H2067     1.0  0.77244  0.78819  0.07567  1.0000
  C   C1731     1.0  0.89754  0.73437  0.00641  1.0000
  C   C1732     1.0  0.80641  0.97895  0.01113  1.0000
  H   H2068     1.0  0.78329  0.98336  0.10097  1.0000
  S   S471      1.0  0.80076  0.71367  0.00020  1.0000
  H   H2069     1.0  0.69113  0.92023  0.18849  1.0000
  C   C1733     1.0  0.85778  0.68060  0.07176  1.0000
  C   C1734     1.0  0.87365  0.67013  0.07791  1.0000
  C   C1735     1.0  0.89242  0.68389  0.08178  1.0000
  C   C1736     1.0  0.89538  0.70821  0.07954  1.0000
  C   C1737     1.0  0.87931  0.71857  0.07365  1.0000
  C   C1738     1.0  0.86081  0.70491  0.06949  1.0000
  H   H2070     1.0  0.87134  0.65130  0.07979  1.0000
  H   H2071     1.0  0.90446  0.67564  0.08664  1.0000
  H   H2072     1.0  0.88133  0.73732  0.07208  1.0000
  H   H2073     1.0  0.84860  0.71318  0.06493  1.0000
  C   C1739     1.0  0.79306  0.80977  0.01865  1.0000
  H   H2074     1.0  0.72897  0.99940  0.17756  1.0000
  C   C1740     1.0  0.74479  0.79191  0.09462  1.0000
  H   H2075     1.0  0.73950  0.76390  0.22775  1.0000
  N   N115      1.0  0.92554  0.72579  0.02330  1.0000
  H   H2076     1.0  0.73234  0.62820  0.19915  1.0000
  H   H2077     1.0  0.94159  0.75142  0.03503  1.0000
  C   C1741     1.0  0.96560  0.53685  0.21143  1.0000
  H   H2078     1.0  0.73229  0.64306  0.04685  1.0000
  H   H2079     1.0  0.95239  0.54300  0.20662  1.0000
  C   C1742     1.0  0.79502  0.74237  0.12442  1.0000
  C   C1743     1.0  0.81446  0.75980  0.11328  1.0000
  C   C1744     1.0  0.81695  0.76565  0.09557  1.0000
  C   C1745     1.0  0.80047  0.75343  0.08893  1.0000
  C   C1746     1.0  0.78130  0.73572  0.10008  1.0000
  C   C1747     1.0  0.77832  0.73045  0.11781  1.0000
  H   H2080     1.0  0.82745  0.76900  0.11834  1.0000
  H   H2081     1.0  0.83190  0.77929  0.08701  1.0000
  H   H2082     1.0  0.76869  0.72617  0.09503  1.0000
  H   H2083     1.0  0.76340  0.71675  0.12630  1.0000
  H   H2084     1.0  0.75012  0.62435  0.02653  1.0000
  C   C1748     1.0  0.74844  0.66711  0.21802  1.0000
  C   C1749     1.0  0.76476  0.65774  0.22450  1.0000
  H   H2085     1.0  0.75408  0.68322  0.20767  1.0000
  H   H2086     1.0  0.78297  0.66663  0.21912  1.0000
  C   C1750     1.0  0.72210  0.79681  0.17846  1.0000
  C   C1751     1.0  0.74510  0.79697  0.17722  1.0000
  C   C1752     1.0  0.76002  0.81536  0.18094  1.0000
  C   C1753     1.0  0.75198  0.83361  0.18595  1.0000
  C   C1754     1.0  0.72907  0.83350  0.18698  1.0000
  C   C1755     1.0  0.71431  0.81539  0.18299  1.0000
  H   H2087     1.0  0.75149  0.78308  0.17326  1.0000
  H   H2088     1.0  0.77780  0.81544  0.17995  1.0000
  H   H2089     1.0  0.72250  0.84713  0.19113  1.0000
  H   H2090     1.0  0.69665  0.81558  0.18371  1.0000
  C   C1756     1.0  0.69683  0.58356  0.09693  1.0000
  C   C1757     1.0  0.71962  0.59469  0.08702  1.0000
  C   C1758     1.0  0.72768  0.61951  0.08145  1.0000
  C   C1759     1.0  0.71274  0.63319  0.08544  1.0000
  C   C1760     1.0  0.69010  0.62205  0.09557  1.0000
  C   C1761     1.0  0.68225  0.59728  0.10152  1.0000
  H   H2091     1.0  0.73098  0.58405  0.08360  1.0000
  H   H2092     1.0  0.74522  0.62800  0.07373  1.0000
  H   H2093     1.0  0.67846  0.63255  0.09867  1.0000
  C   C1762     1.0  0.74231  0.75837  0.08261  1.0000
  N   N116      1.0  0.71357  0.62141  0.03385  1.0000
  H   H2094     1.0  0.71717  0.58411  0.16525  1.0000
  C   C1763     1.0  0.79372  0.96029  0.02557  1.0000
  H   H2095     1.0  0.69707  0.70464  0.07482  1.0000
  C   C1764     1.0  0.70965  0.59876  0.04691  1.0000
  H   H2096     1.0  0.70607  0.99735  0.02985  1.0000
  H   H2097     1.0  0.79471  0.96177  0.03813  1.0000
  H   H2098     1.0  0.70028  0.59923  0.21740  1.0000
  H   H2099     1.0  0.80543  0.85791  0.01844  1.0000
  C   C1765     1.0  0.68012  0.58562  0.18469  1.0000
  C   C1766     1.0  0.71666  0.64107  0.04206  1.0000
  N   N117      1.0  0.78457  0.84639  0.00230  1.0000
  C   C1767     1.0  0.78733  0.82217  0.00428  1.0000
  C   C1768     1.0  0.68372  0.81345  0.22551  1.0000
  C   C1769     1.0  0.67291  0.63497  0.13957  1.0000
  S   S472      1.0  0.69296  0.67964  0.14031  1.0000
  S   S473      1.0  0.98681  0.64312  0.23997  1.0000
  H   H2100     1.0  0.75335  0.98284  0.18937  1.0000
  H   H2101     1.0  0.78289  0.81386  0.13248  1.0000
  H   H2102     1.0  0.75792  0.59357  0.15177  1.0000
  C   C1770     1.0  0.68934  0.62330  0.19076  1.0000
  C   C1771     1.0  0.68453  0.51830  0.20785  1.0000
  H   H2103     1.0  0.70662  0.99577  0.21923  1.0000
  N   N118      1.0  0.77307  0.88875  0.13276  1.0000
  C   C1772     1.0  0.75569  0.90230  0.13202  1.0000
  C   C1773     1.0  0.78083  0.89021  0.14828  1.0000
  C   C1774     1.0  0.79298  0.90073  0.11741  1.0000
  C   C1775     1.0  0.76406  0.86346  0.13349  1.0000
  C   C1776     1.0  0.74016  0.85229  0.13649  1.0000
  C   C1777     1.0  0.77921  0.84884  0.13212  1.0000
  C   C1778     1.0  0.73220  0.82818  0.13761  1.0000
  C   C1779     1.0  0.77107  0.82479  0.13318  1.0000
  C   C1780     1.0  0.74762  0.81450  0.13589  1.0000
  H   H2104     1.0  0.74125  0.89599  0.14397  1.0000
  H   H2105     1.0  0.76328  0.92144  0.13070  1.0000
  H   H2106     1.0  0.74856  0.90128  0.12088  1.0000
  H   H2107     1.0  0.76617  0.88191  0.15999  1.0000
  H   H2108     1.0  0.78816  0.90883  0.14830  1.0000
  H   H2109     1.0  0.79422  0.88081  0.14973  1.0000
  H   H2110     1.0  0.78837  0.89819  0.10554  1.0000
  H   H2111     1.0  0.79890  0.92019  0.11574  1.0000
  H   H2112     1.0  0.80837  0.89432  0.11812  1.0000
  H   H2113     1.0  0.72717  0.86159  0.13847  1.0000
  H   H2114     1.0  0.79742  0.85573  0.13073  1.0000
  H   H2115     1.0  0.71384  0.81974  0.14059  1.0000
  C   C1781     1.0  0.99135  0.65030  0.16875  1.0000
  C   C1782     1.0  0.92059  0.62670  0.23566  1.0000
  H   H2116     1.0  0.67359  0.94715  0.17204  1.0000
  H   H2117     1.0  0.85365  0.67302  0.02944  1.0000
  N   N119      1.0  0.81217  0.67379  0.12145  1.0000
  C   C1783     1.0  0.82075  0.69450  0.10627  1.0000
  C   C1784     1.0  0.81416  0.68242  0.13673  1.0000
  C   C1785     1.0  0.82764  0.65815  0.11965  1.0000
  C   C1786     1.0  0.78811  0.66136  0.12246  1.0000
  C   C1787     1.0  0.78341  0.64634  0.11175  1.0000
  C   C1788     1.0  0.76869  0.66526  0.13303  1.0000
  C   C1789     1.0  0.76079  0.63517  0.11218  1.0000
  C   C1790     1.0  0.74613  0.65413  0.13323  1.0000
  C   C1791     1.0  0.74218  0.63904  0.12290  1.0000
  H   H2118     1.0  0.82014  0.68905  0.09438  1.0000
  H   H2119     1.0  0.81008  0.70706  0.10709  1.0000
  H   H2120     1.0  0.83889  0.70450  0.10474  1.0000
  H   H2121     1.0  0.80622  0.69719  0.13741  1.0000
  H   H2122     1.0  0.83248  0.69002  0.13640  1.0000
  H   H2123     1.0  0.80593  0.66798  0.14877  1.0000
  H   H2124     1.0  0.82056  0.64108  0.12978  1.0000
  H   H2125     1.0  0.83058  0.65423  0.10699  1.0000
  H   H2126     1.0  0.84530  0.66666  0.12030  1.0000
  H   H2127     1.0  0.79709  0.64369  0.10247  1.0000
  H   H2128     1.0  0.77050  0.67724  0.14099  1.0000
  H   H2129     1.0  0.75765  0.62388  0.10383  1.0000
  H   H2130     1.0  0.73154  0.65752  0.14122  1.0000
  H   H2131     1.0  0.72467  0.63071  0.12291  1.0000
  H   H2132     1.0  0.94650  0.71272  0.03872  1.0000
  H   H2133     1.0  0.66955  0.76233  0.21452  1.0000
  C   C1792     1.0  0.75844  0.99016  0.19958  1.0000
  C   C1793     1.0  0.77814  0.93746  0.00750  1.0000
  H   H2134     1.0  0.97273  0.59717  0.12657  1.0000
  C   C1794     1.0  0.67334  0.65147  0.14920  1.0000
  H   H2135     1.0  0.71840  0.96169  0.03824  1.0000
  C   C1795     1.0  0.70307  0.52660  0.22988  1.0000
  H   H2136     1.0  0.70173  0.63838  0.05317  1.0000
  C   C1796     1.0  0.69345  0.62097  0.02677  1.0000
  H   H2137     1.0  0.98828  0.65897  0.02044  1.0000
  H   H2138     1.0  0.95418  0.54255  0.23618  1.0000
  C   C1797     1.0  0.75473  0.78039  0.08342  1.0000
  H   H2139     1.0  0.69584  0.57148  0.21201  1.0000
  N   N120      1.0  0.74170  0.99697  0.02644  1.0000
  C   C1798     1.0  0.67084  0.61475  0.03790  1.0000
  S   S474      1.0  0.67652  0.55995  0.14761  1.0000
  C   C1799     1.0  0.98161  0.52916  0.20090  1.0000
  H   H2140     1.0  0.93020  0.69093  0.03093  1.0000
  C   C1800     1.0  0.98235  0.62597  0.06043  1.0000
  C   C1801     1.0  0.88692  0.69616  0.02717  1.0000
  H   H2141     1.0  0.70249  0.99554  0.10435  1.0000
  H   H2142     1.0  0.79846  0.53175  0.19881  1.0000
  C   C1802     1.0  0.73519  0.97295  0.03839  1.0000
  C   C1803     1.0  0.71941  0.74719  0.09303  1.0000
  C   C1804     1.0  0.74558  0.99532  0.00855  1.0000
  H   H2143     1.0  0.73610  0.70794  0.08881  1.0000
  H   H2144     1.0  0.74123  0.79564  0.13743  1.0000
  S   S475      1.0  0.99351  0.71242  0.02417  1.0000
  H   H2145     1.0  0.71116  0.97220  0.01241  1.0000
  N   N121      1.0  0.70368  0.74840  0.22895  1.0000
  H   H2146     1.0  0.70983  0.68753  0.10220  1.0000
  H   H2147     1.0  0.67210  0.58377  0.21724  1.0000
  C   C1805     1.0  0.73394  0.62554  0.24488  1.0000
  H   H2148     1.0  0.69798  0.63453  0.19788  1.0000
  H   H2149     1.0  0.72165  0.78711  0.23966  1.0000
  Fe  Fe244     1.0  0.97478  0.67561  0.08871  1.0000
  H   H2150     1.0  0.67273  0.72582  0.22642  1.0000
  C   C1806     1.0  0.70969  0.75954  0.10424  1.0000
  H   H2151     1.0  0.77446  0.53954  0.21023  1.0000
  H   H2152     1.0  0.68264  0.71304  0.11756  1.0000
  H   H2153     1.0  0.91074  0.74161  0.04224  1.0000
  C   C1807     1.0  0.91080  0.63462  0.22269  1.0000
  H   H2154     1.0  0.99429  0.60888  0.19912  1.0000
  H   H2155     1.0  0.94499  0.74893  0.99816  1.0000
  H   H2156     1.0  0.68254  0.59412  0.17092  1.0000
  S   S476      1.0  0.68625  0.55260  0.10255  1.0000
  S   S477      1.0  0.98385  0.73915  0.06209  1.0000
  H   H2157     1.0  0.78650  0.61985  0.16137  1.0000
  H   H2158     1.0  0.75468  0.80873  0.09546  1.0000
  Fe  Fe245     1.0  0.67616  0.52560  0.16444  1.0000
  C   C1808     1.0  0.83634  0.60605  0.23844  1.0000
  S   S478      1.0  0.75970  0.91163  0.00571  1.0000
  N   N122      1.0  0.69555  0.60063  0.19214  1.0000
  C   C1809     1.0  0.98850  0.60547  0.11635  1.0000
  Fe  Fe246     1.0  0.82107  0.00169  0.07533  1.0000
  H   H2159     1.0  0.75087  0.99626  0.23073  1.0000
  C   C1810     1.0  0.68321  0.71430  0.10393  1.0000
  C   C1811     1.0  0.75750  0.63697  0.23799  1.0000
  H   H2160     1.0  0.74840  0.96355  0.03503  1.0000
  S   S479      1.0  0.68891  0.70498  0.18177  1.0000
  H   H2161     1.0  0.66742  0.50722  0.23487  1.0000
  H   H2162     1.0  0.73863  0.54707  0.22076  1.0000
  H   H2163     1.0  0.75174  0.69175  0.01587  1.0000
  H   H2164     1.0  0.72542  0.70935  0.11034  1.0000
  H   H2165     1.0  0.71904  0.97199  0.22524  1.0000
  C   C1812     1.0  0.87676  0.72799  0.00209  1.0000
  H   H2166     1.0  0.70473  0.58327  0.04177  1.0000
  H   H2167     1.0  0.67049  0.62038  0.19609  1.0000
  H   H2168     1.0  0.96287  0.64793  0.04985  1.0000
  H   H2169     1.0  0.72532  0.59775  0.05132  1.0000
  C   C1813     1.0  0.88721  0.63299  0.22646  1.0000
  C   C1814     1.0  0.78664  0.52859  0.21167  1.0000
  H   H2170     1.0  0.74759  0.83302  0.01163  1.0000
  N   N123      1.0  0.74262  0.00322  0.20654  1.0000
  H   H2171     1.0  0.67468  0.69603  0.10365  1.0000
  H   H2172     1.0  0.71259  0.97784  0.20512  1.0000
  C   C1815     1.0  0.92571  0.74614  0.03078  1.0000
  H   H2173     1.0  0.73360  0.76446  0.20754  1.0000
  S   S480      1.0  0.70398  0.66807  0.21842  1.0000
  C   C1816     1.0  0.72487  0.65603  0.22536  1.0000
  H   H2174     1.0  0.76995  0.92523  0.03497  1.0000
  C   C1817     1.0  0.96678  0.53689  0.22812  1.0000
  C   C1818     1.0  0.72039  0.60551  0.18358  1.0000
  C   C1819     1.0  0.73727  0.62039  0.18881  1.0000
  C   C1820     1.0  0.72859  0.59591  0.16999  1.0000
  C   C1821     1.0  0.76082  0.62553  0.18084  1.0000
  C   C1822     1.0  0.75219  0.60116  0.16211  1.0000
  C   C1823     1.0  0.76826  0.61594  0.16750  1.0000
  H   H2175     1.0  0.98942  0.66441  0.19067  1.0000
  H   H2176     1.0  0.77649  0.00170  0.19426  1.0000
  C   C1824     1.0  0.70542  0.52954  0.19530  1.0000
  H   H2177     1.0  0.79760  0.53570  0.21952  1.0000
  H   H2178     1.0  0.67246  0.72586  0.09991  1.0000
  H   H2179     1.0  0.73395  0.61125  0.01363  1.0000
  C   C1825     1.0  0.72364  0.53885  0.21724  1.0000
  H   H2180     1.0  0.71469  0.79042  0.11383  1.0000
  H   H2181     1.0  0.77485  0.84516  0.02908  1.0000
  Fe  Fe247     1.0  0.98740  0.70763  0.05258  1.0000
  H   H2182     1.0  0.75115  0.74973  0.07422  1.0000
  H   H2183     1.0  0.91637  0.70128  0.04827  1.0000
  S   S481      1.0  0.96745  0.63906  0.10591  1.0000
  C   C1826     1.0  0.72770  0.98172  0.00341  1.0000
  H   H2184     1.0  0.73442  0.73734  0.22117  1.0000
  C   C1827     1.0  0.84493  0.64623  0.24075  1.0000
  H   H2185     1.0  0.93888  0.62795  0.23278  1.0000
  C   C1828     1.0  0.71766  0.63520  0.23871  1.0000
  C   C1829     1.0  0.98380  0.52898  0.23444  1.0000
  H   H2186     1.0  0.71849  0.65826  0.03296  1.0000
  H   H2187     1.0  0.85105  0.65295  0.22660  1.0000
  H   H2188     1.0  0.69257  0.75238  0.11288  1.0000
  H   H2189     1.0  0.72361  0.72704  0.06613  1.0000
  H   H2190     1.0  0.74104  0.54889  0.19028  1.0000
  H   H2191     1.0  0.96211  0.73741  0.01066  1.0000
  H   H2192     1.0  0.67503  0.90993  0.23974  1.0000
  C   C1830     1.0  0.67268  0.91538  0.19035  1.0000
  C   C1831     1.0  0.69569  0.62809  0.00890  1.0000
  H   H2193     1.0  0.69499  0.74045  0.20660  1.0000
  H   H2194     1.0  0.79997  0.77775  0.03108  1.0000
  C   C1832     1.0  0.77498  0.95876  0.23912  1.0000
  S   S482      1.0  0.79353  0.98939  0.06296  1.0000
  C   C1833     1.0  0.70782  0.78889  0.23386  1.0000
  H   H2195     1.0  0.79585  0.81731  0.02899  1.0000
  C   C1834     1.0  0.70150  0.80999  0.23274  1.0000
  N   N124      1.0  0.70731  0.72310  0.09281  1.0000
  H   H2196     1.0  0.74095  0.64279  0.01137  1.0000
  H   H2197     1.0  0.69423  0.63386  0.17715  1.0000
  C   C1835     1.0  0.72230  0.78156  0.10496  1.0000
  H   H2198     1.0  0.81743  0.60413  0.24131  1.0000
  H   H2199     1.0  0.92480  0.76204  0.02161  1.0000
  C   C1836     1.0  0.69673  0.77067  0.22746  1.0000
  H   H2200     1.0  0.79427  0.75798  0.00839  1.0000
  C   C1837     1.0  0.90341  0.71855  0.01896  1.0000
  S   S483      1.0  0.67484  0.99955  0.17522  1.0000
  H   H2201     1.0  0.68302  0.56776  0.18597  1.0000
  C   C1838     1.0  0.72885  0.75377  0.22107  1.0000
  C   C1839     1.0  0.92970  0.70673  0.03582  1.0000
  C   C1840     1.0  0.70625  0.72266  0.07518  1.0000
  C   C1841     1.0  0.72023  0.70638  0.09875  1.0000
  H   H2202     1.0  0.69594  0.59635  0.05875  1.0000
  C   C1842     1.0  0.86116  0.70581  0.01019  1.0000
  C   C1843     1.0  0.86616  0.69002  0.02278  1.0000
  C   C1844     1.0  0.72490  0.54004  0.20000  1.0000
  H   H2203     1.0  0.69722  0.73544  0.07002  1.0000
  H   H2204     1.0  0.86578  0.54617  0.23893  1.0000
  H   H2205     1.0  0.97464  0.63729  0.17422  1.0000
  H   H2206     1.0  0.88037  0.63909  0.21594  1.0000
  S   S484      1.0  0.98075  0.53075  0.17965  1.0000
  H   H2207     1.0  0.66786  0.60999  0.05164  1.0000
  C   C1845     1.0  0.68344  0.51662  0.22514  1.0000
  S   S485      1.0  0.70814  0.52935  0.17386  1.0000
  S   S486      1.0  0.67028  0.87736  0.21630  1.0000
  H   H2208     1.0  0.84330  0.61223  0.22431  1.0000
  H   H2209     1.0  0.66464  0.58875  0.10918  1.0000
  H   H2210     1.0  0.84491  0.70106  0.00697  1.0000
  C   C1846     1.0  0.79230  0.77570  0.00730  1.0000
  H   H2211     1.0  0.75790  0.86389  0.00025  1.0000
  C   C1847     1.0  0.94517  0.73299  0.00766  1.0000
  S   S487      1.0  0.75608  0.93033  0.24323  1.0000
  C   C1848     1.0  0.71923  0.98650  0.21435  1.0000
  H   H2212     1.0  0.77451  0.50684  0.24482  1.0000
  H   H2213     1.0  0.69943  0.62663  0.24443  1.0000
  H   H2214     1.0  0.97123  0.62138  0.07338  1.0000
  H   H2215     1.0  0.81879  0.00071  0.20807  1.0000
  C   C1849     1.0  0.67864  0.77478  0.22014  1.0000
  H   H2216     1.0  0.69769  0.71565  0.22140  1.0000
  S   S488      1.0  0.76716  0.56377  0.24140  1.0000
  H   H2217     1.0  0.71218  0.63396  0.99939  1.0000
  C   C1850     1.0  0.67642  0.62862  0.00269  1.0000
  H   H2218     1.0  0.83861  0.58807  0.24261  1.0000
  C   C1851     1.0  0.99046  0.62636  0.10421  1.0000
  H   H2219     1.0  0.74943  0.51129  0.23857  1.0000
  C   C1852     1.0  0.97761  0.64095  0.04723  1.0000
  H   H2220     1.0  0.66947  0.51008  0.20430  1.0000
  C   C1853     1.0  0.87270  0.62354  0.24346  1.0000
  H   H2221     1.0  0.66702  0.93779  0.21441  1.0000
  H   H2222     1.0  0.90889  0.75191  0.99995  1.0000
  H   H2223     1.0  0.67908  0.82999  0.22443  1.0000
  C   C1854     1.0  0.99191  0.64708  0.03066  1.0000
  C   C1855     1.0  0.67222  0.79583  0.21934  1.0000
  C   C1856     1.0  0.76108  0.84627  0.00066  1.0000
  H   H2224     1.0  0.82642  0.64613  0.24416  1.0000
  H   H2225     1.0  0.78493  0.50459  0.18547  1.0000
  H   H2226     1.0  0.77695  0.00335  0.02761  1.0000
  C   C1857     1.0  0.67727  0.92391  0.24608  1.0000
  S   S489      1.0  0.66806  0.50456  0.14601  1.0000
  C   C1858     1.0  0.73582  0.96412  0.42715  1.0000
  H   H2227     1.0  0.96357  0.54067  0.46773  1.0000
  H   H2228     1.0  0.66943  0.65462  0.39687  1.0000
  Fe  Fe248     1.0  0.78303  0.54442  0.25972  1.0000
  Fe  Fe249     1.0  0.74709  0.54457  0.29098  1.0000
  H   H2229     1.0  0.97603  0.57244  0.35571  1.0000
  S   S490      1.0  0.72593  0.92711  0.47480  1.0000
  C   C1859     1.0  0.98416  0.60025  0.46083  1.0000
  H   H2230     1.0  0.92823  0.57004  0.46638  1.0000
  H   H2231     1.0  0.76892  0.93799  0.48261  1.0000
  N   N125      1.0  0.69111  0.62165  0.45535  1.0000
  Fe  Fe250     1.0  0.92771  0.57072  0.27915  1.0000
  S   S491      1.0  0.94521  0.54573  0.29161  1.0000
  S   S492      1.0  0.88932  0.56446  0.28892  1.0000
  Fe  Fe251     1.0  0.97354  0.60751  0.25936  1.0000
  Fe  Fe252     1.0  0.97026  0.55579  0.26561  1.0000
  Fe  Fe253     1.0  0.96773  0.57782  0.29545  1.0000
  C   C1860     1.0  0.91922  0.58008  0.47404  1.0000
  S   S493      1.0  0.94867  0.60231  0.28462  1.0000
  S   S494      1.0  0.78229  0.56887  0.27660  1.0000
  H   H2232     1.0  0.72820  0.60969  0.25537  1.0000
  H   H2233     1.0  0.69120  0.95404  0.44402  1.0000
  H   H2234     1.0  0.70850  0.96248  0.45761  1.0000
  H   H2235     1.0  0.94491  0.62418  0.45702  1.0000
  C   C1861     1.0  0.90677  0.61692  0.25240  1.0000
  C   C1862     1.0  0.73298  0.68702  0.49097  1.0000
  C   C1863     1.0  0.72467  0.58197  0.38292  1.0000
  H   H2236     1.0  0.89241  0.59870  0.44437  1.0000
  C   C1864     1.0  0.73894  0.59734  0.38975  1.0000
  Fe  Fe254     1.0  0.68636  0.69220  0.47839  1.0000
  C   C1865     1.0  0.70520  0.83143  0.47364  1.0000
  N   N126      1.0  0.72746  0.55839  0.38194  1.0000
  H   H2237     1.0  0.99034  0.62067  0.29651  1.0000
  H   H2238     1.0  0.69060  0.50988  0.28900  1.0000
  C   C1866     1.0  0.97228  0.55901  0.46091  1.0000
  S   S495      1.0  0.73535  0.52798  0.31947  1.0000
  H   H2239     1.0  0.73749  0.54135  0.36218  1.0000
  H   H2240     1.0  0.68584  0.62621  0.48081  1.0000
  H   H2241     1.0  0.72239  0.69800  0.49508  1.0000
  H   H2242     1.0  0.70219  0.97285  0.41382  1.0000
  H   H2243     1.0  0.90424  0.56703  0.48392  1.0000
  Fe  Fe255     1.0  0.76117  0.58605  0.47587  1.0000
  S   S496      1.0  0.75489  0.59302  0.44976  1.0000
  H   H2244     1.0  0.67973  0.73185  0.25376  1.0000
  C   C1867     1.0  0.68178  0.59566  0.46301  1.0000
  S   S497      1.0  0.72090  0.69632  0.46105  1.0000
  H   H2245     1.0  0.70509  0.50567  0.35308  1.0000
  S   S498      1.0  0.72869  0.56487  0.27540  1.0000
  C   C1868     1.0  0.99416  0.58880  0.43452  1.0000
  C   C1869     1.0  0.73235  0.57133  0.44743  1.0000
  C   C1870     1.0  0.72344  0.54906  0.45924  1.0000
  C   C1871     1.0  0.70564  0.53197  0.45698  1.0000
  C   C1872     1.0  0.69597  0.53738  0.44334  1.0000
  C   C1873     1.0  0.70437  0.55994  0.43182  1.0000
  C   C1874     1.0  0.72293  0.57663  0.43364  1.0000
  H   H2246     1.0  0.73058  0.54476  0.46990  1.0000
  C   C1875     1.0  0.89781  0.58597  0.45342  1.0000
  H   H2247     1.0  0.69681  0.56450  0.42144  1.0000
  H   H2248     1.0  0.72958  0.59394  0.42467  1.0000
  C   C1876     1.0  0.67393  0.61479  0.43088  1.0000
  H   H2249     1.0  0.74886  0.83386  0.45629  1.0000
  C   C1877     1.0  0.71408  0.79443  0.46942  1.0000
  C   C1878     1.0  0.73630  0.68437  0.47437  1.0000
  C   C1879     1.0  0.75032  0.67048  0.46905  1.0000
  H   H2250     1.0  0.72743  0.99738  0.40406  1.0000
  H   H2251     1.0  0.70826  0.74617  0.25427  1.0000
  C   C1880     1.0  0.98284  0.56513  0.44333  1.0000
  H   H2252     1.0  0.75355  0.66896  0.45608  1.0000
  H   H2253     1.0  0.76945  0.64618  0.47678  1.0000
  C   C1881     1.0  0.66668  0.54156  0.29061  1.0000
  H   H2254     1.0  0.95817  0.53167  0.34487  1.0000
  H   H2255     1.0  0.69917  0.53839  0.40404  1.0000
  C   C1882     1.0  0.69091  0.77033  0.45527  1.0000
  C   C1883     1.0  0.73515  0.55872  0.36369  1.0000
  C   C1884     1.0  0.73823  0.00162  0.43424  1.0000
  H   H2256     1.0  0.97840  0.53466  0.31576  1.0000
  H   H2257     1.0  0.69119  0.97527  0.26699  1.0000
  H   H2258     1.0  0.74681  0.63087  0.39581  1.0000
  H   H2259     1.0  0.87358  0.60698  0.26955  1.0000
  C   C1885     1.0  0.68534  0.66360  0.41621  1.0000
  H   H2260     1.0  0.72429  0.62076  0.44138  1.0000
  H   H2261     1.0  0.91430  0.61032  0.26244  1.0000
  H   H2262     1.0  0.68646  0.82320  0.47974  1.0000
  H   H2263     1.0  0.89497  0.55758  0.25450  1.0000
  H   H2264     1.0  0.66872  0.59575  0.43588  1.0000
  H   H2265     1.0  0.75943  0.96331  0.26358  1.0000
  Fe  Fe256     1.0  0.76419  0.58666  0.25931  1.0000
  C   C1886     1.0  0.68496  0.63028  0.43934  1.0000
  C   C1887     1.0  0.68191  0.52721  0.35751  1.0000
  C   C1888     1.0  0.70515  0.53985  0.39016  1.0000
  C   C1889     1.0  0.68737  0.56125  0.33396  1.0000
  C   C1890     1.0  0.70561  0.55529  0.32422  1.0000
  C   C1891     1.0  0.71657  0.62793  0.45176  1.0000
  C   C1892     1.0  0.96203  0.51441  0.34878  1.0000
  H   H2266     1.0  0.68877  0.58562  0.45442  1.0000
  H   H2267     1.0  0.69675  0.58037  0.37040  1.0000
  C   C1893     1.0  0.97330  0.57654  0.46972  1.0000
  C   C1894     1.0  0.67905  0.50790  0.30181  1.0000
  H   H2268     1.0  0.69113  0.54334  0.38450  1.0000
  H   H2269     1.0  0.69154  0.61871  0.37214  1.0000
  C   C1895     1.0  0.86962  0.55519  0.27752  1.0000
  C   C1896     1.0  0.87677  0.55360  0.26074  1.0000
  H   H2270     1.0  0.68289  0.79991  0.46231  1.0000
  C   C1897     1.0  0.83660  0.54231  0.25993  1.0000
  C   C1898     1.0  0.82959  0.54357  0.27677  1.0000
  C   C1899     1.0  0.84602  0.55008  0.28548  1.0000
  H   H2271     1.0  0.70789  0.83864  0.45966  1.0000
  C   C1900     1.0  0.71882  0.62722  0.38412  1.0000
  H   H2272     1.0  0.84040  0.55108  0.29851  1.0000
  S   S499      1.0  0.67416  0.51520  0.44073  1.0000
  C   C1901     1.0  0.75949  0.65772  0.48074  1.0000
  S   S500      1.0  0.76273  0.55124  0.49096  1.0000
  S   S501      1.0  0.98459  0.62264  0.47129  1.0000
  H   H2273     1.0  0.70719  0.96078  0.49061  1.0000
  H   H2274     1.0  0.96533  0.57166  0.48330  1.0000
  H   H2275     1.0  0.98743  0.67044  0.29041  1.0000
  C   C1902     1.0  0.69553  0.92653  0.25362  1.0000
  H   H2276     1.0  0.67262  0.51618  0.37026  1.0000
  H   H2277     1.0  0.84363  0.62504  0.27308  1.0000
  H   H2278     1.0  0.68981  0.51836  0.30829  1.0000
  C   C1903     1.0  0.98057  0.51659  0.31978  1.0000
  Fe  Fe257     1.0  0.73314  0.54045  0.25871  1.0000
  H   H2279     1.0  0.69283  0.98168  0.44929  1.0000
  S   S502      1.0  0.97041  0.57786  0.32218  1.0000
  C   C1904     1.0  0.73673  0.94704  0.48596  1.0000
  C   C1905     1.0  0.76936  0.96611  0.49492  1.0000
  H   H2280     1.0  0.74563  0.53308  0.39004  1.0000
  C   C1906     1.0  0.69843  0.73570  0.24728  1.0000
  H   H2281     1.0  0.75170  0.97279  0.41638  1.0000
  H   H2282     1.0  0.69990  0.66785  0.43675  1.0000
  C   C1907     1.0  0.88318  0.61522  0.25633  1.0000
  H   H2283     1.0  0.88209  0.57226  0.46219  1.0000
  H   H2284     1.0  0.90770  0.57666  0.44561  1.0000
  H   H2285     1.0  0.93131  0.58793  0.48084  1.0000
  H   H2286     1.0  0.68662  0.58985  0.47506  1.0000
  S   S503      1.0  0.70163  0.52276  0.25170  1.0000
  C   C1908     1.0  0.69508  0.78950  0.46233  1.0000
  C   C1909     1.0  0.74916  0.99763  0.44757  1.0000
  Fe  Fe258     1.0  0.68821  0.90739  0.48320  1.0000
  C   C1910     1.0  0.72799  0.77849  0.46951  1.0000
  N   N127      1.0  0.72294  0.98142  0.43083  1.0000
  H   H2287     1.0  0.68255  0.57688  0.32865  1.0000
  C   C1911     1.0  0.70782  0.59063  0.37630  1.0000
  C   C1912     1.0  0.70017  0.52123  0.34776  1.0000
  C   C1913     1.0  0.66863  0.95825  0.25385  1.0000
  C   C1914     1.0  0.68708  0.96079  0.26127  1.0000
  H   H2288     1.0  0.74110  0.95572  0.43840  1.0000
  H   H2289     1.0  0.81145  0.53917  0.28323  1.0000
  C   C1915     1.0  0.72379  0.75952  0.46226  1.0000
  H   H2290     1.0  0.73985  0.55081  0.40434  1.0000
  S   S504      1.0  0.74919  0.51853  0.27536  1.0000
  H   H2291     1.0  0.75185  0.57245  0.35704  1.0000
  H   H2292     1.0  0.70195  0.74052  0.44975  1.0000
  C   C1916     1.0  0.73591  0.61957  0.39035  1.0000
  H   H2293     1.0  0.74203  0.78029  0.47543  1.0000
  C   C1917     1.0  0.69088  0.65498  0.43135  1.0000
  C   C1918     1.0  0.91000  0.62250  0.48443  1.0000
  H   H2294     1.0  0.75530  0.81784  0.47473  1.0000
  S   S505      1.0  0.77789  0.62566  0.24642  1.0000
  H   H2295     1.0  0.83530  0.59508  0.27113  1.0000
  H   H2296     1.0  0.84698  0.62255  0.48543  1.0000
  C   C1919     1.0  0.86023  0.54712  0.25196  1.0000
  S   S506      1.0  0.98189  0.54314  0.43251  1.0000
  H   H2297     1.0  0.97913  0.51862  0.35154  1.0000
  H   H2298     1.0  0.98166  0.65139  0.31120  1.0000
  H   H2299     1.0  0.72512  0.94925  0.42373  1.0000
  S   S507      1.0  0.95085  0.57819  0.25270  1.0000
  H   H2300     1.0  0.72443  0.64741  0.44756  1.0000
  S   S508      1.0  0.98657  0.53023  0.25490  1.0000
  C   C1920     1.0  0.71215  0.53538  0.33117  1.0000
  H   H2301     1.0  0.70245  0.00039  0.41856  1.0000
  N   N128      1.0  0.71889  0.81442  0.47719  1.0000
  H   H2302     1.0  0.93530  0.51652  0.32861  1.0000
  H   H2303     1.0  0.74671  0.97997  0.45527  1.0000
  S   S509      1.0  0.79229  0.60714  0.48145  1.0000
  C   C1921     1.0  0.99458  0.60638  0.44324  1.0000
  H   H2304     1.0  0.71648  0.64440  0.38470  1.0000
  H   H2305     1.0  0.70285  0.71850  0.24892  1.0000
  C   C1922     1.0  0.99252  0.57385  0.34723  1.0000
  C   C1923     1.0  0.68210  0.63305  0.46847  1.0000
  C   C1924     1.0  0.89833  0.63381  0.49502  1.0000
  H   H2306     1.0  0.67603  0.76664  0.45025  1.0000
  C   C1925     1.0  0.70537  0.75553  0.45506  1.0000
  C   C1926     1.0  0.87614  0.61121  0.47442  1.0000
  C   C1927     1.0  0.74363  0.82810  0.47054  1.0000
  C   C1928     1.0  0.67573  0.54745  0.35068  1.0000
  H   H2307     1.0  0.71483  0.94689  0.26687  1.0000
  H   H2308     1.0  0.70648  0.52205  0.38900  1.0000
  H   H2309     1.0  0.70983  0.84677  0.47902  1.0000
  C   C1929     1.0  0.93261  0.61555  0.45066  1.0000
  H   H2310     1.0  0.73455  0.74745  0.46252  1.0000
  H   H2311     1.0  0.71492  0.56640  0.31151  1.0000
  C   C1930     1.0  0.72445  0.96211  0.49194  1.0000
  H   H2312     1.0  0.86617  0.60228  0.46726  1.0000
  C   C1931     1.0  0.70306  0.96938  0.44609  1.0000
  H   H2313     1.0  0.94247  0.60693  0.44220  1.0000
  H   H2314     1.0  0.85447  0.65934  0.24627  1.0000
  C   C1932     1.0  0.75923  0.94932  0.48737  1.0000
  N   N129      1.0  0.91179  0.59822  0.46317  1.0000
  C   C1933     1.0  0.86477  0.62290  0.48488  1.0000
  S   S510      1.0  0.67649  0.87571  0.47368  1.0000
  H   H2315     1.0  0.69927  0.51450  0.46588  1.0000
  C   C1934     1.0  0.78580  0.99494  0.24789  1.0000
  C   C1935     1.0  0.70041  0.94487  0.26125  1.0000
  H   H2316     1.0  0.92789  0.62985  0.44244  1.0000
  C   C1936     1.0  0.89919  0.61058  0.47394  1.0000
  C   C1937     1.0  0.67410  0.64796  0.40845  1.0000
  C   C1938     1.0  0.70482  0.61279  0.37707  1.0000
  H   H2317     1.0  0.75241  0.59252  0.39493  1.0000
  S   S511      1.0  0.81596  0.53610  0.24854  1.0000
  H   H2318     1.0  0.67890  0.54423  0.27793  1.0000
  H   H2319     1.0  0.92747  0.62281  0.48474  1.0000
  C   C1939     1.0  0.66865  0.62365  0.41566  1.0000
  H   H2320     1.0  0.72227  0.62097  0.46320  1.0000
  H   H2321     1.0  0.76230  0.56325  0.38428  1.0000
  H   H2322     1.0  0.69000  0.65246  0.46472  1.0000
  S   S512      1.0  0.67774  0.71621  0.49452  1.0000
  H   H2323     1.0  0.67576  0.55255  0.29775  1.0000
  H   H2324     1.0  0.98064  0.50918  0.30858  1.0000
  H   H2325     1.0  0.72253  0.56277  0.35657  1.0000
  C   C1940     1.0  0.99479  0.57658  0.32972  1.0000
  H   H2326     1.0  0.68971  0.68254  0.41054  1.0000
  H   H2327     1.0  0.81721  0.61414  0.26808  1.0000
  C   C1941     1.0  0.87578  0.63403  0.49523  1.0000
  H   H2328     1.0  0.74729  0.84430  0.47515  1.0000
  C   C1942     1.0  0.71347  0.98843  0.41613  1.0000
  C   C1943     1.0  0.83558  0.61378  0.26569  1.0000
  C   C1944     1.0  0.77230  0.97146  0.25142  1.0000
  H   H2329     1.0  0.70625  0.91445  0.25331  1.0000
  S   S513      1.0  0.99463  0.58570  0.27055  1.0000
  C   C1945     1.0  0.74460  0.55121  0.39053  1.0000
  N   N130      1.0  0.84784  0.62236  0.24715  1.0000
  C   C1946     1.0  0.99582  0.66442  0.30046  1.0000
  C   C1947     1.0  0.71335  0.80487  0.49599  1.0000
  C   C1948     1.0  0.72957  0.60609  0.55330  1.0000
  H   H2330     1.0  0.73577  0.76664  0.69101  1.0000
  H   H2331     1.0  0.78035  0.00097  0.56589  1.0000
  H   H2332     1.0  0.72116  0.97003  0.60934  1.0000
  S   S514      1.0  0.74734  0.86011  0.73135  1.0000
  Fe  Fe259     1.0  0.73966  0.55798  0.51302  1.0000
  C   C1949     1.0  0.73676  0.68147  0.73703  1.0000
  H   H2333     1.0  0.76300  0.98999  0.59723  1.0000
  Fe  Fe260     1.0  0.71665  0.87289  0.72725  1.0000
  S   S515      1.0  0.71732  0.89118  0.70022  1.0000
  H   H2334     1.0  0.66550  0.91933  0.52900  1.0000
  H   H2335     1.0  0.68952  0.99967  0.64640  1.0000
  Fe  Fe261     1.0  0.69763  0.65271  0.71804  1.0000
  S   S516      1.0  0.95280  0.59993  0.54911  1.0000
  C   C1950     1.0  0.67269  0.51978  0.55760  1.0000
  C   C1951     1.0  0.86208  0.56050  0.50845  1.0000
  C   C1952     1.0  0.66731  0.95360  0.66070  1.0000
  H   H2336     1.0  0.69500  0.79414  0.50134  1.0000
  S   S517      1.0  0.76496  0.64204  0.51264  1.0000
  H   H2337     1.0  0.68677  0.85050  0.66868  1.0000
  S   S518      1.0  0.70039  0.68079  0.69442  1.0000
  C   C1953     1.0  0.71491  0.96965  0.58488  1.0000
  H   H2338     1.0  0.67805  0.90764  0.55512  1.0000
  C   C1954     1.0  0.69842  0.63388  0.60376  1.0000
  H   H2339     1.0  0.68625  0.57817  0.56569  1.0000
  N   N131      1.0  0.70827  0.61397  0.55622  1.0000
  H   H2340     1.0  0.90661  0.64197  0.50345  1.0000
  H   H2341     1.0  0.67243  0.61237  0.64298  1.0000
  H   H2342     1.0  0.69274  0.58993  0.54321  1.0000
  S   S519      1.0  0.70752  0.52944  0.52862  1.0000
  C   C1955     1.0  0.70989  0.77203  0.73736  1.0000
  C   C1956     1.0  0.70107  0.54070  0.57554  1.0000
  C   C1957     1.0  0.71037  0.54119  0.55847  1.0000
  C   C1958     1.0  0.69621  0.53046  0.54957  1.0000
  H   H2343     1.0  0.68408  0.57168  0.70208  1.0000
  H   H2344     1.0  0.77791  0.93243  0.74471  1.0000
  H   H2345     1.0  0.71214  0.54840  0.58261  1.0000
  H   H2346     1.0  0.72861  0.54904  0.55246  1.0000
  C   C1959     1.0  0.67679  0.57003  0.71543  1.0000
  H   H2347     1.0  0.72471  0.68703  0.73046  1.0000
  Fe  Fe262     1.0  0.79163  0.57256  0.49865  1.0000
  H   H2348     1.0  0.72863  0.59115  0.56416  1.0000
  H   H2349     1.0  0.70729  0.94991  0.53719  1.0000
  C   C1960     1.0  0.67108  0.54573  0.50170  1.0000
  N   N132      1.0  0.70999  0.97130  0.55496  1.0000
  C   C1961     1.0  0.66986  0.87989  0.70525  1.0000
  H   H2350     1.0  0.98100  0.53448  0.58560  1.0000
  H   H2351     1.0  0.76346  0.79192  0.70181  1.0000
  C   C1962     1.0  0.98981  0.70373  0.74417  1.0000
  C   C1963     1.0  0.76242  0.51092  0.52952  1.0000
  H   H2352     1.0  0.98717  0.68974  0.73791  1.0000
  C   C1964     1.0  0.70098  0.84368  0.67223  1.0000
  C   C1965     1.0  0.85189  0.58727  0.53118  1.0000
  H   H2353     1.0  0.78968  0.53962  0.54248  1.0000
  C   C1966     1.0  0.70925  0.95039  0.70064  1.0000
  H   H2354     1.0  0.67465  0.95815  0.55445  1.0000
  C   C1967     1.0  0.68904  0.59464  0.55559  1.0000
  H   H2355     1.0  0.86661  0.64234  0.50376  1.0000
  Fe  Fe263     1.0  0.67084  0.68852  0.71137  1.0000
  H   H2356     1.0  0.68870  0.54445  0.49926  1.0000
  S   S520      1.0  0.67008  0.65909  0.49979  1.0000
  C   C1968     1.0  0.69173  0.88993  0.69366  1.0000
  C   C1969     1.0  0.69347  0.89892  0.67627  1.0000
  N   N133      1.0  0.67518  0.97119  0.66978  1.0000
  C   C1970     1.0  0.87795  0.56789  0.51748  1.0000
  C   C1971     1.0  0.99096  0.51271  0.60610  1.0000
  H   H2357     1.0  0.70775  0.72168  0.72399  1.0000
  H   H2358     1.0  0.71032  0.90649  0.66720  1.0000
  Fe  Fe264     1.0  0.93043  0.59641  0.53111  1.0000
  H   H2359     1.0  0.68131  0.94382  0.57305  1.0000
  H   H2360     1.0  0.70333  0.77870  0.68411  1.0000
  H   H2361     1.0  0.69569  0.92450  0.72510  1.0000
  C   C1972     1.0  0.72420  0.97612  0.56680  1.0000
  C   C1973     1.0  0.70264  0.73682  0.72682  1.0000
  H   H2362     1.0  0.69681  0.96116  0.59109  1.0000
  C   C1974     1.0  0.71766  0.95421  0.54615  1.0000
  S   S521      1.0  0.82272  0.55848  0.49809  1.0000
  C   C1975     1.0  0.75580  0.65999  0.49746  1.0000
  C   C1976     1.0  0.84153  0.56719  0.51029  1.0000
  C   C1977     1.0  0.69007  0.77668  0.73359  1.0000
  H   H2363     1.0  0.72659  0.84415  0.69807  1.0000
  H   H2364     1.0  0.84784  0.59753  0.54009  1.0000
  H   H2365     1.0  0.68862  0.84013  0.70573  1.0000
  C   C1978     1.0  0.68533  0.60785  0.58702  1.0000
  H   H2366     1.0  0.68488  0.79170  0.73647  1.0000
  S   S522      1.0  0.95042  0.63159  0.51261  1.0000
  S   S523      1.0  0.89185  0.59009  0.54096  1.0000
  C   C1979     1.0  0.68113  0.95908  0.68501  1.0000
  C   C1980     1.0  0.68319  0.74197  0.72259  1.0000
  H   H2367     1.0  0.71176  0.84111  0.66057  1.0000
  H   H2368     1.0  0.73127  0.74815  0.73711  1.0000
  C   C1981     1.0  0.69253  0.57639  0.72470  1.0000
  C   C1982     1.0  0.71598  0.75188  0.73416  1.0000
  S   S524      1.0  0.67027  0.66249  0.73528  1.0000
  C   C1983     1.0  0.87289  0.58135  0.52886  1.0000
  C   C1984     1.0  0.68474  0.57559  0.74188  1.0000
  C   C1985     1.0  0.74335  0.67545  0.50232  1.0000
  H   H2369     1.0  0.66821  0.78696  0.69082  1.0000
  H   H2370     1.0  0.94611  0.67777  0.74289  1.0000
  S   S525      1.0  0.67403  0.64368  0.66466  1.0000
  C   C1986     1.0  0.72070  0.63978  0.57471  1.0000
  C   C1987     1.0  0.83635  0.58049  0.52176  1.0000
  S   S526      1.0  0.76851  0.57644  0.52214  1.0000
  H   H2371     1.0  0.73022  0.66112  0.59133  1.0000
  C   C1988     1.0  0.70451  0.62049  0.57263  1.0000
  Fe  Fe265     1.0  0.97435  0.58221  0.53361  1.0000
  S   S527      1.0  0.67267  0.62501  0.71184  1.0000
  H   H2372     1.0  0.67240  0.59254  0.58693  1.0000
  H   H2373     1.0  0.74111  0.67803  0.51497  1.0000
  N   N134      1.0  0.69196  0.82135  0.68621  1.0000
  H   H2374     1.0  0.73075  0.00123  0.53368  1.0000
  C   C1989     1.0  0.98602  0.55100  0.61075  1.0000
  C   C1990     1.0  0.79231  0.52177  0.54302  1.0000
  H   H2375     1.0  0.98066  0.50755  0.56779  1.0000
  H   H2376     1.0  0.72577  0.99160  0.50319  1.0000
  N   N135      1.0  0.99208  0.52885  0.61734  1.0000
  Fe  Fe266     1.0  0.67254  0.65337  0.68980  1.0000
  C   C1991     1.0  0.71759  0.64636  0.59004  1.0000
  Fe  Fe267     1.0  0.97453  0.63324  0.52928  1.0000
  C   C1992     1.0  0.70423  0.96265  0.68623  1.0000
  H   H2377     1.0  0.72701  0.95270  0.70113  1.0000
  H   H2378     1.0  0.67516  0.90447  0.65704  1.0000
  S   S528      1.0  0.94993  0.57523  0.51732  1.0000
  C   C1993     1.0  0.72884  0.97462  0.59565  1.0000
  H   H2379     1.0  0.98731  0.56291  0.61933  1.0000
  C   C1994     1.0  0.71155  0.81300  0.69024  1.0000
  H   H2380     1.0  0.75674  0.99223  0.54680  1.0000
  H   H2381     1.0  0.67164  0.80989  0.71246  1.0000
  H   H2382     1.0  0.77674  0.51629  0.51750  1.0000
  C   C1995     1.0  0.68234  0.61469  0.60225  1.0000
  H   H2383     1.0  0.70885  0.98330  0.65151  1.0000
  H   H2384     1.0  0.89382  0.56276  0.51598  1.0000
  H   H2385     1.0  0.71880  0.97441  0.67611  1.0000
  H   H2386     1.0  0.72682  0.64919  0.54014  1.0000
  S   S529      1.0  0.77138  0.00200  0.51019  1.0000
  C   C1996     1.0  0.67355  0.89795  0.67050  1.0000
  S   S530      1.0  0.67727  0.98910  0.61587  1.0000
  C   C1997     1.0  0.98502  0.51817  0.59038  1.0000
  H   H2387     1.0  0.97541  0.52856  0.64305  1.0000
  C   C1998     1.0  0.75646  0.65232  0.74581  1.0000
  H   H2388     1.0  0.71615  0.93735  0.55555  1.0000
  S   S531      1.0  0.66632  0.53014  0.60479  1.0000
  H   H2389     1.0  0.75498  0.52606  0.52994  1.0000
  C   C1999     1.0  0.71280  0.99352  0.54190  1.0000
  C   C2000     1.0  0.69483  0.99037  0.65739  1.0000
  H   H2390     1.0  0.95798  0.50997  0.63347  1.0000
  H   H2391     1.0  0.69612  0.63900  0.61565  1.0000
  C   C2001     1.0  0.75233  0.98595  0.58884  1.0000
  H   H2392     1.0  0.70189  0.99068  0.53305  1.0000
  H   H2393     1.0  0.86572  0.54962  0.49995  1.0000
  H   H2394     1.0  0.74638  0.71400  0.74410  1.0000
  Fe  Fe268     1.0  0.97126  0.61086  0.49994  1.0000
  C   C2002     1.0  0.71509  0.79103  0.68822  1.0000
  C   C2003     1.0  0.72802  0.82718  0.69625  1.0000
  C   C2004     1.0  0.71110  0.63478  0.54189  1.0000
  C   C2005     1.0  0.74655  0.81964  0.70026  1.0000
  C   C2006     1.0  0.74942  0.79797  0.69825  1.0000
  S   S532      1.0  0.98814  0.66699  0.53599  1.0000
  H   H2395     1.0  0.67813  0.97345  0.57046  1.0000
  C   C2007     1.0  0.73381  0.78378  0.69215  1.0000
  H   H2396     1.0  0.73266  0.60017  0.54137  1.0000
  H   H2397     1.0  0.67265  0.59977  0.55716  1.0000
  C   C2008     1.0  0.67680  0.76173  0.72622  1.0000
  H   H2398     1.0  0.73604  0.64981  0.56452  1.0000
  C   C2009     1.0  0.76206  0.99217  0.57123  1.0000
  H   H2399     1.0  0.71316  0.63030  0.52940  1.0000
  C   C2010     1.0  0.75644  0.51191  0.57387  1.0000
  C   C2011     1.0  0.97584  0.51659  0.63448  1.0000
  C   C2012     1.0  0.75756  0.98161  0.50051  1.0000
  H   H2400     1.0  0.75851  0.83046  0.70529  1.0000
  H   H2401     1.0  0.82052  0.58569  0.52332  1.0000
  H   H2402     1.0  0.74527  0.62056  0.55171  1.0000
  H   H2403     1.0  0.67427  0.56224  0.52164  1.0000
  S   S533      1.0  0.72524  0.63999  0.72797  1.0000
  S   S534      1.0  0.67072  0.88784  0.51058  1.0000
  C   C2013     1.0  0.74898  0.69667  0.74477  1.0000
  C   C2014     1.0  0.67749  0.53025  0.58352  1.0000
  C   C2015     1.0  0.68494  0.96128  0.56365  1.0000
  H   H2404     1.0  0.73598  0.96127  0.53834  1.0000
  H   H2405     1.0  0.68467  0.80058  0.66873  1.0000
  C   C2016     1.0  0.74062  0.65935  0.73742  1.0000
  C   C2017     1.0  0.69160  0.93444  0.71420  1.0000
  C   C2018     1.0  0.73504  0.97969  0.49895  1.0000
  H   H2406     1.0  0.71090  0.58279  0.71839  1.0000
  C   C2019     1.0  0.74830  0.98722  0.56035  1.0000
  H   H2407     1.0  0.69611  0.64232  0.54393  1.0000
  H   H2408     1.0  0.66754  0.60489  0.61302  1.0000
  S   S535      1.0  0.99418  0.55858  0.54489  1.0000
  H   H2409     1.0  0.67951  0.67978  0.60215  1.0000
  H   H2410     1.0  0.96808  0.54723  0.60947  1.0000
  S   S536      1.0  0.69047  0.83815  0.74152  1.0000
  H   H2411     1.0  0.68131  0.94579  0.65596  1.0000
  H   H2412     1.0  0.71190  0.85808  0.67591  1.0000
  H   H2413     1.0  0.80048  0.51680  0.55345  1.0000
  H   H2414     1.0  0.75949  0.63521  0.74612  1.0000
  H   H2415     1.0  0.74240  0.51723  0.59844  1.0000
  H   H2416     1.0  0.70200  0.00397  0.66354  1.0000
  C   C2020     1.0  0.66883  0.93043  0.71336  1.0000
  S   S537      1.0  0.73563  0.59109  0.49735  1.0000
  C   C2021     1.0  0.67831  0.82603  0.70148  1.0000
  H   H2417     1.0  0.77325  0.52282  0.57314  1.0000
  Fe  Fe269     1.0  0.76667  0.60924  0.50431  1.0000
  C   C2022     1.0  0.67586  0.80411  0.68069  1.0000
  H   H2418     1.0  0.80546  0.52368  0.53095  1.0000
  S   S538      1.0  0.66697  0.72492  0.71209  1.0000
  C   C2023     1.0  0.73885  0.50877  0.58860  1.0000
  H   H2419     1.0  0.66830  0.87287  0.71868  1.0000
  H   H2420     1.0  0.71586  0.81927  0.50252  1.0000
  H   H2421     1.0  0.72413  0.79317  0.49972  1.0000
  H   H2422     1.0  0.79708  0.97301  0.74560  1.0000
  H   H2423     1.0  0.78668  0.96739  0.49613  1.0000
  Fe  Fe270     1.0  0.76266  0.88355  0.95312  1.0000
  Fe  Fe271     1.0  0.77154  0.93671  0.94141  1.0000
  S   S539      1.0  0.74276  0.93698  0.96286  1.0000
  S   S540      1.0  0.78926  0.97130  0.92170  1.0000
  Fe  Fe272     1.0  0.75622  0.91160  0.97917  1.0000
  C   C2024     1.0  0.72355  0.82244  0.92927  1.0000
  Fe  Fe273     1.0  0.72295  0.90528  0.95679  1.0000
  S   S541      1.0  0.78671  0.91370  0.95812  1.0000
  S   S542      1.0  0.75085  0.90688  0.93405  1.0000
  C   C2025     1.0  0.72289  0.79837  0.93311  1.0000
  C   C2026     1.0  0.78136  0.85434  0.88920  1.0000
  N   N136      1.0  0.77821  0.78189  0.78160  1.0000
  C   C2027     1.0  0.84155  0.69929  0.86528  1.0000
  C   C2028     1.0  0.80176  0.86277  0.98663  1.0000
  S   S543      1.0  0.83344  0.95829  0.84975  1.0000
  C   C2029     1.0  0.73821  0.83842  0.93511  1.0000
  H   H2424     1.0  0.76704  0.70274  0.95315  1.0000
  Fe  Fe274     1.0  0.71611  0.74520  0.92338  1.0000
  H   H2425     1.0  0.87877  0.68861  0.84617  1.0000
  N   N137      1.0  0.72775  0.96553  0.89294  1.0000
  H   H2426     1.0  0.84090  0.67243  0.85115  1.0000
  H   H2427     1.0  0.73881  0.85695  0.93191  1.0000
  Fe  Fe275     1.0  0.80869  0.71928  0.81099  1.0000
  S   S544      1.0  0.81064  0.68566  0.82743  1.0000
  S   S545      1.0  0.81889  0.75474  0.81604  1.0000
  Fe  Fe276     1.0  0.79294  0.69586  0.78505  1.0000
  S   S546      1.0  0.79394  0.65975  0.79893  1.0000
  S   S547      1.0  0.77959  0.70935  0.76274  1.0000
  Fe  Fe277     1.0  0.77734  0.66873  0.82258  1.0000
  S   S548      1.0  0.74774  0.64587  0.84502  1.0000
  Fe  Fe278     1.0  0.82750  0.67944  0.80275  1.0000
  S   S549      1.0  0.85857  0.66505  0.80260  1.0000
  S   S550      1.0  0.77381  0.70324  0.80856  1.0000
  S   S551      1.0  0.82799  0.71458  0.78652  1.0000
  H   H2428     1.0  0.74984  0.95619  0.76977  1.0000
  H   H2429     1.0  0.73588  0.00134  0.87693  1.0000
  S   S552      1.0  0.96924  0.66756  0.83591  1.0000
  C   C2030     1.0  0.71415  0.64127  0.78767  1.0000
  N   N138      1.0  0.95058  0.68604  0.76622  1.0000
  C   C2031     1.0  0.77502  0.79419  0.76515  1.0000
  Fe  Fe279     1.0  0.97706  0.70519  0.82056  1.0000
  S   S553      1.0  0.94885  0.72278  0.81667  1.0000
  H   H2430     1.0  0.69708  0.58121  0.74876  1.0000
  C   C2032     1.0  0.78576  0.83977  0.87815  1.0000
  H   H2431     1.0  0.87750  0.73701  0.82794  1.0000
  S   S554      1.0  0.68059  0.94308  0.84784  1.0000
  C   C2033     1.0  0.71602  0.75467  0.82354  1.0000
  C   C2034     1.0  0.66857  0.82059  0.90731  1.0000
  C   C2035     1.0  0.69693  0.70043  0.77576  1.0000
  H   H2432     1.0  0.75326  0.99723  0.89144  1.0000
  Fe  Fe280     1.0  0.72070  0.82624  0.74710  1.0000
  C   C2036     1.0  0.74436  0.98873  0.88303  1.0000
  H   H2433     1.0  0.66761  0.99697  0.91226  1.0000
  H   H2434     1.0  0.87737  0.99238  0.83356  1.0000
  C   C2037     1.0  0.95047  0.60687  0.85540  1.0000
  C   C2038     1.0  0.92324  0.70641  0.81359  1.0000
  C   C2039     1.0  0.90877  0.71848  0.80681  1.0000
  C   C2040     1.0  0.88863  0.70597  0.80370  1.0000
  C   C2041     1.0  0.88277  0.68125  0.80743  1.0000
  C   C2042     1.0  0.89712  0.66918  0.81438  1.0000
  C   C2043     1.0  0.91712  0.68167  0.81763  1.0000
  H   H2435     1.0  0.91341  0.73763  0.80361  1.0000
  H   H2436     1.0  0.87785  0.71547  0.79811  1.0000
  H   H2437     1.0  0.89272  0.65005  0.81726  1.0000
  H   H2438     1.0  0.92795  0.67212  0.82305  1.0000
  S   S555      1.0  0.73310  0.87965  0.97541  1.0000
  H   H2439     1.0  0.69969  0.62689  0.86189  1.0000
  C   C2044     1.0  0.80359  0.96158  0.77008  1.0000
  C   C2045     1.0  0.80145  0.94193  0.78339  1.0000
  H   H2440     1.0  0.80789  0.94443  0.79420  1.0000
  C   C2046     1.0  0.73655  0.79042  0.94320  1.0000
  C   C2047     1.0  0.80086  0.74873  0.87308  1.0000
  C   C2048     1.0  0.78662  0.73320  0.86675  1.0000
  C   C2049     1.0  0.79209  0.73484  0.84916  1.0000
  C   C2050     1.0  0.81115  0.75267  0.83792  1.0000
  C   C2051     1.0  0.82491  0.76858  0.84424  1.0000
  C   C2052     1.0  0.82007  0.76627  0.86184  1.0000
  H   H2441     1.0  0.77178  0.71954  0.87544  1.0000
  H   H2442     1.0  0.78149  0.72239  0.84431  1.0000
  H   H2443     1.0  0.83973  0.78227  0.83556  1.0000
  S   S556      1.0  0.77257  0.85039  0.95073  1.0000
  S   S557      1.0  0.71822  0.83778  0.77117  1.0000
  H   H2444     1.0  0.79012  0.95446  0.98044  1.0000
  H   H2445     1.0  0.80055  0.80305  0.86878  1.0000
  C   C2053     1.0  0.67796  0.62567  0.76980  1.0000
  C   C2054     1.0  0.79131  0.87884  0.88389  1.0000
  C   C2055     1.0  0.80073  0.96692  0.90184  1.0000
  C   C2056     1.0  0.80863  0.94704  0.90082  1.0000
  C   C2057     1.0  0.81848  0.94424  0.88477  1.0000
  C   C2058     1.0  0.81952  0.96078  0.86977  1.0000
  C   C2059     1.0  0.81053  0.97999  0.87088  1.0000
  C   C2060     1.0  0.80175  0.98340  0.88687  1.0000
  H   H2446     1.0  0.80784  0.93424  0.91240  1.0000
  H   H2447     1.0  0.82556  0.92945  0.88403  1.0000
  H   H2448     1.0  0.89938  0.71472  0.84549  1.0000
  H   H2449     1.0  0.72556  0.67173  0.81649  1.0000
  H   H2450     1.0  0.73765  0.63401  0.88052  1.0000
  H   H2451     1.0  0.76261  0.80016  0.95604  1.0000
  H   H2452     1.0  0.73531  0.77186  0.94709  1.0000
  S   S558      1.0  0.80206  0.98982  0.81963  1.0000
  C   C2061     1.0  0.74122  0.94957  0.89914  1.0000
  H   H2453     1.0  0.95353  0.68433  0.79184  1.0000
  C   C2062     1.0  0.76354  0.70043  0.96681  1.0000
  H   H2454     1.0  0.86045  0.74791  0.86011  1.0000
  H   H2455     1.0  0.66594  0.93106  0.77490  1.0000
  N   N139      1.0  0.67765  0.61299  0.78722  1.0000
  C   C2063     1.0  0.67671  0.73019  0.77824  1.0000
  H   H2456     1.0  0.83110  0.77824  0.86674  1.0000
  H   H2457     1.0  0.72981  0.93154  0.90632  1.0000
  H   H2458     1.0  0.75418  0.94743  0.88841  1.0000
  H   H2459     1.0  0.75109  0.95670  0.90757  1.0000
  H   H2460     1.0  0.68409  0.65230  0.82990  1.0000
  H   H2461     1.0  0.72138  0.59256  0.92319  1.0000
  C   C2064     1.0  0.75173  0.80647  0.94857  1.0000
  H   H2462     1.0  0.68113  0.81154  0.91140  1.0000
  H   H2463     1.0  0.73487  0.65406  0.89354  1.0000
  C   C2065     1.0  0.75268  0.83052  0.94447  1.0000
  S   S559      1.0  0.73099  0.74067  0.89761  1.0000
  H   H2464     1.0  0.77000  0.78348  0.90444  1.0000
  H   H2465     1.0  0.70655  0.94339  0.81031  1.0000
  H   H2466     1.0  0.95347  0.56418  0.83476  1.0000
  C   C2066     1.0  0.75655  0.75876  0.81192  1.0000
  H   H2467     1.0  0.75437  0.93999  0.79930  1.0000
  C   C2067     1.0  0.69107  0.58909  0.83718  1.0000
  C   C2068     1.0  0.97678  0.57574  0.84923  1.0000
  C   C2069     1.0  0.78210  0.91532  0.76887  1.0000
  H   H2468     1.0  0.77304  0.78164  0.87623  1.0000
  H   H2469     1.0  0.93154  0.70792  0.77737  1.0000
  Fe  Fe281     1.0  0.83377  0.98855  0.82845  1.0000
  H   H2470     1.0  0.69947  0.77181  0.80629  1.0000
  H   H2471     1.0  0.78427  0.77853  0.98317  1.0000
  H   H2472     1.0  0.68923  0.61247  0.92998  1.0000
  C   C2070     1.0  0.69027  0.62979  0.79506  1.0000
  H   H2473     1.0  0.76283  0.78195  0.76064  1.0000
  C   C2071     1.0  0.69265  0.88422  0.91058  1.0000
  H   H2474     1.0  0.78821  0.81396  0.78908  1.0000
  C   C2072     1.0  0.81006  0.66298  0.87131  1.0000
  C   C2073     1.0  0.80577  0.88957  0.86743  1.0000
  C   C2074     1.0  0.68612  0.60091  0.84969  1.0000
  C   C2075     1.0  0.66675  0.69481  0.80160  1.0000
  C   C2076     1.0  0.69610  0.88729  0.92622  1.0000
  H   H2475     1.0  0.79965  0.79074  0.79811  1.0000
  C   C2077     1.0  0.73693  0.68631  0.99510  1.0000
  H   H2476     1.0  0.76857  0.80989  0.76617  1.0000
  C   C2078     1.0  0.78427  0.93498  0.75556  1.0000
  H   H2477     1.0  0.71722  0.96895  0.98305  1.0000
  H   H2478     1.0  0.90792  0.99988  0.82596  1.0000
  C   C2079     1.0  0.67351  0.59375  0.90501  1.0000
  Fe  Fe282     1.0  0.74242  0.87300  0.75515  1.0000
  C   C2080     1.0  0.79529  0.95793  0.75604  1.0000
  C   C2081     1.0  0.69574  0.98324  0.90290  1.0000
  H   H2479     1.0  0.71117  0.64028  0.92279  1.0000
  H   H2480     1.0  0.91007  0.97529  0.85339  1.0000
  S   S560      1.0  0.81525  0.99104  0.77081  1.0000
  C   C2082     1.0  0.72662  0.65659  0.79515  1.0000
  C   C2083     1.0  0.69462  0.56993  0.88368  1.0000
  C   C2084     1.0  0.66497  0.90571  0.92973  1.0000
  H   H2481     1.0  0.74498  0.66472  0.78951  1.0000
  H   H2482     1.0  0.69576  0.63358  0.76125  1.0000
  H   H2483     1.0  0.79895  0.71642  0.96565  1.0000
  Fe  Fe283     1.0  0.82642  0.00177  0.79322  1.0000
  H   H2484     1.0  0.79456  0.75446  0.78919  1.0000
  H   H2485     1.0  0.81323  0.90859  0.86324  1.0000
  H   H2486     1.0  0.66968  0.64023  0.77027  1.0000
  H   H2487     1.0  0.73911  0.79156  0.89054  1.0000
  C   C2085     1.0  0.78428  0.81022  0.99152  1.0000
  C   C2086     1.0  0.73530  0.98938  0.79663  1.0000
  H   H2488     1.0  0.80065  0.88133  0.98504  1.0000
  N   N140      1.0  0.71280  0.61827  0.90525  1.0000
  S   S561      1.0  0.71398  0.88872  0.74972  1.0000
  C   C2087     1.0  0.80635  0.68999  0.88877  1.0000
  C   C2088     1.0  0.67160  0.82037  0.95858  1.0000
  H   H2489     1.0  0.67898  0.57971  0.78164  1.0000
  H   H2490     1.0  0.67327  0.79911  0.94120  1.0000
  H   H2491     1.0  0.79917  0.85804  0.97480  1.0000
  H   H2492     1.0  0.78004  0.81855  0.98017  1.0000
  S   S562      1.0  0.67121  0.88772  0.88488  1.0000
  C   C2089     1.0  0.78809  0.76231  0.77847  1.0000
  C   C2090     1.0  0.94464  0.59139  0.84569  1.0000
  H   H2493     1.0  0.78765  0.88960  0.89256  1.0000
  C   C2091     1.0  0.74884  0.81064  0.88627  1.0000
  H   H2494     1.0  0.79688  0.80592  0.89899  1.0000
  C   C2092     1.0  0.97866  0.72378  0.76568  1.0000
  C   C2093     1.0  0.73527  0.77661  0.79401  1.0000
  H   H2495     1.0  0.91400  0.68313  0.77358  1.0000
  H   H2496     1.0  0.71727  0.98393  0.84403  1.0000
  S   S563      1.0  0.71862  0.67806  0.96879  1.0000
  H   H2497     1.0  0.66850  0.61372  0.76343  1.0000
  S   S564      1.0  0.79520  0.74653  0.89498  1.0000
  C   C2094     1.0  0.72623  0.62437  0.84142  1.0000
  C   C2095     1.0  0.71046  0.96901  0.90684  1.0000
  C   C2096     1.0  0.87235  0.73643  0.86018  1.0000
  H   H2498     1.0  0.69752  0.97889  0.80695  1.0000
  H   H2499     1.0  0.76993  0.84695  0.90199  1.0000
  C   C2097     1.0  0.73005  0.60890  0.91248  1.0000
  C   C2098     1.0  0.70765  0.95867  0.92447  1.0000
  C   C2099     1.0  0.77751  0.70468  0.99164  1.0000
  C   C2100     1.0  0.86136  0.72414  0.83676  1.0000
  C   C2101     1.0  0.88200  0.70264  0.85291  1.0000
  H   H2500     1.0  0.84740  0.73310  0.83715  1.0000
  H   H2501     1.0  0.72342  0.63816  0.77620  1.0000
  H   H2502     1.0  0.69598  0.68128  0.77929  1.0000
  S   S565      1.0  0.68651  0.90222  0.95538  1.0000
  H   H2503     1.0  0.75824  0.84209  0.98871  1.0000
  H   H2504     1.0  0.95867  0.65818  0.75542  1.0000
  H   H2505     1.0  0.85675  0.70954  0.83077  1.0000
  H   H2506     1.0  0.88322  0.69418  0.86583  1.0000
  H   H2507     1.0  0.70884  0.88048  0.93114  1.0000
  H   H2508     1.0  0.75967  0.00132  0.83293  1.0000
  C   C2102     1.0  0.69229  0.64995  0.81773  1.0000
  C   C2103     1.0  0.67246  0.66447  0.89062  1.0000
  C   C2104     1.0  0.79113  0.95593  0.99303  1.0000
  N   N141      1.0  0.86394  0.71542  0.85411  1.0000
  H   H2509     1.0  0.88949  0.74785  0.85176  1.0000
  H   H2510     1.0  0.87437  0.73108  0.87332  1.0000
  H   H2511     1.0  0.93446  0.65849  0.78990  1.0000
  H   H2512     1.0  0.74145  0.81871  0.89621  1.0000
  H   H2513     1.0  0.77057  0.96893  0.79815  1.0000
  C   C2105     1.0  0.75658  0.77236  0.79570  1.0000
  C   C2106     1.0  0.69965  0.62713  0.91847  1.0000
  C   C2107     1.0  0.81055  0.87586  0.85628  1.0000
  H   H2514     1.0  0.70064  0.74816  0.83424  1.0000
  H   H2515     1.0  0.78047  0.66187  0.76041  1.0000
  H   H2516     1.0  0.78965  0.90380  0.79293  1.0000
  C   C2108     1.0  0.97281  0.70468  0.75838  1.0000
  H   H2517     1.0  0.70629  0.96634  0.87541  1.0000
  C   C2109     1.0  0.79726  0.66918  0.88474  1.0000
  S   S566      1.0  0.74481  0.73683  0.93374  1.0000
  C   C2110     1.0  0.70367  0.61825  0.85193  1.0000
  H   H2518     1.0  0.74866  0.61732  0.82061  1.0000
  C   C2111     1.0  0.73124  0.61283  0.82870  1.0000
  C   C2112     1.0  0.79098  0.91892  0.78268  1.0000
  C   C2113     1.0  0.68904  0.59387  0.78600  1.0000
  Fe  Fe284     1.0  0.75790  0.72950  0.90881  1.0000
  S   S567      1.0  0.76966  0.88592  0.76843  1.0000
  H   H2519     1.0  0.71813  0.93221  0.79312  1.0000
  H   H2520     1.0  0.68857  0.95332  0.95053  1.0000
  H   H2521     1.0  0.70282  0.70691  0.76154  1.0000
  H   H2522     1.0  0.70350  0.87598  0.90321  1.0000
  Fe  Fe285     1.0  0.72296  0.69933  0.94188  1.0000
  H   H2523     1.0  0.81064  0.99246  0.85943  1.0000
  C   C2114     1.0  0.74858  0.97257  0.77368  1.0000
  H   H2524     1.0  0.96522  0.66419  0.78223  1.0000
  C   C2115     1.0  0.74118  0.68927  0.97740  1.0000
  H   H2525     1.0  0.70398  0.95477  0.78901  1.0000
  S   S568      1.0  0.66908  0.56692  0.83461  1.0000
  N   N142      1.0  0.73781  0.96725  0.79230  1.0000
  H   H2526     1.0  0.71307  0.82894  0.92154  1.0000
  C   C2116     1.0  0.98314  0.59126  0.85928  1.0000
  H   H2527     1.0  0.82180  0.88442  0.84347  1.0000
  Fe  Fe286     1.0  0.71044  0.70246  0.90814  1.0000
  C   C2117     1.0  0.75270  0.95710  0.80183  1.0000
  C   C2118     1.0  0.71562  0.94869  0.79641  1.0000
  S   S569      1.0  0.73888  0.69090  0.91768  1.0000
  H   H2528     1.0  0.71777  0.58580  0.81711  1.0000
  C   C2119     1.0  0.83194  0.67769  0.86177  1.0000
  C   C2120     1.0  0.93104  0.69681  0.76828  1.0000
  S   S570      1.0  0.68088  0.00345  0.85969  1.0000
  H   H2529     1.0  0.98215  0.57658  0.89203  1.0000
  C   C2121     1.0  0.68047  0.70377  0.81180  1.0000
  C   C2122     1.0  0.67328  0.69574  0.82969  1.0000
  H   H2530     1.0  0.73837  0.98122  0.76612  1.0000
  C   C2123     1.0  0.82812  0.70493  0.87922  1.0000
  H   H2531     1.0  0.80312  0.76827  0.76692  1.0000
  Fe  Fe287     1.0  0.69030  0.85265  0.76429  1.0000
  C   C2124     1.0  0.89472  0.98025  0.85967  1.0000
  H   H2532     1.0  0.71293  0.64497  0.88342  1.0000
  H   H2533     1.0  0.69686  0.71705  0.80597  1.0000
  C   C2125     1.0  0.69804  0.59970  0.89995  1.0000
  H   H2534     1.0  0.83367  0.72107  0.88282  1.0000
  H   H2535     1.0  0.69157  0.74047  0.78166  1.0000
  H   H2536     1.0  0.76640  0.98460  0.76970  1.0000
  H   H2537     1.0  0.70328  0.93763  0.88844  1.0000
  H   H2538     1.0  0.74262  0.60449  0.90281  1.0000
  H   H2539     1.0  0.99362  0.60835  0.88650  1.0000
  H   H2540     1.0  0.74564  0.95387  0.81587  1.0000
  C   C2126     1.0  0.71373  0.59499  0.82673  1.0000
  N   N143      1.0  0.67429  0.70437  0.78272  1.0000
  H   H2541     1.0  0.72664  0.59228  0.88341  1.0000
  H   H2542     1.0  0.81164  0.80678  0.77614  1.0000
  N   N144      1.0  0.77396  0.81405  0.88378  1.0000
  C   C2127     1.0  0.78164  0.70808  0.97392  1.0000
  H   H2543     1.0  0.80510  0.84182  0.85211  1.0000
  H   H2544     1.0  0.75789  0.98692  0.87251  1.0000
  C   C2128     1.0  0.67533  0.89188  0.90448  1.0000
  S   S571      1.0  0.69766  0.68718  0.88801  1.0000
  H   H2545     1.0  0.68799  0.63657  0.91338  1.0000
  H   H2546     1.0  0.77213  0.75499  0.81422  1.0000
  H   H2547     1.0  0.67869  0.63471  0.98900  1.0000
  C   C2129     1.0  0.67064  0.56426  0.88910  1.0000
  H   H2548     1.0  0.75461  0.98977  0.96147  1.0000
  S   S572      1.0  0.85776  0.99761  0.80206  1.0000
  H   H2549     1.0  0.80278  0.64704  0.86791  1.0000
  C   C2130     1.0  0.77809  0.80299  0.90019  1.0000
  C   C2131     1.0  0.71539  0.76793  0.80781  1.0000
  C   C2132     1.0  0.73094  0.97983  0.98661  1.0000
  C   C2133     1.0  0.72498  0.00156  0.84462  1.0000
  C   C2134     1.0  0.71599  0.95502  0.88136  1.0000
  C   C2135     1.0  0.70817  0.58758  0.88881  1.0000
  H   H2550     1.0  0.85870  0.99960  0.85891  1.0000
  H   H2551     1.0  0.74502  0.81876  0.87424  1.0000
  C   C2136     1.0  0.79514  0.79908  0.78645  1.0000
  H   H2552     1.0  0.71796  0.94756  0.92882  1.0000
  C   C2137     1.0  0.78168  0.80102  0.87132  1.0000
  H   H2553     1.0  0.79150  0.80095  0.75478  1.0000
  H   H2554     1.0  0.70656  0.60047  0.77690  1.0000
  C   C2138     1.0  0.68247  0.89833  0.93572  1.0000
  H   H2555     1.0  0.68335  0.81323  0.96476  1.0000
  C   C2139     1.0  0.71571  0.66078  0.81023  1.0000
  H   H2556     1.0  0.87249  0.74035  0.99255  1.0000
  H   H2557     1.0  0.81536  0.99073  0.98361  1.0000
  H   H2558     1.0  0.77073  0.80985  0.91088  1.0000
  S   S573      1.0  0.69278  0.70788  0.93313  1.0000
  H   H2559     1.0  0.77749  0.80690  0.85901  1.0000
  C   C2140     1.0  0.69074  0.96195  0.93720  1.0000
  C   C2141     1.0  0.95087  0.67268  0.78328  1.0000
  H   H2560     1.0  0.79622  0.69504  0.89906  1.0000
  H   H2561     1.0  0.79555  0.99873  0.88765  1.0000
  C   C2142     1.0  0.95773  0.57584  0.84265  1.0000
  C   C2143     1.0  0.76464  0.68961  0.75332  1.0000
  H   H2562     1.0  0.71092  0.70977  0.78047  1.0000
  H   H2563     1.0  0.87899  0.96712  0.85935  1.0000
  H   H2564     1.0  0.73353  0.78681  0.78222  1.0000
  C   C2144     1.0  0.80077  0.85130  0.86147  1.0000
  H   H2565     1.0  0.78013  0.65804  0.89188  1.0000
  H   H2566     1.0  0.69083  0.58528  0.79872  1.0000
  H   H2567     1.0  0.89423  0.97792  0.87338  1.0000
  S   S574      1.0  0.98527  0.63444  0.80146  1.0000
  H   H2568     1.0  0.98647  0.56367  0.84595  1.0000
  S   S575      1.0  0.70567  0.77882  0.92462  1.0000
  C   C2145     1.0  0.78669  0.78733  0.99308  1.0000
  H   H2569     1.0  0.73703  0.73959  0.83782  1.0000
  C   C2146     1.0  0.72516  0.63864  0.89010  1.0000
  H   H2570     1.0  0.66760  0.84426  0.97428  1.0000
  H   H2571     1.0  0.68409  0.70254  0.83728  1.0000
  H   H2572     1.0  0.68459  0.66094  0.86523  1.0000
  C   C2147     1.0  0.73653  0.74995  0.82556  1.0000
  C   C2148     1.0  0.99296  0.59122  0.80301  1.0000
  C   C2149     1.0  0.96960  0.60711  0.86191  1.0000
  H   H2573     1.0  0.74049  0.62207  0.91748  1.0000
  H   H2574     1.0  0.93099  0.70814  0.75584  1.0000
  H   H2575     1.0  0.72843  0.95214  0.87069  1.0000
  H   H2576     1.0  0.93022  0.59174  0.84025  1.0000
  C   C2150     1.0  0.75197  0.99151  0.97444  1.0000
  H   H2577     1.0  0.77500  0.74786  0.77652  1.0000
  H   H2578     1.0  0.97672  0.58630  0.79990  1.0000
  C   C2151     1.0  0.67958  0.63506  0.81015  1.0000
  H   H2579     1.0  0.92868  0.65559  0.76204  1.0000
  H   H2580     1.0  0.97396  0.62019  0.86872  1.0000
  C   C2152     1.0  0.67085  0.65433  0.87703  1.0000
  H   H2581     1.0  0.69706  0.99199  0.88982  1.0000
  H   H2582     1.0  0.94042  0.61916  0.85757  1.0000
  H   H2583     1.0  0.67699  0.83999  0.90340  1.0000
  H   H2584     1.0  0.67963  0.73759  0.76429  1.0000
  H   H2585     1.0  0.96708  0.72524  0.77695  1.0000
  C   C2153     1.0  0.66587  0.81254  0.94493  1.0000
  H   H2586     1.0  0.70270  0.56140  0.87476  1.0000
  C   C2154     1.0  0.71355  0.99257  0.80395  1.0000
  C   C2155     1.0  0.94594  0.66874  0.75609  1.0000
  Fe  Fe288     1.0  0.99448  0.66420  0.81342  1.0000
  C   C2156     1.0  0.67885  0.98634  0.91572  1.0000
  C   C2157     1.0  0.76827  0.66733  0.75395  1.0000
  H   H2587     1.0  0.81965  0.86269  0.98701  1.0000
  H   H2588     1.0  0.66889  0.59615  0.85808  1.0000
  H   H2589     1.0  0.66642  0.89422  0.76606  1.0000
  C   C2158     1.0  0.80543  0.97647  0.99485  1.0000
  C   C2159     1.0  0.67628  0.97561  0.93285  1.0000
  H   H2590     1.0  0.66568  0.81548  0.89565  1.0000
  H   H2591     1.0  0.66417  0.70082  0.75975  1.0000
  H   H2592     1.0  0.66413  0.60269  0.91277  1.0000
  S   S576      1.0  0.72662  0.79037  0.74684  1.0000
  C   C2160     1.0  0.66378  0.89393  0.77941  1.0000
