data_image0
_chemical_formula_structural       H2C5HCH3CHC2HCH2NHSH3C2H4SFeS2Fe2S2FeSCFeSHFeSFeS2CSHCSFeSFeSCHCHFeHCHFeSHCSH2SC2FeHSFeSHNCH2S2CH2CH7SC2HNCHC7H4CH2C4H2C4NC2H2SH4C6H4C6H6C2H2CH2SC3HCH3C2H2FeCH2FeC2H2SH2CSFeCH2SCHC2SH3NHC2H3CHCH2CHCH2SNH3CH3FeCH5CH5CHCHCH4CH2C2HCH4CHCHCH2N2CHC2HCHCNC2HC2HC5SHCH2CHCFeCNHCHCHC4HC2HS3H4CH2C2S2FeHC3HC4H2CH2C2HCHFeH2CSHC2HCH3CH3CSC2S2CSC2SHFeS2FeS2FeSFeS3H2CH3CHCHFeSH4C6HCH2CHCH2CH2C6H2CHC6H4C6H5SH3CH2CH5CNC9H14NC5H3CH4CHC2H4NH2CHC5SH2FeH2C2HCN2HCS2HCH2CHCHCH2C2HC3HCH2C2H2C4HCH4NCHC2H2SCHSHCSH3CHSH2FeCHCH5CHCH2SHCSCFeSHSHFeSNFeS2FeSFeHSH2CHCHCHCFeC2HCH2CHC3H2C7H2CHSNC3SCH2CHCH2CH5C2H3C4HSHCH2C2H2CH4CNHC2NH2CH3NHCH3C2HCH2CH2CH2CHC2H5CHCFeS2HC2HSFeS2FeS2FeHFeS3C3SC3HCH2C8H4CH5CH4CH2C4FeHCH3C4HC3H2C2H2CHCHCNH2CHCH6CH2C2H2CH7CHCHNCH3C2FeS2FeS2FeSFeS3CHC2H3C2SFeSFeSNCHFeHSFeS2FeSNFeSFeS3C6H3CSH2CHC4H6C2HC7H4C6H4C6H4FeHC2HCHCNC9H12CH2CH3C3SHCH4CHCH6NC2HC3SHCHC2H4FeHSHSHC3H2C2HNC3HCHCHCH2NCH2C2NSHCH4CH2CH3CH7CHCNCHCHCH2C2NHCHC2H3CH3C2HCHSHFeC3HS2HCH2CH2C2H2CH4C3SC2H2FeSHC2HCFeS2FeS2FeSFeS3NSH2NSFeSHFeS2FeSFeS3HC2HFeHNCH2SCSHC4S2H2C8H4FeCFeSHC2HCHCFeHC2SHC6H4C6H4C3H2FeSHCHCSCH8C2H3C2HSHCH2NC9H15CHNCHC4HC2HFeH3CHCH4SHNH2C5HSHSH5CH2CFeCH2C2HC4HC2SC2H5SC5SHCFeH2C2HCH3CH4C2H3FeSCHCFeH2C2FeHCNCSCH4CSH2C3H2CHCSCHC2HFeCHC2SCHFeH3C2H2C2HCFeH6C2H2C2H4SH5NHCHCHCHSHC3SCH3CHC2FeS2HC3HSFeS2FeS2FeSFeS3FeSFeS2FeSFeSHC2FeS2C2FeSHSFeS2FeSCFe2S3C6H4C6H2CHC6H4C6H5CHC6H5CH6C2HC2HCHCH2NHCH2C2SHCH2FeCHNC9H15CHC2SC2HCHFeCHCFeH3NHCHNC9H14C3HSH4C5H2C2HC3HNHSC2H5CH2CH2C2SCSCHC2H2CH2CHCSHSCHSC3HCFeNCHCHC2H2CHCHCH3NCH4SH10CH2CH2SH2CH2NC2HC2H3C4H3CH3SFeHCSFeS2FeSHFeNFeS3FeS2FeS2FeSFeHS2FeS2FeS2FeSFeS3CH2CH2C7H4C3H3C6H4C6H4C6H5CHCH3CHCH3CHCHS2H3SCH2CH5CHCHCH4CH2C2H2CH4SNCNC3HCHC2HC2H3CH2C2HCSHNC4H14SCHCH2NC9H14C2HC2HCH2CH4CSCFeC2H3C3HCH2C3H3CHC2H2NSNS2FeHSHNH3CHNCH4C3NC3HC2HCH2C2HCH3CHC4H2SH2C8NH2C2H3C4HC2FeCHCHC2HC2NH6CHC3HCH3SCH3CHNFeS2FeSHSCHSCFeSFeSHFeCHFeS2FeHFeS3H3FeS2FeSH2SNFeS2FeS2FeSFeS3C6H4C6H4C6H4C5HC7H4C6H12CH2CHC2H4CFeH8CNC9H13CNCHC2SC2HCNH3C2HCSH7C2HCHC2H4CH4CH3CFeCHCH2SHCHCS2H3NC2HC4HCFeCH4C2HC2H4C2H4CH2S2HCFeCHC4HCH6C2HC2H7CFeSFeSFeHFeS3FeSFeS2FeSFeS3C2SH5C2FeS2FeS2FeSFeS5C6HCH3C2HC6H5C6H4CH2C6H4C5H4CH2CHCH5FeCH2CH4CHCHCHCH4CH3CHNH5C3HNC7H13C3HNHCH2CHCHCH2CSHC3HCHC3NHCHC2NCHCHC2HCH2CHCHC3HC4HNHC2H2C2H3CH3SHNC2HCH2C2H10CHSH5CHCNHC2H2CHCH2C5SHCSHCNH2CH2CSC2H3CHSH2CH4C2FeSHFeS2FeSFeS3FeS2CHFeSHCS2FeS2HSH2FeS2HFeSHFeS2FeSFeS3CHSHCH2NCH2CH5C4HCH3C7H5CH2C2H2C6H4C7H4C6H5CHCH2NC9H14C2HCHCH2C2H6C2HCNC3HCSHCHNHC3HFeHCHCH3FeHCFeCH2CH2CH4CHC2H3CH4NCH2CHC2HCH5CHCNCH2CH2CH3CFeSHFeCSH2FeS3FeS2FeSNFeHFeS2FeS2FeS2FeSFeS3CSFeSC2H2CH2CSH6CHC6H10CFeC4H4C6H4C6H4C6H4CH8CSHC2H2CSHCHCH3CSH2FeHC3H2CHCHC2HNCHC3HCH2CHCHSH2CH2CNSCH6CHFeSC5SCHCSC2HCNC3HSCHC2Fe2CHCSHC2H2C2HSC3H3CH4CNH2CH3CHCH2CH3C3H2C4HC4HNHNCHCH2CHCHCH2CHC2HC3SCH2CNH2SHC2HSC2SHC3HC2H5CH3CSHCH2Fe2SFeS2FeSFeS3CH2SCHCHFeSHSFeHCFeS2HFeSCSFeS2FeS2FeSFeS3FeS2HSHCH2NC6H4CHC4HC6H4C6HSH6C6H4C6H4FeH3NC9H11CHCH2CH2CH2FeH3N2CHCH2CHC3HCS2H2C2H2CH2CH4NCH4NC9H15C2NC2HCHCHC3HCHC3H3SH2C2HCNCFeCH3C4HSHCHC3HSH3CHC2H5SH3C2HC2HC2H2CHSH2SHCH2C2H8CH2C3HCHCHSC2HCHCHCHCH3C2H2C4HSFeS2FeS2FeSFeS3FeS2FeSHFeSFeS3CSCFeSHFeSH2SHFeS2HCHC3HC3H4CHC2H2C6H4C6H4C6H4C6H5C5SHC4HC2H4N2H2CH4CHCHCFeHCH2C4HN2C6H2C2H2CH7CSNC9H16CHCHFeH3CHCHC2H2CHNHCSHCHCHC5HSCH4CHC2FeHC2HCH5CHCH2CHC3H2CHCH2CHC2HCHCHCHCFeHC2H4S3C2H6CHC2H2CSHFeHCHCH3CHCH4C2H3SHCH2CNHCHCSH2CSH3CH2CNHFeHFeNCH3CHCNHFeS2FeS2FeHFeS3CSCSFeSFeC2SFeS2FeSCFeSFeHS2CSFeS2FeSFeCSC8H4C5H3C2H2CSC4HFeCHC6H4C6H5NHC6H3FeH2NC9H11C3NC9H14SHNSH4CSH3NC8H12CHCH2CHC8HCHC2HCH5NC6HCH9CHC2H4CH4SCHCSHCHFeC4SH2CH3CH3CHC2H2Fe2HNH3C2FeCH6NC2HCH5C4FeH2SHC3HCSCSFeHNSCH2CH3CHSC2HSC2H4C2HSH2CHSCH2CFeH2SCHCHC3HCH8S2HSHCSFeS2FeS2FeSFeS3H3FeHSFeS2Fe2CS2CSCH3NCH2CH2SH5SCH4C4H3SH4C6H4C6H3C7H4C6H6C4H3C6H9CHSCH2CSC4FeHCH2CNC9H14C3H5CN2CHCNC2SHSCH2SC2HSHCSH2CHSHCH2CHC2H3CH3CFeHFeNH2C2H4CH2CHCHCHC2H3CH2FeHC2H4C2HSHFeCSCHC4HCSFeS2FeS2FeSHCHCHFeC4H3CSHSCSHCHC6H6CH5C2FeNC4H3CH6SH2C2HC2H3CHNH4NH2CH3SH4CHC5H2CSCFeS2FeSNFeHFeS2FeSCFeSHFeSFeS3H6NH2C2H4C2H2C7H4CHC3HC2H4SC6H2CHCH2C3HCH4CHNSHCNC5HCHSCH9SC3HC2H2C5HCS2H4CHCHSCH5FeSCFeS2FeSFeHS2HCHFeS2H2FeSCSHSH2FeS2HCNHFeSH3SNSFeSFeSHC2SHCSHCH4C2H6C8H3C3HFeH2CH2CHNH2CFeC6H6CH2C6H4C6H4CHC2H3NCH3NC2H2C2HC2HFeHFeNC3SH2CH2CHC2SCHCH2CSH5S2C2H2CH2NC2HCNHC3SH2FeCHC2SC3HC3H3SCFeH3C5SC3H3CH3CHSHC2H2CHCHCHNSCHCHSCHC2HFeC3HSHCH2NSH2C2H2C2H10CH4C2H2CHCHCHCH3C2H2C4HFeHCHCFeHCH3CH2CH3C2HCHSC2SH2CH2CHC3HCHFeS2FeS2FeSFeS3FeS2FeS2FeSFeCS2HSHCSH2CHCSCFeHSHCNCHSHC2H2CSH3CH3C6H5CHCHC2HC5H3CHFeC6H5CHCH2C7H4C6H4CHCNH2C5HC5H2C2H4C2H3FeCH2CH2CHCHCH2NHC3NCSCSCHC2HSCHCH7CH2CH2CH3C6H11C2NC9H4CH3CH7C2H2FeHCH6CH3CH3CH2C3H3C2H3CH3
_chemical_formula_sum              "H2592 C2160 N144 S576 Fe288"
_cell_length_a       68.6143
_cell_length_b       68.8113
_cell_length_c       68.6026
_cell_angle_alpha    82.9775
_cell_angle_beta     83.0726
_cell_angle_gamma    83.0716

_space_group_name_H-M_alt    "P 1"
_space_group_IT_number       1

loop_
  _space_group_symop_operation_xyz
  'x, y, z'

loop_
  _atom_site_type_symbol
  _atom_site_label
  _atom_site_symmetry_multiplicity
  _atom_site_fract_x
  _atom_site_fract_y
  _atom_site_fract_z
  _atom_site_occupancy
  H   H1        1.0  0.48423  0.00899  0.10335  1.0000
  H   H2        1.0  0.32161  0.01177  0.00831  1.0000
  C   C1        1.0  0.34971  0.99719  0.99772  1.0000
  C   C2        1.0  0.33415  0.01230  0.99712  1.0000
  C   C3        1.0  0.49385  0.99627  0.09879  1.0000
  C   C4        1.0  0.06087  0.02307  0.31254  1.0000
  C   C5        1.0  0.04723  0.03928  0.31666  1.0000
  H   H3        1.0  0.03246  0.07968  0.31735  1.0000
  C   C6        1.0  0.02432  0.02763  0.29765  1.0000
  H   H4        1.0  0.00309  0.19446  0.49459  1.0000
  H   H5        1.0  0.01737  0.07499  0.28643  1.0000
  H   H6        1.0  0.07500  0.02103  0.31851  1.0000
  C   C7        1.0  0.01987  0.07260  0.32592  1.0000
  H   H7        1.0  0.01009  0.02821  0.29217  1.0000
  C   C8        1.0  0.02841  0.04197  0.30940  1.0000
  C   C9        1.0  0.03810  0.01158  0.29354  1.0000
  H   H8        1.0  0.03438  0.00053  0.28500  1.0000
  C   C10       1.0  0.00525  0.06892  0.29678  1.0000
  H   H9        1.0  0.02429  0.06581  0.34053  1.0000
  H   H10       1.0  0.05168  0.04928  0.32582  1.0000
  N   N1        1.0  0.01296  0.05797  0.31478  1.0000
  H   H11       1.0  0.00181  0.04027  0.34079  1.0000
  S   S1        1.0  0.01415  0.15924  0.47352  1.0000
  H   H12       1.0  0.00794  0.08466  0.32922  1.0000
  H   H13       1.0  0.47200  0.31751  0.48344  1.0000
  H   H14       1.0  0.04946  0.14692  0.49240  1.0000
  C   C11       1.0  0.05626  0.00919  0.30113  1.0000
  C   C12       1.0  0.02485  0.16955  0.49192  1.0000
  H   H15       1.0  0.29462  0.99746  0.47427  1.0000
  H   H16       1.0  0.06663  0.99634  0.29844  1.0000
  H   H17       1.0  0.47761  0.32864  0.44639  1.0000
  H   H18       1.0  0.25662  0.25248  0.72774  1.0000
  S   S2        1.0  0.08578  0.14839  0.56944  1.0000
  Fe  Fe1       1.0  0.09587  0.19176  0.59846  1.0000
  S   S3        1.0  0.10581  0.16015  0.60756  1.0000
  S   S4        1.0  0.10394  0.21699  0.61401  1.0000
  Fe  Fe2       1.0  0.11455  0.15826  0.57520  1.0000
  Fe  Fe3       1.0  0.07625  0.15373  0.60093  1.0000
  S   S5        1.0  0.05792  0.13290  0.62079  1.0000
  S   S6        1.0  0.06515  0.18558  0.59462  1.0000
  Fe  Fe4       1.0  0.20528  0.04515  0.57837  1.0000
  S   S7        1.0  0.23792  0.04014  0.56908  1.0000
  C   C13       1.0  0.38051  0.18885  0.72784  1.0000
  Fe  Fe5       1.0  0.20869  0.02008  0.61747  1.0000
  S   S8        1.0  0.24144  0.01261  0.61171  1.0000
  H   H19       1.0  0.48572  0.23741  0.73240  1.0000
  Fe  Fe6       1.0  0.24133  0.04500  0.60079  1.0000
  S   S9        1.0  0.25968  0.06814  0.60884  1.0000
  Fe  Fe7       1.0  0.23535  0.00823  0.58075  1.0000
  S   S10       1.0  0.20867  0.05238  0.60863  1.0000
  S   S11       1.0  0.20287  0.01326  0.58798  1.0000
  C   C14       1.0  0.28103  0.22910  0.72274  1.0000
  S   S12       1.0  0.28823  0.13461  0.70079  1.0000
  H   H20       1.0  0.30722  0.29254  0.69692  1.0000
  C   C15       1.0  0.01233  0.12049  0.55898  1.0000
  S   S13       1.0  0.33075  0.11333  0.71264  1.0000
  Fe  Fe8       1.0  0.31421  0.14353  0.71354  1.0000
  S   S14       1.0  0.32573  0.17302  0.70309  1.0000
  Fe  Fe9       1.0  0.30329  0.10368  0.70312  1.0000
  S   S15       1.0  0.30162  0.07774  0.68542  1.0000
  C   C16       1.0  0.00369  0.01020  0.65144  1.0000
  H   H21       1.0  0.06685  0.20546  0.63082  1.0000
  C   C17       1.0  0.15682  0.07546  0.62457  1.0000
  H   H22       1.0  0.02332  0.10598  0.52343  1.0000
  Fe  Fe10      1.0  0.41126  0.26801  0.72877  1.0000
  H   H23       1.0  0.21130  0.15936  0.72382  1.0000
  C   C18       1.0  0.14935  0.99816  0.53939  1.0000
  H   H24       1.0  0.10965  0.05692  0.59278  1.0000
  Fe  Fe11      1.0  0.44640  0.24739  0.70526  1.0000
  S   S16       1.0  0.47179  0.25232  0.68102  1.0000
  H   H25       1.0  0.22754  0.06724  0.69625  1.0000
  C   C19       1.0  0.00959  0.20156  0.62056  1.0000
  S   S17       1.0  0.41361  0.24773  0.70495  1.0000
  H   H26       1.0  0.23072  0.00148  0.53137  1.0000
  H   H27       1.0  0.07548  0.20555  0.65417  1.0000
  S   S18       1.0  0.47132  0.28439  0.58936  1.0000
  C   C20       1.0  0.27228  0.24795  0.72770  1.0000
  C   C21       1.0  0.06405  0.17042  0.65166  1.0000
  Fe  Fe12      1.0  0.16391  0.23937  0.70616  1.0000
  H   H28       1.0  0.27671  0.27592  0.73669  1.0000
  S   S19       1.0  0.15201  0.21754  0.68865  1.0000
  Fe  Fe13      1.0  0.19620  0.26597  0.71085  1.0000
  S   S20       1.0  0.24349  0.13282  0.73742  1.0000
  H   H29       1.0  0.25250  0.07218  0.68701  1.0000
  N   N2        1.0  0.16577  0.01053  0.53349  1.0000
  C   C22       1.0  0.35346  0.02724  0.72847  1.0000
  H   H30       1.0  0.22283  0.08688  0.62966  1.0000
  H   H31       1.0  0.08231  0.08055  0.63497  1.0000
  S   S21       1.0  0.19626  0.23336  0.71064  1.0000
  S   S22       1.0  0.16461  0.27247  0.70354  1.0000
  C   C23       1.0  0.21166  0.31560  0.70893  1.0000
  H   H32       1.0  0.06426  0.15899  0.51944  1.0000
  H   H33       1.0  0.00116  0.12394  0.57161  1.0000
  C   C24       1.0  0.15531  0.06222  0.64160  1.0000
  H   H34       1.0  0.33467  0.03886  0.69486  1.0000
  H   H35       1.0  0.21363  0.13358  0.68040  1.0000
  H   H36       1.0  0.25926  0.29498  0.70785  1.0000
  H   H37       1.0  0.26705  0.19945  0.69182  1.0000
  H   H38       1.0  0.36340  0.06326  0.73683  1.0000
  H   H39       1.0  0.07824  0.17036  0.65802  1.0000
  H   H40       1.0  0.22688  0.17354  0.61831  1.0000
  S   S23       1.0  0.05235  0.19333  0.54173  1.0000
  C   C25       1.0  0.24963  0.10892  0.69479  1.0000
  C   C26       1.0  0.18034  0.19291  0.60744  1.0000
  H   H41       1.0  0.20357  0.09583  0.70940  1.0000
  N   N3        1.0  0.26948  0.21404  0.71739  1.0000
  C   C27       1.0  0.17077  0.08285  0.56383  1.0000
  H   H42       1.0  0.29153  0.20426  0.69430  1.0000
  C   C28       1.0  0.37228  0.30717  0.73518  1.0000
  C   C29       1.0  0.47088  0.26218  0.65584  1.0000
  C   C30       1.0  0.45410  0.26232  0.64605  1.0000
  C   C31       1.0  0.45456  0.26898  0.62570  1.0000
  C   C32       1.0  0.47159  0.27601  0.61498  1.0000
  C   C33       1.0  0.01988  0.17331  0.65142  1.0000
  C   C34       1.0  0.48789  0.26925  0.64512  1.0000
  H   H43       1.0  0.44097  0.25674  0.65400  1.0000
  H   H44       1.0  0.44166  0.26850  0.61819  1.0000
  H   H45       1.0  0.35809  0.07643  0.71379  1.0000
  H   H46       1.0  0.19029  0.01512  0.51111  1.0000
  C   C35       1.0  0.45059  0.16503  0.72465  1.0000
  H   H47       1.0  0.01722  0.10442  0.56057  1.0000
  H   H48       1.0  0.28875  0.18864  0.72824  1.0000
  C   C36       1.0  0.15020  0.99906  0.64229  1.0000
  C   C37       1.0  0.08555  0.07525  0.62010  1.0000
  C   C38       1.0  0.12162  0.07499  0.62114  1.0000
  C   C39       1.0  0.45782  0.13039  0.73358  1.0000
  H   H49       1.0  0.17178  0.01295  0.56328  1.0000
  H   H50       1.0  0.34387  0.06212  0.68996  1.0000
  C   C40       1.0  0.10798  0.07330  0.59062  1.0000
  C   C41       1.0  0.34674  0.17891  0.71293  1.0000
  C   C42       1.0  0.35362  0.19741  0.70719  1.0000
  C   C43       1.0  0.37041  0.20241  0.71465  1.0000
  N   N4        1.0  0.10447  0.08156  0.60983  1.0000
  C   C44       1.0  0.31314  0.23916  0.72769  1.0000
  C   C45       1.0  0.35669  0.16547  0.72633  1.0000
  H   H51       1.0  0.34606  0.20786  0.69678  1.0000
  H   H52       1.0  0.37566  0.21663  0.71001  1.0000
  S   S24       1.0  0.15430  0.23707  0.73905  1.0000
  H   H53       1.0  0.44804  0.12778  0.72253  1.0000
  H   H54       1.0  0.01821  0.20697  0.52132  1.0000
  H   H55       1.0  0.00579  0.21220  0.60822  1.0000
  H   H56       1.0  0.00672  0.16598  0.58098  1.0000
  C   C46       1.0  0.27035  0.07057  0.63081  1.0000
  C   C47       1.0  0.27455  0.05456  0.64489  1.0000
  C   C48       1.0  0.28416  0.05704  0.66140  1.0000
  C   C49       1.0  0.28916  0.07564  0.66443  1.0000
  C   C50       1.0  0.28453  0.09173  0.65060  1.0000
  C   C51       1.0  0.27538  0.08915  0.63385  1.0000
  H   H57       1.0  0.27097  0.04014  0.64273  1.0000
  H   H58       1.0  0.28776  0.04441  0.67187  1.0000
  H   H59       1.0  0.28851  0.10608  0.65247  1.0000
  H   H60       1.0  0.27233  0.10163  0.62302  1.0000
  C   C52       1.0  0.11642  0.21694  0.63544  1.0000
  C   C53       1.0  0.12130  0.19968  0.64773  1.0000
  C   C54       1.0  0.13196  0.20027  0.66401  1.0000
  C   C55       1.0  0.13769  0.21810  0.66845  1.0000
  C   C56       1.0  0.13247  0.23540  0.65638  1.0000
  C   C57       1.0  0.12191  0.23479  0.64001  1.0000
  H   H61       1.0  0.11713  0.18582  0.64458  1.0000
  H   H62       1.0  0.13592  0.18678  0.67320  1.0000
  H   H63       1.0  0.13674  0.24923  0.65952  1.0000
  H   H64       1.0  0.11816  0.24828  0.63072  1.0000
  H   H65       1.0  0.14678  0.03414  0.51972  1.0000
  H   H66       1.0  0.38927  0.32183  0.68032  1.0000
  C   C58       1.0  0.14472  0.10992  0.55912  1.0000
  C   C59       1.0  0.15277  0.09047  0.55665  1.0000
  H   H67       1.0  0.13102  0.11582  0.55323  1.0000
  H   H68       1.0  0.14512  0.08136  0.54900  1.0000
  C   C60       1.0  0.03247  0.18833  0.64511  1.0000
  H   H69       1.0  0.27378  0.22421  0.68644  1.0000
  H   H70       1.0  0.20096  0.14336  0.64847  1.0000
  S   S25       1.0  0.10536  0.19032  0.56599  1.0000
  C   C61       1.0  0.17923  0.00790  0.54919  1.0000
  C   C62       1.0  0.13728  0.05511  0.64847  1.0000
  C   C63       1.0  0.00464  0.02597  0.63629  1.0000
  H   H71       1.0  0.32444  0.07068  0.72175  1.0000
  C   C64       1.0  0.03381  0.13680  0.61387  1.0000
  H   H72       1.0  0.14246  0.09143  0.60095  1.0000
  H   H73       1.0  0.11429  0.10947  0.59625  1.0000
  H   H74       1.0  0.10027  0.11025  0.62015  1.0000
  C   C65       1.0  0.02947  0.15040  0.59769  1.0000
  C   C66       1.0  0.36250  0.06143  0.72104  1.0000
  H   H75       1.0  0.04104  0.15764  0.58870  1.0000
  H   H76       1.0  0.05883  0.19094  0.68368  1.0000
  Fe  Fe14      1.0  0.41467  0.22365  0.73045  1.0000
  C   C67       1.0  0.00259  0.17270  0.64274  1.0000
  H   H77       1.0  0.43626  0.32119  0.58150  1.0000
  H   H78       1.0  0.42938  0.31118  0.73403  1.0000
  Fe  Fe15      1.0  0.49638  0.29784  0.56915  1.0000
  C   C68       1.0  0.44214  0.32009  0.73083  1.0000
  C   C69       1.0  0.29466  0.31924  0.68107  1.0000
  H   H79       1.0  0.45561  0.30965  0.73306  1.0000
  H   H80       1.0  0.01273  0.15623  0.54063  1.0000
  S   S26       1.0  0.14683  0.14713  0.56934  1.0000
  H   H81       1.0  0.32788  0.01509  0.72048  1.0000
  H   H82       1.0  0.19197  0.01677  0.54508  1.0000
  C   C70       1.0  0.04215  0.18366  0.52259  1.0000
  S   S27       1.0  0.18807  0.00808  0.64259  1.0000
  Fe  Fe16      1.0  0.27663  0.12748  0.73246  1.0000
  C   C71       1.0  0.20826  0.12863  0.65161  1.0000
  H   H83       1.0  0.44319  0.17934  0.72898  1.0000
  H   H84       1.0  0.47318  0.12985  0.72604  1.0000
  S   S28       1.0  0.40196  0.19415  0.73730  1.0000
  C   C72       1.0  0.02487  0.19362  0.51528  1.0000
  H   H85       1.0  0.19477  0.08908  0.57877  1.0000
  C   C73       1.0  0.04239  0.15988  0.49889  1.0000
  C   C74       1.0  0.39739  0.32468  0.66585  1.0000
  S   S29       1.0  0.18839  0.26551  0.74349  1.0000
  H   H86       1.0  0.05285  0.21998  0.64899  1.0000
  H   H87       1.0  0.33722  0.30671  0.70279  1.0000
  H   H88       1.0  0.05740  0.15689  0.65842  1.0000
  N   N5        1.0  0.45173  0.14953  0.74171  1.0000
  H   H89       1.0  0.44719  0.32183  0.68082  1.0000
  C   C75       1.0  0.21708  0.16579  0.73526  1.0000
  C   C76       1.0  0.48821  0.27629  0.62488  1.0000
  H   H90       1.0  0.16831  0.05678  0.64901  1.0000
  H   H91       1.0  0.08840  0.10877  0.59857  1.0000
  H   H92       1.0  0.43260  0.30461  0.60327  1.0000
  C   C77       1.0  0.18077  0.09478  0.57341  1.0000
  H   H93       1.0  0.18122  0.12376  0.58210  1.0000
  C   C78       1.0  0.24780  0.21986  0.71935  1.0000
  H   H94       1.0  0.03433  0.12784  0.52598  1.0000
  H   H95       1.0  0.38123  0.15982  0.74385  1.0000
  C   C79       1.0  0.14333  0.02609  0.60926  1.0000
  H   H96       1.0  0.28181  0.31224  0.67935  1.0000
  C   C80       1.0  0.42390  0.31503  0.64118  1.0000
  H   H97       1.0  0.26359  0.32774  0.71775  1.0000
  H   H98       1.0  0.16959  0.04134  0.52567  1.0000
  S   S30       1.0  0.29053  0.09624  0.73452  1.0000
  N   N6        1.0  0.05067  0.18866  0.65467  1.0000
  H   H99       1.0  0.03470  0.20269  0.67902  1.0000
  H   H100      1.0  0.26411  0.18389  0.72708  1.0000
  H   H101      1.0  0.20545  0.17560  0.59233  1.0000
  C   C81       1.0  0.05082  0.16667  0.51429  1.0000
  H   H102      1.0  0.17231  0.03388  0.61075  1.0000
  H   H103      1.0  0.03905  0.17636  0.68372  1.0000
  H   H104      1.0  0.46552  0.16758  0.71726  1.0000
  Fe  Fe17      1.0  0.07550  0.18066  0.56292  1.0000
  C   C82       1.0  0.17305  0.11440  0.57530  1.0000
  H   H105      1.0  0.01646  0.12874  0.50898  1.0000
  H   H106      1.0  0.12167  0.07782  0.58182  1.0000
  H   H107      1.0  0.13640  0.04412  0.66122  1.0000
  H   H108      1.0  0.17099  0.08050  0.61885  1.0000
  H   H109      1.0  0.01620  0.02511  0.62414  1.0000
  C   C83       1.0  0.16137  0.02429  0.61715  1.0000
  H   H110      1.0  0.02203  0.11606  0.63714  1.0000
  H   H111      1.0  0.25653  0.10451  0.70875  1.0000
  H   H112      1.0  0.23499  0.07606  0.66117  1.0000
  H   H113      1.0  0.14857  0.21646  0.57517  1.0000
  H   H114      1.0  0.14847  0.22099  0.59994  1.0000
  C   C84       1.0  0.14999  0.18245  0.60023  1.0000
  H   H115      1.0  0.16469  0.18818  0.56235  1.0000
  C   C85       1.0  0.27573  0.21036  0.69659  1.0000
  H   H116      1.0  0.09557  0.07809  0.58146  1.0000
  C   C86       1.0  0.32863  0.05540  0.72832  1.0000
  H   H117      1.0  0.18190  0.20635  0.65385  1.0000
  H   H118      1.0  0.20552  0.12021  0.62289  1.0000
  H   H119      1.0  0.14084  0.03667  0.59656  1.0000
  H   H120      1.0  0.18038  0.17053  0.57567  1.0000
  C   C87       1.0  0.13207  0.00077  0.63431  1.0000
  H   H121      1.0  0.24449  0.07248  0.71246  1.0000
  H   H122      1.0  0.21554  0.18883  0.64917  1.0000
  C   C88       1.0  0.12064  0.06127  0.63843  1.0000
  C   C89       1.0  0.17550  0.18662  0.57351  1.0000
  H   H123      1.0  0.18822  0.19466  0.56678  1.0000
  C   C90       1.0  0.16491  0.01076  0.63362  1.0000
  H   H124      1.0  0.45780  0.30411  0.69878  1.0000
  H   H125      1.0  0.15981  0.20894  0.62828  1.0000
  H   H126      1.0  0.37747  0.05667  0.71392  1.0000
  H   H127      1.0  0.13911  0.18312  0.58934  1.0000
  C   C91       1.0  0.34124  0.01214  0.72773  1.0000
  H   H128      1.0  0.13885  0.01144  0.56671  1.0000
  C   C92       1.0  0.02028  0.12218  0.52388  1.0000
  H   H129      1.0  0.23948  0.20805  0.71576  1.0000
  C   C93       1.0  0.99969  0.14878  0.53854  1.0000
  H   H130      1.0  0.41719  0.29812  0.66930  1.0000
  H   H131      1.0  0.21342  0.11872  0.71079  1.0000
  N   N7        1.0  0.34813  0.04743  0.71910  1.0000
  N   N8        1.0  0.16643  0.19420  0.59229  1.0000
  C   C94       1.0  0.37354  0.17040  0.73367  1.0000
  H   H132      1.0  0.17012  0.22470  0.58288  1.0000
  C   C95       1.0  0.15503  0.12202  0.56818  1.0000
  C   C96       1.0  0.30186  0.22526  0.72267  1.0000
  H   H133      1.0  0.35152  0.15119  0.73086  1.0000
  C   C97       1.0  0.22484  0.10352  0.67457  1.0000
  H   H134      1.0  0.14172  0.18785  0.61375  1.0000
  C   C98       1.0  0.15816  0.21497  0.58740  1.0000
  N   N9        1.0  0.00441  0.12706  0.53975  1.0000
  C   C99       1.0  0.13672  0.00067  0.55712  1.0000
  C   C100      1.0  0.12864  0.01440  0.61784  1.0000
  H   H135      1.0  0.15540  0.16666  0.60391  1.0000
  C   C101      1.0  0.21536  0.12279  0.66995  1.0000
  C   C102      1.0  0.04557  0.18968  0.67619  1.0000
  H   H136      1.0  0.22253  0.09735  0.72508  1.0000
  C   C103      1.0  0.18693  0.19978  0.64024  1.0000
  C   C104      1.0  0.21730  0.10261  0.71038  1.0000
  C   C105      1.0  0.17437  0.20128  0.62542  1.0000
  C   C106      1.0  0.23948  0.07648  0.69750  1.0000
  C   C107      1.0  0.22734  0.09074  0.65944  1.0000
  S   S31       1.0  0.44407  0.26851  0.72800  1.0000
  H   H137      1.0  0.03552  0.21428  0.62319  1.0000
  C   C108      1.0  0.10186  0.10340  0.60607  1.0000
  H   H138      1.0  0.24528  0.12507  0.69407  1.0000
  H   H139      1.0  0.32902  0.23576  0.72761  1.0000
  C   C109      1.0  0.22788  0.30139  0.70669  1.0000
  H   H140      1.0  0.07277  0.08127  0.61177  1.0000
  C   C110      1.0  0.19966  0.18268  0.60534  1.0000
  Fe  Fe18      1.0  0.15698  0.26959  0.73681  1.0000
  C   C111      1.0  0.17782  0.00584  0.51483  1.0000
  N   N10       1.0  0.23264  0.09782  0.69393  1.0000
  H   H141      1.0  0.26128  0.10629  0.68238  1.0000
  C   C112      1.0  0.14031  0.08169  0.61442  1.0000
  H   H142      1.0  0.02540  0.12812  0.56065  1.0000
  C   C113      1.0  0.20583  0.18987  0.63764  1.0000
  H   H143      1.0  0.19718  0.31232  0.70642  1.0000
  C   C114      1.0  0.21077  0.11564  0.63721  1.0000
  C   C115      1.0  0.00999  0.15495  0.59314  1.0000
  C   C116      1.0  0.22038  0.09680  0.64109  1.0000
  C   C117      1.0  0.21216  0.18130  0.62026  1.0000
  H   H144      1.0  0.43604  0.30426  0.63710  1.0000
  C   C118      1.0  0.23342  0.15603  0.74414  1.0000
  C   C119      1.0  0.01872  0.12679  0.62476  1.0000
  H   H145      1.0  0.43147  0.30748  0.69833  1.0000
  S   S32       1.0  0.18064  0.05857  0.56022  1.0000
  S   S33       1.0  0.22509  0.27829  0.69930  1.0000
  S   S34       1.0  0.10609  0.01711  0.60783  1.0000
  H   H146      1.0  0.42089  0.14557  0.74268  1.0000
  H   H147      1.0  0.48980  0.32140  0.63163  1.0000
  H   H148      1.0  0.31651  0.04684  0.72604  1.0000
  H   H149      1.0  0.08564  0.05890  0.62167  1.0000
  C   C120      1.0  0.44493  0.31536  0.69648  1.0000
  H   H150      1.0  0.44165  0.16123  0.71342  1.0000
  H   H151      1.0  0.16891  0.00858  0.50206  1.0000
  C   C121      1.0  0.20796  0.18376  0.74130  1.0000
  C   C122      1.0  0.28372  0.26173  0.73276  1.0000
  S   S35       1.0  0.39422  0.29786  0.72159  1.0000
  S   S36       1.0  0.44780  0.22139  0.72851  1.0000
  Fe  Fe19      1.0  0.31676  0.10783  0.74397  1.0000
  H   H152      1.0  0.10738  0.05459  0.64416  1.0000
  C   C123      1.0  0.24666  0.30592  0.70965  1.0000
  C   C124      1.0  0.30922  0.30767  0.69127  1.0000
  C   C125      1.0  0.32616  0.31558  0.69452  1.0000
  H   H153      1.0  0.24369  0.23322  0.70913  1.0000
  C   C126      1.0  0.06183  0.20567  0.64682  1.0000
  C   C127      1.0  0.02678  0.20251  0.62934  1.0000
  C   C128      1.0  0.42755  0.31953  0.59630  1.0000
  C   C129      1.0  0.37070  0.02188  0.73840  1.0000
  H   H154      1.0  0.48764  0.32574  0.49955  1.0000
  H   H155      1.0  0.06764  0.16882  0.63567  1.0000
  C   C130      1.0  0.01622  0.18658  0.50016  1.0000
  H   H156      1.0  0.38089  0.03227  0.73988  1.0000
  H   H157      1.0  0.36090  0.04001  0.69034  1.0000
  C   C131      1.0  0.15770  0.03157  0.53075  1.0000
  C   C132      1.0  0.34691  0.04701  0.69770  1.0000
  H   H158      1.0  0.19520  0.19111  0.73453  1.0000
  C   C133      1.0  0.24914  0.32447  0.71516  1.0000
  H   H159      1.0  0.02348  0.16168  0.66290  1.0000
  Fe  Fe20      1.0  0.18659  0.23337  0.74283  1.0000
  H   H160      1.0  0.24208  0.22276  0.73475  1.0000
  H   H161      1.0  0.31284  0.26804  0.73685  1.0000
  C   C134      1.0  0.41323  0.31141  0.65970  1.0000
  S   S37       1.0  0.30140  0.13860  0.74522  1.0000
  H   H162      1.0  0.15029  0.03689  0.54476  1.0000
  C   C135      1.0  0.27315  0.19530  0.73029  1.0000
  C   C136      1.0  0.30407  0.25732  0.73283  1.0000
  H   H163      1.0  0.32873  0.05578  0.74450  1.0000
  C   C137      1.0  0.99922  0.13096  0.61987  1.0000
  H   H164      1.0  0.45817  0.31960  0.61619  1.0000
  H   H165      1.0  0.30962  0.21144  0.71865  1.0000
  H   H166      1.0  0.41175  0.31962  0.59400  1.0000
  C   C138      1.0  0.36205  0.32475  0.72743  1.0000
  H   H167      1.0  0.45698  0.11770  0.74528  1.0000
  H   H168      1.0  0.26946  0.19757  0.74616  1.0000
  H   H169      1.0  0.30999  0.04102  0.83319  1.0000
  C   C139      1.0  0.44821  0.00853  0.81127  1.0000
  S   S38       1.0  0.13005  0.30899  0.84182  1.0000
  C   C140      1.0  0.33781  0.32413  0.75634  1.0000
  C   C141      1.0  0.33458  0.02830  0.98240  1.0000
  S   S39       1.0  0.48552  0.20224  0.91680  1.0000
  S   S40       1.0  0.47997  0.14322  0.92228  1.0000
  C   C142      1.0  0.16439  0.21940  0.83051  1.0000
  S   S41       1.0  0.46963  0.23152  0.86600  1.0000
  C   C143      1.0  0.49088  0.16370  0.78158  1.0000
  C   C144      1.0  0.36512  0.29790  0.75349  1.0000
  S   S42       1.0  0.47670  0.03409  0.80781  1.0000
  H   H170      1.0  0.41178  0.00311  0.84095  1.0000
  Fe  Fe21      1.0  0.39365  0.04813  0.88624  1.0000
  S   S43       1.0  0.36121  0.04599  0.89340  1.0000
  S   S44       1.0  0.41311  0.02276  0.87464  1.0000
  Fe  Fe22      1.0  0.39136  0.09042  0.89527  1.0000
  S   S45       1.0  0.35874  0.09084  0.90436  1.0000
  S   S46       1.0  0.40356  0.12024  0.89015  1.0000
  Fe  Fe23      1.0  0.36557  0.06032  0.92002  1.0000
  S   S47       1.0  0.34940  0.05092  0.95002  1.0000
  Fe  Fe24      1.0  0.35770  0.07630  0.87697  1.0000
  S   S48       1.0  0.33361  0.08863  0.85734  1.0000
  S   S49       1.0  0.39839  0.06129  0.91347  1.0000
  S   S50       1.0  0.38994  0.07695  0.86728  1.0000
  H   H171      1.0  0.13606  0.24015  0.77989  1.0000
  H   H172      1.0  0.10556  0.31443  0.77635  1.0000
  C   C145      1.0  0.15859  0.21008  0.79936  1.0000
  H   H173      1.0  0.32624  0.05604  0.81727  1.0000
  H   H174      1.0  0.47205  0.27586  0.79588  1.0000
  H   H175      1.0  0.45698  0.02510  0.86876  1.0000
  C   C146      1.0  0.13018  0.24762  0.82867  1.0000
  H   H176      1.0  0.49514  0.09678  0.95716  1.0000
  C   C147      1.0  0.36587  0.99822  0.98297  1.0000
  H   H177      1.0  0.45220  0.19349  0.85063  1.0000
  Fe  Fe25      1.0  0.44325  0.24268  0.75136  1.0000
  S   S51       1.0  0.46643  0.23440  0.77311  1.0000
  H   H178      1.0  0.48250  0.12498  0.75930  1.0000
  H   H179      1.0  0.18898  0.23139  0.80038  1.0000
  H   H180      1.0  0.39729  0.04351  0.83581  1.0000
  H   H181      1.0  0.33448  0.00611  0.79988  1.0000
  C   C148      1.0  0.13342  0.29628  0.77700  1.0000
  C   C149      1.0  0.11732  0.30840  0.78524  1.0000
  C   C150      1.0  0.11618  0.31261  0.80498  1.0000
  C   C151      1.0  0.13108  0.30458  0.81675  1.0000
  C   C152      1.0  0.14730  0.29266  0.80844  1.0000
  C   C153      1.0  0.14859  0.28871  0.78860  1.0000
  H   H182      1.0  0.15266  0.21116  0.83927  1.0000
  C   C154      1.0  0.34795  0.30642  0.76407  1.0000
  H   H183      1.0  0.15891  0.28648  0.81743  1.0000
  H   H184      1.0  0.16121  0.27976  0.78226  1.0000
  C   C155      1.0  0.35043  0.02954  0.96759  1.0000
  H   H185      1.0  0.15785  0.21441  0.78330  1.0000
  C   C156      1.0  0.42948  0.19622  0.79865  1.0000
  H   H186      1.0  0.10612  0.26665  0.84180  1.0000
  H   H187      1.0  0.14598  0.20148  0.80511  1.0000
  C   C157      1.0  0.49739  0.26974  0.81230  1.0000
  H   H188      1.0  0.34257  0.29936  0.77833  1.0000
  H   H189      1.0  0.47774  0.08503  0.88367  1.0000
  C   C158      1.0  0.46835  0.23110  0.84036  1.0000
  C   C159      1.0  0.45191  0.24116  0.83166  1.0000
  C   C160      1.0  0.45078  0.24192  0.81117  1.0000
  C   C161      1.0  0.46633  0.23297  0.79911  1.0000
  C   C162      1.0  0.48272  0.22280  0.80784  1.0000
  C   C163      1.0  0.48362  0.22163  0.82837  1.0000
  H   H190      1.0  0.44005  0.24857  0.84081  1.0000
  H   H191      1.0  0.43811  0.24986  0.80469  1.0000
  C   C164      1.0  0.39790  0.00543  0.87032  1.0000
  H   H192      1.0  0.40630  0.15549  0.79822  1.0000
  C   C165      1.0  0.45845  0.13695  0.91379  1.0000
  C   C166      1.0  0.44507  0.15137  0.90510  1.0000
  C   C167      1.0  0.42803  0.14604  0.89850  1.0000
  C   C168      1.0  0.42422  0.12624  0.90046  1.0000
  C   C169      1.0  0.43730  0.11186  0.90968  1.0000
  C   C170      1.0  0.45437  0.11720  0.91631  1.0000
  H   H193      1.0  0.44770  0.16668  0.90386  1.0000
  H   H194      1.0  0.41773  0.15732  0.89185  1.0000
  H   H195      1.0  0.43423  0.09668  0.91176  1.0000
  H   H196      1.0  0.46447  0.10600  0.92337  1.0000
  C   C171      1.0  0.33756  0.09199  0.78967  1.0000
  C   C172      1.0  0.32049  0.09980  0.80058  1.0000
  C   C173      1.0  0.31969  0.09906  0.82127  1.0000
  C   C174      1.0  0.33598  0.09077  0.83121  1.0000
  C   C175      1.0  0.35337  0.08382  0.82022  1.0000
  C   C176      1.0  0.35405  0.08417  0.79957  1.0000
  H   H197      1.0  0.30769  0.10582  0.79316  1.0000
  H   H198      1.0  0.30619  0.10454  0.82966  1.0000
  H   H199      1.0  0.36609  0.07766  0.82767  1.0000
  H   H200      1.0  0.36732  0.07806  0.79127  1.0000
  H   H201      1.0  0.32112  0.00543  0.84226  1.0000
  S   S52       1.0  0.49072  0.11063  0.84718  1.0000
  H   H202      1.0  0.43331  0.14387  0.85777  1.0000
  H   H203      1.0  0.45822  0.14035  0.86390  1.0000
  H   H204      1.0  0.44773  0.00939  0.82696  1.0000
  C   C177      1.0  0.46130  0.01850  0.77777  1.0000
  H   H205      1.0  0.45021  0.19978  0.81822  1.0000
  H   H206      1.0  0.33114  0.04766  0.84222  1.0000
  C   C178      1.0  0.44079  0.18975  0.81430  1.0000
  H   H207      1.0  0.45571  0.08769  0.86310  1.0000
  H   H208      1.0  0.45635  0.17380  0.86920  1.0000
  H   H209      1.0  0.43196  0.18018  0.86180  1.0000
  H   H210      1.0  0.47758  0.17845  0.82667  1.0000
  H   H211      1.0  0.40831  0.18902  0.78075  1.0000
  C   C179      1.0  0.43591  0.99637  0.80441  1.0000
  N   N11       1.0  0.35814  0.14380  0.85015  1.0000
  C   C180      1.0  0.33728  0.14023  0.85635  1.0000
  C   C181      1.0  0.37059  0.12461  0.85113  1.0000
  C   C182      1.0  0.36437  0.15530  0.86488  1.0000
  C   C183      1.0  0.35989  0.15367  0.82966  1.0000
  C   C184      1.0  0.36555  0.17305  0.82479  1.0000
  C   C185      1.0  0.35539  0.14402  0.81383  1.0000
  C   C186      1.0  0.36655  0.18207  0.80531  1.0000
  C   C187      1.0  0.35660  0.15311  0.79440  1.0000
  C   C188      1.0  0.36216  0.17211  0.79014  1.0000
  H   H212      1.0  0.33173  0.13078  0.84666  1.0000
  H   H213      1.0  0.33540  0.13239  0.87158  1.0000
  H   H214      1.0  0.32736  0.15427  0.85604  1.0000
  H   H215      1.0  0.36579  0.11410  0.84211  1.0000
  H   H216      1.0  0.36985  0.11713  0.86650  1.0000
  H   H217      1.0  0.38637  0.12649  0.84623  1.0000
  H   H218      1.0  0.36330  0.14712  0.88001  1.0000
  H   H219      1.0  0.38011  0.15816  0.86135  1.0000
  H   H220      1.0  0.35489  0.16950  0.86602  1.0000
  H   H221      1.0  0.36914  0.18163  0.83577  1.0000
  H   H222      1.0  0.35061  0.12942  0.81639  1.0000
  H   H223      1.0  0.37069  0.19694  0.80191  1.0000
  H   H224      1.0  0.35292  0.14545  0.78261  1.0000
  H   H225      1.0  0.36290  0.17922  0.77508  1.0000
  N   N12       1.0  0.46060  0.05584  0.86958  1.0000
  C   C189      1.0  0.45858  0.03890  0.85871  1.0000
  C   C190      1.0  0.44470  0.05658  0.88612  1.0000
  C   C191      1.0  0.45757  0.07402  0.85567  1.0000
  C   C192      1.0  0.47987  0.05427  0.87765  1.0000
  C   C193      1.0  0.38282  0.99946  0.88460  1.0000
  H   H226      1.0  0.10498  0.26112  0.78047  1.0000
  H   H227      1.0  0.17145  0.24446  0.78494  1.0000
  H   H228      1.0  0.47019  0.07503  0.84394  1.0000
  C   C194      1.0  0.12956  0.24465  0.79395  1.0000
  H   H229      1.0  0.47153  0.03633  0.84759  1.0000
  H   H230      1.0  0.44579  0.04289  0.89662  1.0000
  H   H231      1.0  0.42993  0.05811  0.88066  1.0000
  H   H232      1.0  0.44520  0.06921  0.89463  1.0000
  C   C195      1.0  0.11239  0.25991  0.82861  1.0000
  H   H233      1.0  0.44397  0.07449  0.84820  1.0000
  C   C196      1.0  0.35836  0.02909  0.81599  1.0000
  C   C197      1.0  0.48650  0.07087  0.88424  1.0000
  H   H234      1.0  0.45208  0.18446  0.75754  1.0000
  H   H235      1.0  0.25317  0.15667  0.76613  1.0000
  H   H236      1.0  0.49168  0.28227  0.76359  1.0000
  H   H237      1.0  0.16753  0.23131  0.83892  1.0000
  N   N13       1.0  0.45227  0.16441  0.84125  1.0000
  H   H238      1.0  0.32815  0.03211  0.79240  1.0000
  H   H239      1.0  0.44910  0.00581  0.75521  1.0000
  C   C198      1.0  0.36869  0.02540  0.79730  1.0000
  H   H240      1.0  0.13680  0.24533  0.84236  1.0000
  C   C199      1.0  0.41708  0.18390  0.79290  1.0000
  C   C200      1.0  0.48002  0.13993  0.76311  1.0000
  C   C201      1.0  0.47347  0.16387  0.83368  1.0000
  C   C202      1.0  0.44895  0.14456  0.85143  1.0000
  C   C203      1.0  0.47627  0.17782  0.77471  1.0000
  S   S53       1.0  0.07536  0.32544  0.86820  1.0000
  H   H241      1.0  0.43044  0.21089  0.79091  1.0000
  H   H242      1.0  0.48822  0.02262  0.87592  1.0000
  Fe  Fe26      1.0  0.49129  0.21110  0.88388  1.0000
  H   H243      1.0  0.42586  0.14362  0.82535  1.0000
  H   H244      1.0  0.02870  0.31742  0.89731  1.0000
  C   C204      1.0  0.33650  0.00901  0.83762  1.0000
  C   C205      1.0  0.44793  0.17859  0.85627  1.0000
  H   H245      1.0  0.47480  0.19250  0.77926  1.0000
  C   C206      1.0  0.42734  0.15840  0.81841  1.0000
  N   N14       1.0  0.33745  0.02550  0.82163  1.0000
  N   N15       1.0  0.15863  0.22725  0.81060  1.0000
  H   H246      1.0  0.47754  0.15301  0.82271  1.0000
  C   C207      1.0  0.38864  0.02833  0.79276  1.0000
  S   S54       1.0  0.33846  0.09043  0.76400  1.0000
  S   S55       1.0  0.41006  0.24397  0.75441  1.0000
  H   H247      1.0  0.44523  0.04128  0.85060  1.0000
  C   C208      1.0  0.32579  0.04329  0.82889  1.0000
  H   H248      1.0  0.37293  0.28437  0.75963  1.0000
  H   H249      1.0  0.47113  0.02684  0.76738  1.0000
  C   C209      1.0  0.21479  0.19168  0.75669  1.0000
  H   H250      1.0  0.36285  0.03788  0.84457  1.0000
  C   C210      1.0  0.32763  0.02033  0.80508  1.0000
  H   H251      1.0  0.17408  0.25298  0.80812  1.0000
  C   C211      1.0  0.17393  0.23957  0.80061  1.0000
  H   H252      1.0  0.48306  0.15933  0.84579  1.0000
  H   H253      1.0  0.41429  0.03728  0.80293  1.0000
  C   C212      1.0  0.41603  0.16502  0.80273  1.0000
  C   C213      1.0  0.23121  0.18198  0.76552  1.0000
  H   H254      1.0  0.45314  0.13291  0.84134  1.0000
  C   C214      1.0  0.36937  0.03556  0.82977  1.0000
  C   C215      1.0  0.39879  0.03520  0.80646  1.0000
  C   C216      1.0  0.10312  0.26441  0.81140  1.0000
  H   H255      1.0  0.38882  0.99861  0.75390  1.0000
  C   C217      1.0  0.11169  0.25678  0.79411  1.0000
  H   H256      1.0  0.37860  0.01519  0.95658  1.0000
  H   H257      1.0  0.08969  0.27448  0.81126  1.0000
  C   C218      1.0  0.46346  0.17310  0.76202  1.0000
  C   C219      1.0  0.46112  0.01956  0.79804  1.0000
  H   H258      1.0  0.36183  0.01989  0.78605  1.0000
  H   H259      1.0  0.48789  0.26682  0.82583  1.0000
  C   C220      1.0  0.01950  0.31279  0.91127  1.0000
  C   C221      1.0  0.44005  0.17071  0.82474  1.0000
  C   C222      1.0  0.13923  0.23938  0.81131  1.0000
  C   C223      1.0  0.36614  0.01432  0.96779  1.0000
  H   H260      1.0  0.17825  0.20913  0.82958  1.0000
  C   C224      1.0  0.38917  0.03882  0.82491  1.0000
  H   H261      1.0  0.39645  0.02487  0.77868  1.0000
  H   H262      1.0  0.38085  0.00505  0.89886  1.0000
  H   H263      1.0  0.17252  0.19995  0.80000  1.0000
  H   H264      1.0  0.02820  0.31502  0.92329  1.0000
  N   N16       1.0  0.99974  0.32438  0.91281  1.0000
  C   C225      1.0  0.40042  0.99811  0.85202  1.0000
  H   H265      1.0  0.32243  0.03990  0.98253  1.0000
  C   C226      1.0  0.46529  0.15414  0.75536  1.0000
  C   C227      1.0  0.24070  0.16429  0.75907  1.0000
  H   H266      1.0  0.01830  0.29678  0.91155  1.0000
  H   H267      1.0  0.23648  0.18806  0.77747  1.0000
  S   S56       1.0  0.20261  0.21332  0.76550  1.0000
  C   C228      1.0  0.18592  0.32465  0.78972  1.0000
  H   H268      1.0  0.31177  0.01839  0.80962  1.0000
  S   S57       1.0  0.13404  0.29113  0.75220  1.0000
  H   H269      1.0  0.16493  0.32510  0.75889  1.0000
  C   C229      1.0  0.44879  0.00652  0.77092  1.0000
  S   S58       1.0  0.49267  0.08895  0.79609  1.0000
  H   H270      1.0  0.19079  0.31198  0.78094  1.0000
  H   H271      1.0  0.00006  0.32568  0.88114  1.0000
  H   H272      1.0  0.04089  0.31784  0.95738  1.0000
  C   C230      1.0  0.48801  0.27494  0.79511  1.0000
  H   H273      1.0  0.10359  0.32179  0.81116  1.0000
  S   S59       1.0  0.49698  0.18005  0.87672  1.0000
  H   H274      1.0  0.17470  0.31944  0.80163  1.0000
  H   H275      1.0  0.49637  0.21385  0.83484  1.0000
  Fe  Fe27      1.0  0.49350  0.17117  0.90927  1.0000
  C   C231      1.0  0.49242  0.14471  0.77612  1.0000
  H   H276      1.0  0.34256  0.01218  0.85109  1.0000
  C   C232      1.0  0.43173  0.14871  0.75245  1.0000
  H   H277      1.0  0.49633  0.12232  0.95494  1.0000
  H   H278      1.0  0.42591  0.16299  0.75808  1.0000
  H   H279      1.0  0.00869  0.29782  0.94611  1.0000
  H   H280      1.0  0.49490  0.21589  0.79867  1.0000
  H   H281      1.0  0.43179  0.13721  0.76535  1.0000
  C   C233      1.0  0.49221  0.03614  0.88000  1.0000
  H   H282      1.0  0.19877  0.32774  0.79686  1.0000
  C   C234      1.0  0.37546  0.00252  0.74667  1.0000
  H   H283      1.0  0.10314  0.59017  0.00911  1.0000
  H   H284      1.0  0.01669  0.54293  0.10262  1.0000
  S   S60       1.0  0.12214  0.64383  0.17320  1.0000
  H   H285      1.0  0.02256  0.58261  0.11541  1.0000
  C   C235      1.0  0.00668  0.63717  0.02857  1.0000
  S   S61       1.0  0.20357  0.65114  0.00923  1.0000
  C   C236      1.0  0.04778  0.38417  0.02388  1.0000
  Fe  Fe28      1.0  0.20773  0.61959  0.02162  1.0000
  S   S62       1.0  0.19522  0.61037  0.05280  1.0000
  H   H286      1.0  0.22037  0.64364  0.09762  1.0000
  S   S63       1.0  0.24041  0.61555  0.01190  1.0000
  H   H287      1.0  0.01780  0.63143  0.03821  1.0000
  Fe  Fe29      1.0  0.05893  0.64371  0.14058  1.0000
  S   S64       1.0  0.06965  0.62338  0.16616  1.0000
  N   N17       1.0  0.13032  0.60108  0.01353  1.0000
  Fe  Fe30      1.0  0.09433  0.63174  0.11180  1.0000
  S   S65       1.0  0.10767  0.61044  0.13522  1.0000
  S   S66       1.0  0.10522  0.63718  0.07923  1.0000
  Fe  Fe31      1.0  0.07687  0.60126  0.14378  1.0000
  S   S67       1.0  0.07107  0.56885  0.14529  1.0000
  Fe  Fe32      1.0  0.09912  0.63486  0.15511  1.0000
  H   H288      1.0  0.20462  0.63365  0.08311  1.0000
  S   S68       1.0  0.06442  0.62126  0.11905  1.0000
  H   H289      1.0  0.99858  0.39425  0.01992  1.0000
  H   H290      1.0  0.03247  0.51441  0.13865  1.0000
  C   C237      1.0  0.01273  0.61330  0.18998  1.0000
  H   H291      1.0  0.13117  0.64958  0.04511  1.0000
  C   C238      1.0  0.00018  0.61628  0.13744  1.0000
  H   H292      1.0  0.13038  0.63261  0.01231  1.0000
  C   C239      1.0  0.02465  0.36205  0.01965  1.0000
  H   H293      1.0  0.05028  0.39924  0.02647  1.0000
  C   C240      1.0  0.12591  0.59893  0.03538  1.0000
  Fe  Fe33      1.0  0.23574  0.64714  0.99819  1.0000
  C   C241      1.0  0.02327  0.64212  0.08436  1.0000
  C   C242      1.0  0.13977  0.61944  0.00724  1.0000
  H   H294      1.0  0.00882  0.56267  0.06253  1.0000
  C   C243      1.0  0.05100  0.65461  0.06417  1.0000
  H   H295      1.0  0.01891  0.39838  0.00153  1.0000
  H   H296      1.0  0.11948  0.58491  0.04077  1.0000
  C   C244      1.0  0.11116  0.60345  0.00498  1.0000
  H   H297      1.0  0.03377  0.63293  0.09373  1.0000
  C   C245      1.0  0.06782  0.59627  0.07613  1.0000
  C   C246      1.0  0.20822  0.64757  0.08798  1.0000
  C   C247      1.0  0.01333  0.53928  0.14838  1.0000
  H   H298      1.0  0.15424  0.61900  0.01304  1.0000
  H   H299      1.0  0.10120  0.61625  0.01016  1.0000
  C   C248      1.0  0.05267  0.58575  0.08603  1.0000
  C   C249      1.0  0.17053  0.61885  0.06037  1.0000
  C   C250      1.0  0.16164  0.61121  0.07872  1.0000
  C   C251      1.0  0.14178  0.61719  0.08488  1.0000
  C   C252      1.0  0.13065  0.63086  0.07271  1.0000
  C   C253      1.0  0.13966  0.63885  0.05451  1.0000
  C   C254      1.0  0.15958  0.63295  0.04840  1.0000
  H   H300      1.0  0.17004  0.60037  0.08811  1.0000
  H   H301      1.0  0.13500  0.61086  0.09887  1.0000
  C   C255      1.0  0.01144  0.64818  0.13831  1.0000
  H   H302      1.0  0.16641  0.63921  0.03439  1.0000
  S   S69       1.0  0.48339  0.64028  0.22344  1.0000
  N   N18       1.0  0.02668  0.38050  0.02813  1.0000
  C   C256      1.0  0.02511  0.39394  0.06096  1.0000
  C   C257      1.0  0.04858  0.55780  0.14693  1.0000
  C   C258      1.0  0.04919  0.53841  0.14204  1.0000
  S   S70       1.0  0.03790  0.63832  0.99930  1.0000
  C   C259      1.0  0.13395  0.64106  0.22847  1.0000
  H   H303      1.0  0.06330  0.53044  0.13764  1.0000
  H   H304      1.0  0.11536  0.61130  0.04061  1.0000
  C   C260      1.0  0.14397  0.58404  0.00728  1.0000
  H   H305      1.0  0.20108  0.66012  0.24101  1.0000
  C   C261      1.0  0.01485  0.62763  0.14066  1.0000
  H   H306      1.0  0.02730  0.60522  0.19036  1.0000
  H   H307      1.0  0.05421  0.57973  0.10120  1.0000
  C   C262      1.0  0.01235  0.64162  0.00824  1.0000
  H   H308      1.0  0.02856  0.62044  0.14561  1.0000
  H   H309      1.0  0.03236  0.34898  0.02784  1.0000
  H   H310      1.0  0.00949  0.64516  0.09428  1.0000
  H   H311      1.0  0.22540  0.63843  0.05303  1.0000
  H   H312      1.0  0.05723  0.37338  0.03310  1.0000
  C   C263      1.0  0.01279  0.55848  0.15377  1.0000
  C   C264      1.0  0.00788  0.36550  0.05955  1.0000
  H   H313      1.0  0.13924  0.59896  0.04309  1.0000
  H   H314      1.0  0.01986  0.63302  0.07313  1.0000
  H   H315      1.0  0.04990  0.60857  0.03175  1.0000
  C   C265      1.0  0.06679  0.60447  0.05666  1.0000
  C   C266      1.0  0.00137  0.36549  0.07968  1.0000
  C   C267      1.0  0.02826  0.55170  0.09422  1.0000
  C   C268      1.0  0.01143  0.58191  0.10512  1.0000
  H   H316      1.0  0.12443  0.63256  0.22215  1.0000
  S   S71       1.0  0.08749  0.65651  0.13089  1.0000
  H   H317      1.0  0.02956  0.58241  0.15723  1.0000
  C   C269      1.0  0.16246  0.57929  0.01504  1.0000
  H   H318      1.0  0.16692  0.58784  0.02567  1.0000
  H   H319      1.0  0.08041  0.59815  0.08368  1.0000
  C   C270      1.0  0.03170  0.52926  0.14259  1.0000
  C   C271      1.0  0.03593  0.58312  0.07665  1.0000
  H   H320      1.0  0.00263  0.35460  0.05205  1.0000
  H   H321      1.0  0.02212  0.40509  0.08937  1.0000
  C   C272      1.0  0.03025  0.56770  0.15299  1.0000
  H   H322      1.0  0.07845  0.61284  0.04918  1.0000
  H   H323      1.0  0.03329  0.40595  0.05432  1.0000
  H   H324      1.0  0.24324  0.64656  0.06615  1.0000
  H   H325      1.0  0.18001  0.63692  0.24210  1.0000
  C   C273      1.0  0.15281  0.63287  0.23249  1.0000
  N   N19       1.0  0.02002  0.57204  0.08755  1.0000
  H   H326      1.0  0.27853  0.65904  0.02499  1.0000
  C   C274      1.0  0.23009  0.65176  0.05812  1.0000
  C   C275      1.0  0.05067  0.60212  0.04696  1.0000
  N   N20       1.0  0.21397  0.66194  0.07091  1.0000
  H   H327      1.0  0.05340  0.38294  0.00809  1.0000
  H   H328      1.0  0.19014  0.56073  0.01472  1.0000
  C   C276      1.0  0.02025  0.37960  0.04960  1.0000
  H   H329      1.0  0.15772  0.61782  0.22956  1.0000
  H   H330      1.0  0.19486  0.65327  0.09729  1.0000
  H   H331      1.0  0.06126  0.64599  0.07429  1.0000
  N   N21       1.0  0.03139  0.66042  0.07481  1.0000
  H   H332      1.0  0.04971  0.64524  0.05237  1.0000
  C   C277      1.0  0.00686  0.37945  0.09046  1.0000
  H   H333      1.0  0.03508  0.54375  0.08149  1.0000
  H   H334      1.0  0.00893  0.35966  0.01955  1.0000
  H   H335      1.0  0.01546  0.41121  0.02325  1.0000
  C   C278      1.0  0.01870  0.39364  0.08112  1.0000
  C   C279      1.0  0.01445  0.39684  0.01777  1.0000
  H   H336      1.0  0.99872  0.56634  0.15848  1.0000
  C   C280      1.0  0.17594  0.56376  0.00887  1.0000
  H   H337      1.0  0.03087  0.36249  0.00384  1.0000
  H   H338      1.0  0.03979  0.55146  0.10432  1.0000
  C   C281      1.0  0.01069  0.63380  0.18727  1.0000
  H   H339      1.0  0.02375  0.64160  0.18537  1.0000
  H   H340      1.0  0.00129  0.37977  0.10590  1.0000
  C   C282      1.0  0.12758  0.66044  0.23189  1.0000
  H   H341      1.0  0.19277  0.65441  0.05311  1.0000
  H   H342      1.0  0.00258  0.60045  0.13989  1.0000
  C   C283      1.0  0.16552  0.64411  0.23966  1.0000
  H   H343      1.0  0.00503  0.59727  0.10085  1.0000
  C   C284      1.0  0.00357  0.57052  0.07576  1.0000
  C   C285      1.0  0.03537  0.59168  0.05673  1.0000
  H   H344      1.0  0.02328  0.59060  0.04832  1.0000
  H   H345      1.0  0.99776  0.58724  0.19395  1.0000
  H   H346      1.0  0.15541  0.66198  0.18185  1.0000
  H   H347      1.0  0.99941  0.57400  0.11390  1.0000
  H   H348      1.0  0.23466  0.66148  0.04454  1.0000
  C   C286      1.0  0.43528  0.54828  0.37910  1.0000
  H   H349      1.0  0.39374  0.64306  0.44219  1.0000
  C   C287      1.0  0.43296  0.60759  0.45422  1.0000
  Fe  Fe34      1.0  0.47489  0.60498  0.29169  1.0000
  S   S72       1.0  0.48364  0.59055  0.26385  1.0000
  S   S73       1.0  0.44437  0.60301  0.30781  1.0000
  H   H350      1.0  0.36940  0.64137  0.36703  1.0000
  C   C288      1.0  0.37654  0.65474  0.36253  1.0000
  C   C289      1.0  0.42549  0.62798  0.48182  1.0000
  H   H351      1.0  0.44443  0.65626  0.25949  1.0000
  S   S74       1.0  0.48171  0.63438  0.27735  1.0000
  Fe  Fe35      1.0  0.37428  0.55531  0.43005  1.0000
  S   S75       1.0  0.34765  0.57608  0.43893  1.0000
  S   S76       1.0  0.37934  0.52206  0.43716  1.0000
  Fe  Fe36      1.0  0.39958  0.58902  0.41444  1.0000
  S   S77       1.0  0.37575  0.61238  0.42358  1.0000
  S   S78       1.0  0.42960  0.59759  0.40129  1.0000
  Fe  Fe37      1.0  0.36967  0.59161  0.45081  1.0000
  H   H352      1.0  0.34335  0.52827  0.46387  1.0000
  Fe  Fe38      1.0  0.35574  0.59525  0.41059  1.0000
  S   S79       1.0  0.33498  0.61271  0.38970  1.0000
  S   S80       1.0  0.39580  0.57026  0.44345  1.0000
  S   S81       1.0  0.38009  0.57252  0.40002  1.0000
  C   C290      1.0  0.34538  0.50483  0.48787  1.0000
  C   C291      1.0  0.34586  0.61900  0.48350  1.0000
  C   C292      1.0  0.32108  0.65423  0.48543  1.0000
  S   S82       1.0  0.36411  0.59913  0.48175  1.0000
  C   C293      1.0  0.46645  0.54548  0.34796  1.0000
  C   C294      1.0  0.33688  0.62776  0.46685  1.0000
  C   C295      1.0  0.42621  0.65431  0.29523  1.0000
  H   H353      1.0  0.42331  0.54969  0.39089  1.0000
  C   C296      1.0  0.38248  0.49341  0.46890  1.0000
  H   H354      1.0  0.34006  0.62133  0.45306  1.0000
  H   H355      1.0  0.33917  0.63904  0.41886  1.0000
  C   C297      1.0  0.28946  0.62058  0.42224  1.0000
  C   C298      1.0  0.49014  0.65228  0.31848  1.0000
  C   C299      1.0  0.44065  0.60220  0.33375  1.0000
  C   C300      1.0  0.45587  0.60445  0.34488  1.0000
  C   C301      1.0  0.45231  0.60338  0.36562  1.0000
  C   C302      1.0  0.43360  0.59994  0.37525  1.0000
  C   C303      1.0  0.41836  0.59811  0.36403  1.0000
  C   C304      1.0  0.42189  0.59921  0.34337  1.0000
  H   H356      1.0  0.47035  0.60700  0.33757  1.0000
  H   H357      1.0  0.46416  0.60496  0.37421  1.0000
  H   H358      1.0  0.40384  0.59573  0.37122  1.0000
  H   H359      1.0  0.41004  0.59751  0.33483  1.0000
  C   C305      1.0  0.31634  0.64898  0.37693  1.0000
  H   H360      1.0  0.48801  0.55657  0.30104  1.0000
  H   H361      1.0  0.36405  0.65439  0.46269  1.0000
  H   H362      1.0  0.42395  0.65743  0.31088  1.0000
  H   H363      1.0  0.40569  0.60890  0.47224  1.0000
  H   H364      1.0  0.29463  0.61235  0.47117  1.0000
  C   C306      1.0  0.44729  0.54059  0.34599  1.0000
  H   H365      1.0  0.47282  0.57237  0.31716  1.0000
  H   H366      1.0  0.30297  0.59624  0.44044  1.0000
  H   H367      1.0  0.47234  0.63173  0.45831  1.0000
  H   H368      1.0  0.46283  0.55273  0.30840  1.0000
  C   C307      1.0  0.45177  0.61374  0.45012  1.0000
  H   H369      1.0  0.37660  0.53300  0.49546  1.0000
  H   H370      1.0  0.47358  0.35300  0.45414  1.0000
  C   C308      1.0  0.33112  0.64730  0.40741  1.0000
  C   C309      1.0  0.32718  0.63802  0.39150  1.0000
  C   C310      1.0  0.48614  0.52341  0.32636  1.0000
  C   C311      1.0  0.37099  0.50999  0.46055  1.0000
  Fe  Fe39      1.0  0.49282  0.62020  0.25026  1.0000
  H   H371      1.0  0.49013  0.51309  0.33943  1.0000
  C   C312      1.0  0.38832  0.65848  0.44010  1.0000
  H   H372      1.0  0.41737  0.53857  0.35943  1.0000
  H   H373      1.0  0.29356  0.61356  0.40877  1.0000
  H   H374      1.0  0.44393  0.53585  0.33245  1.0000
  C   C313      1.0  0.27450  0.64934  0.43882  1.0000
  C   C314      1.0  0.41995  0.61449  0.46983  1.0000
  C   C315      1.0  0.39628  0.65348  0.35467  1.0000
  C   C316      1.0  0.28007  0.63884  0.45680  1.0000
  H   H375      1.0  0.42495  0.64266  0.39313  1.0000
  C   C317      1.0  0.27952  0.63959  0.42147  1.0000
  C   C318      1.0  0.44483  0.63385  0.47727  1.0000
  C   C319      1.0  0.45769  0.62687  0.46161  1.0000
  H   H376      1.0  0.42848  0.59733  0.44523  1.0000
  H   H377      1.0  0.19027  0.65448  0.26627  1.0000
  C   C320      1.0  0.47624  0.55690  0.31374  1.0000
  C   C321      1.0  0.29005  0.61985  0.45736  1.0000
  H   H378      1.0  0.35891  0.55315  0.48976  1.0000
  H   H379      1.0  0.38242  0.55777  0.49597  1.0000
  C   C322      1.0  0.41267  0.64706  0.40446  1.0000
  H   H380      1.0  0.40454  0.63919  0.35308  1.0000
  C   C323      1.0  0.29482  0.61078  0.44009  1.0000
  H   H381      1.0  0.38453  0.47003  0.49306  1.0000
  C   C324      1.0  0.43198  0.54205  0.36134  1.0000
  N   N22       1.0  0.48235  0.54399  0.33136  1.0000
  H   H382      1.0  0.27732  0.64548  0.47050  1.0000
  H   H383      1.0  0.38485  0.63382  0.48684  1.0000
  C   C325      1.0  0.45388  0.55310  0.38158  1.0000
  H   H384      1.0  0.41191  0.63387  0.41548  1.0000
  C   C326      1.0  0.46929  0.55183  0.36630  1.0000
  H   H385      1.0  0.31315  0.64189  0.36460  1.0000
  H   H386      1.0  0.31857  0.65293  0.45462  1.0000
  H   H387      1.0  0.48315  0.55623  0.36918  1.0000
  H   H388      1.0  0.46369  0.65301  0.33886  1.0000
  H   H389      1.0  0.39669  0.48865  0.46134  1.0000
  H   H390      1.0  0.45616  0.55845  0.39528  1.0000
  C   C327      1.0  0.47328  0.66165  0.32848  1.0000
  H   H391      1.0  0.46172  0.60838  0.43792  1.0000
  H   H392      1.0  0.23601  0.65902  0.44820  1.0000
  C   C328      1.0  0.32454  0.64552  0.46778  1.0000
  C   C329      1.0  0.35251  0.51581  0.47031  1.0000
  H   H393      1.0  0.41474  0.64511  0.29250  1.0000
  H   H394      1.0  0.44051  0.64481  0.29361  1.0000
  C   C330      1.0  0.35684  0.48830  0.49628  1.0000
  H   H395      1.0  0.47309  0.51841  0.32107  1.0000
  H   H396      1.0  0.44586  0.65234  0.41746  1.0000
  H   H397      1.0  0.47020  0.34287  0.48793  1.0000
  H   H398      1.0  0.33073  0.50900  0.49484  1.0000
  H   H399      1.0  0.42850  0.64911  0.43886  1.0000
  H   H400      1.0  0.45022  0.64385  0.48585  1.0000
  H   H401      1.0  0.41847  0.65939  0.25698  1.0000
  C   C331      1.0  0.48510  0.34057  0.45098  1.0000
  H   H402      1.0  0.49493  0.34632  0.43805  1.0000
  C   C332      1.0  0.43255  0.65952  0.42577  1.0000
  H   H403      1.0  0.39872  0.64947  0.39734  1.0000
  N   N23       1.0  0.49588  0.33328  0.46842  1.0000
  C   C333      1.0  0.37559  0.48279  0.48685  1.0000
  H   H404      1.0  0.49312  0.63643  0.32084  1.0000
  H   H405      1.0  0.27637  0.64643  0.40701  1.0000
  H   H406      1.0  0.49728  0.36247  0.47630  1.0000
  C   C334      1.0  0.48079  0.32954  0.48552  1.0000
  C   C335      1.0  0.40999  0.65722  0.49659  1.0000
  Fe  Fe40      1.0  0.36090  0.45011  0.53903  1.0000
  S   S83       1.0  0.39321  0.43959  0.54059  1.0000
  S   S84       1.0  0.34683  0.47518  0.51845  1.0000
  Fe  Fe41      1.0  0.34811  0.42610  0.57914  1.0000
  S   S85       1.0  0.37929  0.41461  0.58374  1.0000
  S   S86       1.0  0.32135  0.42032  0.60119  1.0000
  Fe  Fe42      1.0  0.38670  0.44499  0.57237  1.0000
  S   S87       1.0  0.40583  0.46070  0.58809  1.0000
  Fe  Fe43      1.0  0.38287  0.40986  0.55163  1.0000
  S   S88       1.0  0.39675  0.37895  0.54702  1.0000
  S   S89       1.0  0.35514  0.45700  0.57055  1.0000
  S   S90       1.0  0.35089  0.41973  0.54746  1.0000
  C   C336      1.0  0.32918  0.49176  0.72738  1.0000
  H   H407      1.0  0.27947  0.50343  0.74022  1.0000
  C   C337      1.0  0.39284  0.52551  0.53090  1.0000
  C   C338      1.0  0.12174  0.61752  0.69019  1.0000
  H   H408      1.0  0.26600  0.36133  0.69099  1.0000
  H   H409      1.0  0.33733  0.34693  0.73189  1.0000
  H   H410      1.0  0.46444  0.34692  0.69162  1.0000
  C   C339      1.0  0.41888  0.33202  0.62805  1.0000
  C   C340      1.0  0.32115  0.50337  0.61816  1.0000
  S   S91       1.0  0.29480  0.35817  0.72274  1.0000
  Fe  Fe44      1.0  0.30265  0.38930  0.71679  1.0000
  S   S92       1.0  0.32749  0.39687  0.69292  1.0000
  Fe  Fe45      1.0  0.26384  0.37129  0.73109  1.0000
  S   S93       1.0  0.23514  0.36250  0.72328  1.0000
  N   N24       1.0  0.28126  0.35228  0.66383  1.0000
  C   C341      1.0  0.30365  0.47246  0.68891  1.0000
  H   H411      1.0  0.39076  0.49433  0.66015  1.0000
  Fe  Fe46      1.0  0.17866  0.63638  0.72790  1.0000
  H   H412      1.0  0.31666  0.36197  0.67283  1.0000
  S   S94       1.0  0.19279  0.60531  0.72582  1.0000
  Fe  Fe47      1.0  0.32842  0.55401  0.66873  1.0000
  S   S95       1.0  0.32972  0.57213  0.63924  1.0000
  S   S96       1.0  0.29927  0.54725  0.68641  1.0000
  Fe  Fe48      1.0  0.37331  0.54290  0.66561  1.0000
  S   S97       1.0  0.37855  0.56084  0.63604  1.0000
  N   N25       1.0  0.36273  0.54739  0.52093  1.0000
  Fe  Fe49      1.0  0.35595  0.58397  0.64815  1.0000
  S   S98       1.0  0.35716  0.61684  0.64041  1.0000
  Fe  Fe50      1.0  0.35206  0.54819  0.62892  1.0000
  S   S99       1.0  0.35103  0.53923  0.59890  1.0000
  S   S100      1.0  0.35309  0.56758  0.67886  1.0000
  S   S101      1.0  0.34837  0.52841  0.65731  1.0000
  C   C342      1.0  0.36076  0.62567  0.61498  1.0000
  C   C343      1.0  0.36617  0.61272  0.60055  1.0000
  C   C344      1.0  0.36944  0.62009  0.58049  1.0000
  C   C345      1.0  0.36687  0.64043  0.57459  1.0000
  C   C346      1.0  0.30460  0.66117  0.60552  1.0000
  C   C347      1.0  0.35821  0.64603  0.60908  1.0000
  H   H413      1.0  0.36815  0.59702  0.60488  1.0000
  H   H414      1.0  0.37402  0.60995  0.56953  1.0000
  H   H415      1.0  0.40893  0.35554  0.59317  1.0000
  C   C348      1.0  0.37057  0.54780  0.49972  1.0000
  S   S102      1.0  0.39746  0.52577  0.68310  1.0000
  H   H416      1.0  0.27849  0.37099  0.63632  1.0000
  H   H417      1.0  0.36848  0.48020  0.73303  1.0000
  C   C349      1.0  0.26173  0.59223  0.72379  1.0000
  H   H418      1.0  0.36144  0.57878  0.52134  1.0000
  C   C350      1.0  0.26484  0.56316  0.70619  1.0000
  C   C351      1.0  0.28491  0.56514  0.70018  1.0000
  C   C352      1.0  0.29330  0.58079  0.70595  1.0000
  C   C353      1.0  0.28182  0.59410  0.71790  1.0000
  H   H419      1.0  0.38229  0.63539  0.51269  1.0000
  H   H420      1.0  0.30874  0.58245  0.70150  1.0000
  H   H421      1.0  0.14753  0.59204  0.70884  1.0000
  H   H422      1.0  0.37935  0.35158  0.65807  1.0000
  H   H423      1.0  0.46048  0.33824  0.59622  1.0000
  H   H424      1.0  0.30626  0.51022  0.65273  1.0000
  C   C354      1.0  0.08107  0.57017  0.73432  1.0000
  C   C355      1.0  0.26464  0.34186  0.65981  1.0000
  H   H425      1.0  0.29821  0.46970  0.70438  1.0000
  C   C356      1.0  0.36347  0.49614  0.73013  1.0000
  C   C357      1.0  0.39318  0.48409  0.59008  1.0000
  C   C358      1.0  0.38122  0.49239  0.57548  1.0000
  C   C359      1.0  0.36845  0.50945  0.57824  1.0000
  C   C360      1.0  0.36809  0.51867  0.59530  1.0000
  C   C361      1.0  0.38073  0.51094  0.60959  1.0000
  C   C362      1.0  0.39330  0.49356  0.60699  1.0000
  H   H426      1.0  0.38170  0.48556  0.56202  1.0000
  H   H427      1.0  0.35879  0.51541  0.56719  1.0000
  H   H428      1.0  0.38060  0.51812  0.62278  1.0000
  H   H429      1.0  0.40260  0.48719  0.61831  1.0000
  C   C363      1.0  0.32332  0.41381  0.62664  1.0000
  C   C364      1.0  0.30601  0.41339  0.63986  1.0000
  C   C365      1.0  0.30701  0.40842  0.66026  1.0000
  C   C366      1.0  0.32535  0.40355  0.66753  1.0000
  C   C367      1.0  0.34265  0.40423  0.65435  1.0000
  C   C368      1.0  0.34166  0.40940  0.63398  1.0000
  H   H430      1.0  0.29178  0.41714  0.63429  1.0000
  H   H431      1.0  0.29363  0.40868  0.67036  1.0000
  H   H432      1.0  0.35690  0.40071  0.65993  1.0000
  H   H433      1.0  0.35506  0.40984  0.62395  1.0000
  C   C369      1.0  0.42190  0.37403  0.53856  1.0000
  C   C370      1.0  0.43146  0.35517  0.54339  1.0000
  C   C371      1.0  0.45179  0.35097  0.53804  1.0000
  C   C372      1.0  0.46251  0.36542  0.52715  1.0000
  C   C373      1.0  0.45284  0.38406  0.52157  1.0000
  C   C374      1.0  0.43255  0.38841  0.52736  1.0000
  H   H434      1.0  0.42313  0.34388  0.55161  1.0000
  H   H435      1.0  0.34323  0.56707  0.53872  1.0000
  H   H436      1.0  0.46107  0.39527  0.51305  1.0000
  H   H437      1.0  0.42516  0.40289  0.52328  1.0000
  Fe  Fe51      1.0  0.49762  0.38815  0.70181  1.0000
  H   H438      1.0  0.10244  0.64012  0.71649  1.0000
  C   C375      1.0  0.09788  0.56516  0.72167  1.0000
  C   C376      1.0  0.39201  0.37210  0.69945  1.0000
  H   H439      1.0  0.35413  0.65611  0.62016  1.0000
  C   C377      1.0  0.40787  0.36987  0.68489  1.0000
  H   H440      1.0  0.23779  0.57516  0.72217  1.0000
  C   C378      1.0  0.35355  0.49082  0.69885  1.0000
  N   N26       1.0  0.43171  0.41355  0.62515  1.0000
  C   C379      1.0  0.43781  0.43354  0.62457  1.0000
  C   C380      1.0  0.40993  0.41520  0.62473  1.0000
  C   C381      1.0  0.43592  0.40217  0.64433  1.0000
  C   C382      1.0  0.44239  0.40433  0.60796  1.0000
  C   C383      1.0  0.43589  0.40880  0.58891  1.0000
  C   C384      1.0  0.46039  0.39191  0.60930  1.0000
  C   C385      1.0  0.44589  0.40012  0.57266  1.0000
  C   C386      1.0  0.47014  0.38299  0.59304  1.0000
  C   C387      1.0  0.46277  0.38693  0.57476  1.0000
  H   H441      1.0  0.31722  0.47296  0.59958  1.0000
  H   H442      1.0  0.43580  0.44244  0.61016  1.0000
  H   H443      1.0  0.42904  0.44187  0.63613  1.0000
  H   H444      1.0  0.40476  0.42639  0.61292  1.0000
  H   H445      1.0  0.35095  0.47854  0.60739  1.0000
  H   H446      1.0  0.40495  0.40088  0.62264  1.0000
  H   H447      1.0  0.42645  0.40820  0.65706  1.0000
  H   H448      1.0  0.43388  0.38636  0.64451  1.0000
  H   H449      1.0  0.45110  0.40305  0.64775  1.0000
  H   H450      1.0  0.42329  0.41938  0.58618  1.0000
  H   H451      1.0  0.46740  0.38924  0.62270  1.0000
  H   H452      1.0  0.43637  0.35522  0.67680  1.0000
  C   C388      1.0  0.30166  0.49151  0.67927  1.0000
  H   H453      1.0  0.47053  0.38029  0.56208  1.0000
  H   H454      1.0  0.34026  0.57098  0.51304  1.0000
  C   C389      1.0  0.31250  0.45690  0.67861  1.0000
  H   H455      1.0  0.35896  0.50202  0.74460  1.0000
  H   H456      1.0  0.40723  0.37853  0.67069  1.0000
  H   H457      1.0  0.31403  0.44205  0.68616  1.0000
  C   C390      1.0  0.31253  0.47117  0.61579  1.0000
  C   C391      1.0  0.31482  0.61988  0.60595  1.0000
  C   C392      1.0  0.42089  0.62808  0.51737  1.0000
  S   S103      1.0  0.47672  0.35750  0.64894  1.0000
  H   H458      1.0  0.41102  0.63287  0.53048  1.0000
  C   C393      1.0  0.41064  0.50244  0.67901  1.0000
  H   H459      1.0  0.34184  0.53201  0.54118  1.0000
  H   H460      1.0  0.33339  0.52586  0.70092  1.0000
  H   H461      1.0  0.29483  0.50366  0.68732  1.0000
  H   H462      1.0  0.42321  0.61169  0.51936  1.0000
  C   C394      1.0  0.25321  0.57681  0.71770  1.0000
  H   H463      1.0  0.12805  0.64263  0.71509  1.0000
  C   C395      1.0  0.37903  0.54234  0.53360  1.0000
  H   H464      1.0  0.35606  0.51718  0.52376  1.0000
  H   H465      1.0  0.45362  0.43306  0.62695  1.0000
  H   H466      1.0  0.40781  0.46071  0.65792  1.0000
  H   H467      1.0  0.35409  0.48283  0.63200  1.0000
  H   H468      1.0  0.48376  0.37337  0.59453  1.0000
  H   H469      1.0  0.32959  0.51271  0.62544  1.0000
  N   N27       1.0  0.12146  0.61327  0.71192  1.0000
  C   C396      1.0  0.32918  0.64479  0.50229  1.0000
  C   C397      1.0  0.31914  0.46030  0.65854  1.0000
  H   H470      1.0  0.45116  0.47256  0.69390  1.0000
  C   C398      1.0  0.10723  0.59882  0.71945  1.0000
  C   C399      1.0  0.08968  0.60354  0.73205  1.0000
  C   C400      1.0  0.30934  0.62813  0.62361  1.0000
  S   S104      1.0  0.44214  0.43965  0.67386  1.0000
  H   H471      1.0  0.10114  0.55017  0.71792  1.0000
  C   C401      1.0  0.27289  0.36785  0.67653  1.0000
  H   H472      1.0  0.30081  0.65383  0.63780  1.0000
  C   C402      1.0  0.40383  0.48966  0.66761  1.0000
  C   C403      1.0  0.07686  0.58935  0.73928  1.0000
  H   H473      1.0  0.36750  0.33196  0.71328  1.0000
  H   H474      1.0  0.34360  0.46188  0.73332  1.0000
  H   H475      1.0  0.14176  0.60060  0.73266  1.0000
  H   H476      1.0  0.35814  0.52771  0.70503  1.0000
  Fe  Fe52      1.0  0.48540  0.38259  0.66243  1.0000
  H   H477      1.0  0.34822  0.45925  0.62685  1.0000
  S   S105      1.0  0.37226  0.64906  0.54932  1.0000
  H   H478      1.0  0.26130  0.37824  0.66961  1.0000
  S   S106      1.0  0.48841  0.41364  0.64917  1.0000
  H   H479      1.0  0.32567  0.44772  0.65113  1.0000
  C   C404      1.0  0.42441  0.35647  0.68856  1.0000
  C   C405      1.0  0.41368  0.47059  0.66623  1.0000
  C   C406      1.0  0.11070  0.57927  0.71415  1.0000
  H   H480      1.0  0.15245  0.61605  0.71207  1.0000
  H   H481      1.0  0.42116  0.52661  0.56812  1.0000
  C   C407      1.0  0.43093  0.46424  0.67555  1.0000
  C   C408      1.0  0.31321  0.46325  0.74436  1.0000
  H   H482      1.0  0.37089  0.56563  0.55337  1.0000
  N   N28       1.0  0.32384  0.48247  0.62673  1.0000
  C   C409      1.0  0.29674  0.33924  0.67380  1.0000
  C   C410      1.0  0.36108  0.65339  0.58895  1.0000
  C   C411      1.0  0.40981  0.53121  0.55830  1.0000
  H   H483      1.0  0.25067  0.65278  0.73494  1.0000
  C   C412      1.0  0.39260  0.36090  0.71772  1.0000
  H   H484      1.0  0.42579  0.36700  0.60554  1.0000
  C   C413      1.0  0.28990  0.36169  0.64459  1.0000
  H   H485      1.0  0.30977  0.61875  0.63751  1.0000
  C   C414      1.0  0.32999  0.47153  0.73488  1.0000
  H   H486      1.0  0.30534  0.50948  0.61937  1.0000
  H   H487      1.0  0.41812  0.50699  0.54094  1.0000
  N   N29       1.0  0.44303  0.33046  0.71048  1.0000
  C   C415      1.0  0.40808  0.52019  0.54298  1.0000
  H   H488      1.0  0.28858  0.60591  0.72259  1.0000
  H   H489      1.0  0.44100  0.33066  0.74208  1.0000
  C   C416      1.0  0.31034  0.65222  0.58785  1.0000
  C   C417      1.0  0.42433  0.35452  0.59716  1.0000
  N   N30       1.0  0.43028  0.33526  0.60837  1.0000
  S   S107      1.0  0.27115  0.40239  0.72226  1.0000
  H   H490      1.0  0.43534  0.63365  0.51793  1.0000
  C   C418      1.0  0.21426  0.33434  0.71365  1.0000
  H   H491      1.0  0.20171  0.34545  0.71470  1.0000
  H   H492      1.0  0.32034  0.62555  0.57442  1.0000
  H   H493      1.0  0.46002  0.35289  0.71672  1.0000
  H   H494      1.0  0.08569  0.61793  0.73696  1.0000
  C   C419      1.0  0.46117  0.34068  0.70723  1.0000
  H   H495      1.0  0.10682  0.62346  0.68599  1.0000
  H   H496      1.0  0.32646  0.65139  0.51600  1.0000
  C   C420      1.0  0.34153  0.62718  0.50135  1.0000
  H   H497      1.0  0.47445  0.33047  0.71075  1.0000
  H   H498      1.0  0.12657  0.60415  0.68252  1.0000
  H   H499      1.0  0.30100  0.37168  0.64629  1.0000
  C   C421      1.0  0.30832  0.49508  0.65919  1.0000
  H   H500      1.0  0.30806  0.51840  0.72371  1.0000
  H   H501      1.0  0.40176  0.42033  0.63853  1.0000
  H   H502      1.0  0.39158  0.51595  0.51982  1.0000
  H   H503      1.0  0.37687  0.50313  0.72313  1.0000
  H   H504      1.0  0.25354  0.35197  0.65185  1.0000
  H   H505      1.0  0.39723  0.55570  0.57402  1.0000
  H   H506      1.0  0.43317  0.50581  0.69732  1.0000
  C   C422      1.0  0.42548  0.34476  0.70703  1.0000
  H   H507      1.0  0.47886  0.42843  0.55031  1.0000
  C   C423      1.0  0.34515  0.47543  0.62320  1.0000
  N   N31       1.0  0.41228  0.63537  0.49868  1.0000
  C   C424      1.0  0.38114  0.55317  0.54950  1.0000
  H   H508      1.0  0.12352  0.57466  0.70438  1.0000
  C   C425      1.0  0.39636  0.54763  0.56156  1.0000
  H   H509      1.0  0.45427  0.34500  0.62087  1.0000
  C   C426      1.0  0.42778  0.49607  0.68844  1.0000
  H   H510      1.0  0.31463  0.45513  0.62047  1.0000
  H   H511      1.0  0.11648  0.63009  0.73695  1.0000
  C   C427      1.0  0.31036  0.50304  0.72945  1.0000
  C   C428      1.0  0.43804  0.47721  0.68651  1.0000
  N   N32       1.0  0.34717  0.50010  0.71729  1.0000
  H   H512      1.0  0.39708  0.35816  0.62552  1.0000
  C   C429      1.0  0.32870  0.33506  0.68746  1.0000
  H   H513      1.0  0.40800  0.33873  0.73580  1.0000
  C   C430      1.0  0.29366  0.49458  0.73891  1.0000
  C   C431      1.0  0.14160  0.60511  0.71657  1.0000
  H   H514      1.0  0.35773  0.47470  0.70172  1.0000
  H   H515      1.0  0.43378  0.35686  0.58289  1.0000
  H   H516      1.0  0.36671  0.49718  0.69056  1.0000
  C   C432      1.0  0.40892  0.34729  0.72149  1.0000
  H   H517      1.0  0.07143  0.55911  0.74063  1.0000
  H   H518      1.0  0.44059  0.40397  0.55833  1.0000
  H   H519      1.0  0.34834  0.62038  0.51431  1.0000
  C   C433      1.0  0.30434  0.64847  0.62353  1.0000
  C   C434      1.0  0.34871  0.53227  0.52562  1.0000
  H   H520      1.0  0.45909  0.33649  0.54225  1.0000
  C   C435      1.0  0.31427  0.34674  0.67728  1.0000
  H   H521      1.0  0.29641  0.47589  0.61810  1.0000
  S   S108      1.0  0.24823  0.60871  0.73975  1.0000
  H   H522      1.0  0.37915  0.38245  0.69661  1.0000
  Fe  Fe53      1.0  0.47204  0.42167  0.67824  1.0000
  C   C436      1.0  0.35147  0.56689  0.52372  1.0000
  C   C437      1.0  0.31714  0.47946  0.64813  1.0000
  C   C438      1.0  0.49125  0.42260  0.55850  1.0000
  H   H523      1.0  0.13216  0.62860  0.68410  1.0000
  S   S109      1.0  0.48809  0.36050  0.52082  1.0000
  S   S110      1.0  0.46807  0.39023  0.69041  1.0000
  H   H524      1.0  0.32663  0.50521  0.60213  1.0000
  C   C439      1.0  0.23291  0.33879  0.71703  1.0000
  H   H525      1.0  0.47762  0.43353  0.58551  1.0000
  H   H526      1.0  0.34161  0.34139  0.69042  1.0000
  C   C440      1.0  0.34421  0.52176  0.71194  1.0000
  H   H527      1.0  0.25823  0.55110  0.70182  1.0000
  H   H528      1.0  0.33658  0.53504  0.51590  1.0000
  C   C441      1.0  0.11678  0.63229  0.72056  1.0000
  C   C442      1.0  0.45164  0.33452  0.61059  1.0000
  H   H529      1.0  0.28431  0.37674  0.67983  1.0000
  H   H530      1.0  0.33909  0.52972  0.72511  1.0000
  C   C443      1.0  0.31535  0.63191  0.58810  1.0000
  H   H531      1.0  0.34163  0.49312  0.68890  1.0000
  H   H532      1.0  0.39240  0.61274  0.50384  1.0000
  H   H533      1.0  0.38012  0.36250  0.72898  1.0000
  H   H534      1.0  0.31935  0.60422  0.60615  1.0000
  C   C444      1.0  0.34490  0.33321  0.73792  1.0000
  C   C445      1.0  0.39217  0.62900  0.50048  1.0000
  C   C446      1.0  0.40236  0.34512  0.63462  1.0000
  S   S111      1.0  0.16612  0.65403  0.70126  1.0000
  C   C447      1.0  0.39191  0.34145  0.65331  1.0000
  C   C448      1.0  0.49050  0.42545  0.57834  1.0000
  H   H535      1.0  0.29732  0.35043  0.63502  1.0000
  H   H536      1.0  0.25635  0.33571  0.67373  1.0000
  Fe  Fe54      1.0  0.21472  0.61298  0.74465  1.0000
  S   S112      1.0  0.20175  0.64464  0.74479  1.0000
  H   H537      1.0  0.31160  0.66092  0.57371  1.0000
  C   C449      1.0  0.29510  0.47477  0.74647  1.0000
  C   C450      1.0  0.49759  0.35057  0.63307  1.0000
  H   H538      1.0  0.26991  0.32971  0.65051  1.0000
  C   C451      1.0  0.23206  0.40099  0.87462  1.0000
  Fe  Fe55      1.0  0.18612  0.50550  0.85686  1.0000
  S   S113      1.0  0.21521  0.51280  0.86418  1.0000
  S   S114      1.0  0.16795  0.52346  0.83474  1.0000
  Fe  Fe56      1.0  0.18454  0.46969  0.88712  1.0000
  S   S115      1.0  0.21323  0.47432  0.89768  1.0000
  S   S116      1.0  0.16720  0.44458  0.90142  1.0000
  Fe  Fe57      1.0  0.20247  0.50691  0.89610  1.0000
  S   S117      1.0  0.19655  0.52869  0.91983  1.0000
  Fe  Fe58      1.0  0.22366  0.47979  0.86506  1.0000
  S   S118      1.0  0.25144  0.46221  0.85190  1.0000
  S   S119      1.0  0.17277  0.50138  0.88812  1.0000
  S   S120      1.0  0.19558  0.47349  0.85499  1.0000
  N   N33       1.0  0.18442  0.65817  0.89274  1.0000
  S   S121      1.0  0.26059  0.42955  0.76753  1.0000
  H   H539      1.0  0.06394  0.59299  0.74949  1.0000
  H   H540      1.0  0.19534  0.42886  0.85193  1.0000
  N   N34       1.0  0.09239  0.64068  0.85411  1.0000
  S   S122      1.0  0.04147  0.35561  0.83246  1.0000
  Fe  Fe59      1.0  0.02906  0.50805  0.82047  1.0000
  S   S123      1.0  0.04773  0.49368  0.84407  1.0000
  H   H541      1.0  0.20004  0.64087  0.92787  1.0000
  Fe  Fe60      1.0  0.05795  0.53980  0.80751  1.0000
  S   S124      1.0  0.07790  0.52745  0.83047  1.0000
  S   S125      1.0  0.06701  0.56819  0.79024  1.0000
  Fe  Fe61      1.0  0.07330  0.49847  0.82126  1.0000
  S   S126      1.0  0.09932  0.47570  0.82000  1.0000
  Fe  Fe62      1.0  0.05050  0.52411  0.85095  1.0000
  S   S127      1.0  0.04989  0.52915  0.88287  1.0000
  S   S128      1.0  0.05491  0.51062  0.79672  1.0000
  S   S129      1.0  0.03031  0.53870  0.82894  1.0000
  H   H542      1.0  0.11418  0.46330  0.87677  1.0000
  C   C452      1.0  0.10072  0.58683  0.77911  1.0000
  C   C453      1.0  0.21041  0.61236  0.92025  1.0000
  H   H543      1.0  0.14109  0.43106  0.84132  1.0000
  Fe  Fe63      1.0  0.18288  0.63390  0.77199  1.0000
  H   H544      1.0  0.11325  0.60637  0.98856  1.0000
  N   N35       1.0  0.10467  0.48939  0.89162  1.0000
  C   C454      1.0  0.15115  0.37171  0.81784  1.0000
  H   H545      1.0  0.20214  0.51753  0.75133  1.0000
  H   H546      1.0  0.19425  0.55829  0.78279  1.0000
  S   S130      1.0  0.06562  0.33229  0.92313  1.0000
  C   C455      1.0  0.01553  0.36279  0.96362  1.0000
  S   S131      1.0  0.06764  0.37285  0.87572  1.0000
  H   H547      1.0  0.06323  0.63103  0.85583  1.0000
  C   C456      1.0  0.09252  0.56880  0.78232  1.0000
  C   C457      1.0  0.10457  0.55158  0.77836  1.0000
  C   C458      1.0  0.12466  0.55229  0.77145  1.0000
  C   C459      1.0  0.22163  0.65590  0.82703  1.0000
  S   S132      1.0  0.19736  0.60284  0.77335  1.0000
  S   S133      1.0  0.11098  0.34670  0.88148  1.0000
  H   H548      1.0  0.09822  0.53777  0.78014  1.0000
  H   H549      1.0  0.13379  0.53882  0.76841  1.0000
  C   C460      1.0  0.20925  0.37117  0.82484  1.0000
  C   C461      1.0  0.20570  0.37971  0.84261  1.0000
  C   C462      1.0  0.04226  0.59334  0.89573  1.0000
  C   C463      1.0  0.04137  0.58875  0.87652  1.0000
  C   C464      1.0  0.04436  0.56909  0.87231  1.0000
  C   C465      1.0  0.04771  0.55392  0.88744  1.0000
  C   C466      1.0  0.04881  0.55849  0.90661  1.0000
  C   C467      1.0  0.04629  0.57820  0.91072  1.0000
  H   H550      1.0  0.04362  0.56570  0.85745  1.0000
  H   H551      1.0  0.05140  0.54680  0.91836  1.0000
  H   H552      1.0  0.04688  0.58166  0.92559  1.0000
  H   H553      1.0  0.24026  0.41244  0.83251  1.0000
  Fe  Fe64      1.0  0.05215  0.62624  0.92590  1.0000
  C   C468      1.0  0.19457  0.52916  0.76037  1.0000
  Fe  Fe65      1.0  0.29951  0.36090  0.75394  1.0000
  S   S134      1.0  0.03774  0.61802  0.90066  1.0000
  H   H554      1.0  0.02266  0.36846  0.79667  1.0000
  C   C469      1.0  0.24083  0.55522  0.93820  1.0000
  C   C470      1.0  0.13210  0.50682  0.93060  1.0000
  H   H555      1.0  0.22068  0.43316  0.85172  1.0000
  C   C471      1.0  0.21030  0.54324  0.93199  1.0000
  H   H556      1.0  0.19850  0.33380  0.75241  1.0000
  C   C472      1.0  0.25755  0.51387  0.78260  1.0000
  Fe  Fe66      1.0  0.17403  0.59800  0.75452  1.0000
  H   H557      1.0  0.12699  0.60149  0.76999  1.0000
  C   C473      1.0  0.23079  0.54337  0.92811  1.0000
  C   C474      1.0  0.08639  0.65852  0.84086  1.0000
  S   S135      1.0  0.22994  0.63753  0.96926  1.0000
  H   H558      1.0  0.23898  0.53420  0.91752  1.0000
  C   C475      1.0  0.14969  0.50969  0.82948  1.0000
  C   C476      1.0  0.14773  0.49096  0.83949  1.0000
  C   C477      1.0  0.13309  0.47997  0.83543  1.0000
  C   C478      1.0  0.11986  0.48793  0.82193  1.0000
  C   C479      1.0  0.12180  0.50664  0.81185  1.0000
  C   C480      1.0  0.13678  0.51750  0.81552  1.0000
  H   H559      1.0  0.15696  0.48515  0.85087  1.0000
  H   H560      1.0  0.13128  0.46577  0.84350  1.0000
  H   H561      1.0  0.11159  0.51277  0.80137  1.0000
  H   H562      1.0  0.13812  0.53204  0.80781  1.0000
  C   C481      1.0  0.25802  0.43751  0.79151  1.0000
  C   C482      1.0  0.27180  0.43123  0.80506  1.0000
  C   C483      1.0  0.26966  0.43900  0.82343  1.0000
  C   C484      1.0  0.25355  0.45276  0.82864  1.0000
  C   C485      1.0  0.23956  0.45869  0.81526  1.0000
  C   C486      1.0  0.24194  0.45130  0.79673  1.0000
  H   H563      1.0  0.28434  0.42077  0.80121  1.0000
  H   H564      1.0  0.28060  0.43433  0.83365  1.0000
  H   H565      1.0  0.22710  0.46923  0.81904  1.0000
  H   H566      1.0  0.23124  0.45628  0.78635  1.0000
  C   C487      1.0  0.13126  0.40688  0.88700  1.0000
  C   C488      1.0  0.14288  0.41669  0.89743  1.0000
  C   C489      1.0  0.15377  0.43175  0.88769  1.0000
  H   H567      1.0  0.12264  0.39555  0.89470  1.0000
  H   H568      1.0  0.14318  0.41279  0.91317  1.0000
  Fe  Fe67      1.0  0.07867  0.34405  0.89223  1.0000
  S   S136      1.0  0.04441  0.65535  0.93825  1.0000
  H   H569      1.0  0.12622  0.57462  0.98622  1.0000
  C   C490      1.0  0.03657  0.33349  0.95456  1.0000
  H   H570      1.0  0.01386  0.46999  0.79267  1.0000
  C   C491      1.0  0.16767  0.61742  0.95621  1.0000
  S   S137      1.0  0.15833  0.62837  0.75517  1.0000
  C   C492      1.0  0.02092  0.34249  0.96682  1.0000
  H   H571      1.0  0.22013  0.58449  0.90927  1.0000
  H   H572      1.0  0.02440  0.37551  0.86655  1.0000
  H   H573      1.0  0.08020  0.44670  0.80353  1.0000
  H   H574      1.0  0.13735  0.48241  0.91401  1.0000
  H   H575      1.0  0.14528  0.50230  0.93806  1.0000
  H   H576      1.0  0.20484  0.43309  0.87422  1.0000
  H   H577      1.0  0.16164  0.44813  0.85968  1.0000
  H   H578      1.0  0.07325  0.49484  0.90014  1.0000
  C   C493      1.0  0.15335  0.43659  0.86736  1.0000
  C   C494      1.0  0.02574  0.37386  0.94789  1.0000
  H   H579      1.0  0.18187  0.61168  0.96087  1.0000
  H   H580      1.0  0.00768  0.34815  0.92668  1.0000
  H   H581      1.0  0.11802  0.63799  0.93654  1.0000
  C   C495      1.0  0.16206  0.63777  0.95419  1.0000
  C   C496      1.0  0.23462  0.39245  0.81313  1.0000
  H   H582      1.0  0.20066  0.35962  0.82244  1.0000
  S   S138      1.0  0.26767  0.37165  0.76304  1.0000
  H   H583      1.0  0.17584  0.54311  0.79367  1.0000
  C   C497      1.0  0.23131  0.40098  0.83088  1.0000
  H   H584      1.0  0.10180  0.58050  0.82629  1.0000
  H   H585      1.0  0.23325  0.64628  0.83374  1.0000
  N   N36       1.0  0.15287  0.57056  0.89634  1.0000
  C   C498      1.0  0.15277  0.59198  0.89752  1.0000
  C   C499      1.0  0.15182  0.56026  0.91664  1.0000
  C   C500      1.0  0.17219  0.56357  0.88581  1.0000
  C   C501      1.0  0.13563  0.56684  0.88678  1.0000
  C   C502      1.0  0.13742  0.55588  0.87024  1.0000
  C   C503      1.0  0.11619  0.57390  0.89429  1.0000
  C   C504      1.0  0.12078  0.55241  0.86176  1.0000
  C   C505      1.0  0.09968  0.57046  0.88560  1.0000
  C   C506      1.0  0.10195  0.55965  0.86944  1.0000
  H   H586      1.0  0.13978  0.59807  0.90707  1.0000
  H   H587      1.0  0.16589  0.59518  0.90423  1.0000
  H   H588      1.0  0.15272  0.60039  0.88260  1.0000
  H   H589      1.0  0.13803  0.56503  0.92583  1.0000
  H   H590      1.0  0.16427  0.56313  0.92447  1.0000
  H   H591      1.0  0.15275  0.54402  0.91639  1.0000
  H   H592      1.0  0.17411  0.57074  0.87036  1.0000
  H   H593      1.0  0.18482  0.56660  0.89340  1.0000
  H   H594      1.0  0.17393  0.54729  0.88554  1.0000
  H   H595      1.0  0.15151  0.54974  0.86356  1.0000
  H   H596      1.0  0.11356  0.58196  0.90712  1.0000
  H   H597      1.0  0.12260  0.54409  0.84906  1.0000
  H   H598      1.0  0.08504  0.57613  0.89154  1.0000
  H   H599      1.0  0.08908  0.55691  0.86283  1.0000
  H   H600      1.0  0.20979  0.63235  0.81560  1.0000
  C   C507      1.0  0.01265  0.40753  0.82821  1.0000
  H   H601      1.0  0.03823  0.60043  0.86490  1.0000
  N   N37       1.0  0.06249  0.42825  0.82443  1.0000
  C   C508      1.0  0.07101  0.43343  0.84179  1.0000
  H   H602      1.0  0.16127  0.64864  0.87864  1.0000
  C   C509      1.0  0.06442  0.44449  0.80825  1.0000
  C   C510      1.0  0.04130  0.42549  0.82940  1.0000
  C   C511      1.0  0.03287  0.40927  0.82400  1.0000
  C   C512      1.0  0.02813  0.43992  0.83879  1.0000
  H   H603      1.0  0.24580  0.39745  0.80162  1.0000
  C   C513      1.0  0.16091  0.33748  0.76822  1.0000
  C   C514      1.0  0.15878  0.38975  0.81331  1.0000
  H   H604      1.0  0.06907  0.42199  0.85463  1.0000
  Fe  Fe68      1.0  0.07697  0.65910  0.93133  1.0000
  H   H605      1.0  0.06460  0.44795  0.84639  1.0000
  H   H606      1.0  0.14014  0.36961  0.83047  1.0000
  H   H607      1.0  0.25670  0.55500  0.93522  1.0000
  C   C515      1.0  0.12619  0.59779  0.81878  1.0000
  H   H608      1.0  0.05701  0.45878  0.81280  1.0000
  C   C516      1.0  0.23056  0.56730  0.95211  1.0000
  H   H609      1.0  0.05769  0.44150  0.79510  1.0000
  H   H610      1.0  0.04152  0.39769  0.81651  1.0000
  H   H611      1.0  0.03310  0.45327  0.84222  1.0000
  H   H612      1.0  0.19775  0.54309  0.80562  1.0000
  S   S139      1.0  0.15841  0.57024  0.75987  1.0000
  H   H613      1.0  0.20188  0.57632  0.96654  1.0000
  N   N38       1.0  0.20199  0.52720  0.78003  1.0000
  H   H614      1.0  0.22240  0.55749  0.76127  1.0000
  H   H615      1.0  0.00647  0.40069  0.78333  1.0000
  C   C517      1.0  0.19587  0.50856  0.79108  1.0000
  C   C518      1.0  0.22364  0.52805  0.77755  1.0000
  C   C519      1.0  0.23721  0.51244  0.78507  1.0000
  C   C520      1.0  0.23175  0.54501  0.76741  1.0000
  C   C521      1.0  0.10379  0.62572  0.84218  1.0000
  H   H616      1.0  0.02181  0.38960  0.94539  1.0000
  S   S140      1.0  0.17597  0.65432  0.96235  1.0000
  H   H617      1.0  0.00645  0.39514  0.82387  1.0000
  S   S141      1.0  0.31651  0.33479  0.76998  1.0000
  H   H618      1.0  0.24246  0.65366  0.78798  1.0000
  H   H619      1.0  0.17951  0.50853  0.79282  1.0000
  H   H620      1.0  0.27623  0.64898  0.75669  1.0000
  H   H621      1.0  0.15368  0.40157  0.82242  1.0000
  H   H622      1.0  0.20032  0.50651  0.80636  1.0000
  C   C522      1.0  0.99778  0.64936  0.99596  1.0000
  H   H623      1.0  0.20216  0.49553  0.78336  1.0000
  H   H624      1.0  0.23254  0.49898  0.79305  1.0000
  C   C523      1.0  0.00273  0.34538  0.91255  1.0000
  Fe  Fe69      1.0  0.19838  0.63928  0.98167  1.0000
  C   C524      1.0  0.26497  0.53076  0.77265  1.0000
  H   H625      1.0  0.28073  0.53188  0.77088  1.0000
  H   H626      1.0  0.14997  0.54775  0.97611  1.0000
  C   C525      1.0  0.20007  0.55525  0.94598  1.0000
  C   C526      1.0  0.12246  0.62932  0.83182  1.0000
  H   H627      1.0  0.09077  0.41226  0.81580  1.0000
  C   C527      1.0  0.17922  0.37741  0.78515  1.0000
  C   C528      1.0  0.07470  0.41038  0.81790  1.0000
  C   C529      1.0  0.01764  0.35761  0.84512  1.0000
  C   C530      1.0  0.01099  0.36904  0.78722  1.0000
  H   H628      1.0  0.09951  0.49329  0.86087  1.0000
  C   C531      1.0  0.09854  0.51866  0.91109  1.0000
  C   C532      1.0  0.20122  0.63147  0.91619  1.0000
  S   S142      1.0  0.09664  0.35847  0.83713  1.0000
  C   C533      1.0  0.19213  0.54363  0.79098  1.0000
  C   C534      1.0  0.10769  0.59402  0.82825  1.0000
  H   H629      1.0  0.11760  0.50777  0.86701  1.0000
  H   H630      1.0  0.12367  0.53244  0.94604  1.0000
  H   H631      1.0  0.20787  0.59478  0.87668  1.0000
  H   H632      1.0  0.00093  0.51617  0.85527  1.0000
  H   H633      1.0  0.07285  0.39743  0.82913  1.0000
  S   S143      1.0  0.08363  0.63106  0.91730  1.0000
  C   C535      1.0  0.19753  0.39664  0.87918  1.0000
  C   C536      1.0  0.10333  0.50179  0.87245  1.0000
  C   C537      1.0  0.21675  0.39490  0.84619  1.0000
  C   C538      1.0  0.19404  0.63798  0.89763  1.0000
  C   C539      1.0  0.23851  0.65567  0.77258  1.0000
  S   S144      1.0  0.05805  0.60873  0.95484  1.0000
  H   H634      1.0  0.13472  0.58714  0.80982  1.0000
  C   C540      1.0  0.01300  0.36864  0.86123  1.0000
  Fe  Fe70      1.0  0.09955  0.37421  0.86330  1.0000
  H   H635      1.0  0.24436  0.40821  0.86562  1.0000
  H   H636      1.0  0.24087  0.64071  0.76744  1.0000
  C   C541      1.0  0.14169  0.42687  0.85699  1.0000
  C   C542      1.0  0.12737  0.49549  0.91658  1.0000
  H   H637      1.0  0.08049  0.47329  0.88793  1.0000
  C   C543      1.0  0.15453  0.60439  0.95277  1.0000
  H   H638      1.0  0.08539  0.47342  0.91313  1.0000
  H   H639      1.0  0.22639  0.37095  0.79635  1.0000
  H   H640      1.0  0.15845  0.58867  0.95544  1.0000
  C   C544      1.0  0.11881  0.47176  0.88797  1.0000
  H   H641      1.0  0.07098  0.40679  0.80350  1.0000
  H   H642      1.0  0.21601  0.60779  0.93445  1.0000
  H   H643      1.0  0.11742  0.65401  0.86122  1.0000
  H   H644      1.0  0.09173  0.51446  0.87336  1.0000
  C   C545      1.0  0.15741  0.35644  0.80608  1.0000
  C   C546      1.0  0.04654  0.34451  0.93858  1.0000
  H   H645      1.0  0.08536  0.52385  0.90398  1.0000
  H   H646      1.0  0.11053  0.63309  0.87799  1.0000
  H   H647      1.0  0.04852  0.37345  0.92311  1.0000
  Fe  Fe71      1.0  0.05214  0.63817  0.96717  1.0000
  S   S145      1.0  0.11477  0.40178  0.85316  1.0000
  C   C547      1.0  0.25210  0.54630  0.76507  1.0000
  H   H648      1.0  0.23709  0.38500  0.87741  1.0000
  C   C548      1.0  0.13161  0.63211  0.94247  1.0000
  Fe  Fe72      1.0  0.08906  0.61650  0.94707  1.0000
  H   H649      1.0  0.09145  0.60026  0.78198  1.0000
  H   H650      1.0  0.14766  0.61865  0.81255  1.0000
  C   C549      1.0  0.13041  0.41218  0.86676  1.0000
  C   C550      1.0  0.14445  0.64507  0.94641  1.0000
  Fe  Fe73      1.0  0.23103  0.60636  0.98385  1.0000
  H   H651      1.0  0.19422  0.37416  0.85327  1.0000
  C   C551      1.0  0.13598  0.61182  0.94699  1.0000
  N   N39       1.0  0.21361  0.40424  0.86483  1.0000
  C   C552      1.0  0.20840  0.42572  0.86043  1.0000
  S   S146      1.0  0.11741  0.59631  0.94742  1.0000
  C   C553      1.0  0.08511  0.48245  0.89853  1.0000
  H   H652      1.0  0.08717  0.43470  0.83852  1.0000
  H   H653      1.0  0.17837  0.52810  0.76171  1.0000
  H   H654      1.0  0.15071  0.34284  0.81012  1.0000
  H   H655      1.0  0.26758  0.50181  0.78862  1.0000
  C   C554      1.0  0.17175  0.35875  0.78941  1.0000
  S   S147      1.0  0.17427  0.65055  0.79863  1.0000
  H   H656      1.0  0.23003  0.40731  0.88904  1.0000
  H   H657      1.0  0.08238  0.60374  0.84673  1.0000
  C   C555      1.0  0.21004  0.56729  0.95582  1.0000
  C   C556      1.0  0.00274  0.34916  0.83801  1.0000
  C   C557      1.0  0.10334  0.52981  0.92521  1.0000
  H   H658      1.0  0.28213  0.46820  0.75376  1.0000
  H   H659      1.0  0.09400  0.54313  0.92858  1.0000
  C   C558      1.0  0.04095  0.36476  0.93525  1.0000
  H   H660      1.0  0.01170  0.33763  0.78908  1.0000
  C   C559      1.0  0.13349  0.61548  0.82043  1.0000
  S   S148      1.0  0.24394  0.58196  0.96451  1.0000
  C   C560      1.0  0.20572  0.60500  0.88778  1.0000
  H   H661      1.0  0.19675  0.54370  0.75183  1.0000
  C   C561      1.0  0.17277  0.39261  0.79701  1.0000
  C   C562      1.0  0.11036  0.50111  0.90635  1.0000
  H   H662      1.0  0.25791  0.55951  0.75743  1.0000
  Fe  Fe74      1.0  0.10628  0.33091  0.85567  1.0000
  C   C563      1.0  0.07420  0.63385  0.86556  1.0000
  H   H663      1.0  0.31415  0.44776  0.75002  1.0000
  C   C564      1.0  0.12003  0.52383  0.93503  1.0000
  C   C565      1.0  0.13295  0.57023  0.76843  1.0000
  S   S149      1.0  0.08408  0.64462  0.96133  1.0000
  C   C566      1.0  0.09661  0.60765  0.83989  1.0000
  H   H664      1.0  0.18434  0.55508  0.94952  1.0000
  Fe  Fe75      1.0  0.06615  0.35431  0.85135  1.0000
  H   H665      1.0  0.19528  0.40431  0.89283  1.0000
  H   H666      1.0  0.20084  0.38067  0.88399  1.0000
  H   H667      1.0  0.12005  0.46126  0.90158  1.0000
  C   C567      1.0  0.19633  0.62403  0.88363  1.0000
  C   C568      1.0  0.21272  0.59918  0.90607  1.0000
  H   H668      1.0  0.13382  0.47588  0.88226  1.0000
  H   H669      1.0  0.18308  0.39916  0.87289  1.0000
  C   C569      1.0  0.10473  0.64626  0.86847  1.0000
  C   C570      1.0  0.12086  0.58756  0.77222  1.0000
  H   H670      1.0  0.17864  0.40673  0.79353  1.0000
  C   C571      1.0  0.22366  0.37753  0.81013  1.0000
  Fe  Fe76      1.0  0.27658  0.40220  0.75414  1.0000
  H   H671      1.0  0.15562  0.65042  0.90471  1.0000
  H   H672      1.0  0.00628  0.34042  0.82575  1.0000
  H   H673      1.0  0.07758  0.62022  0.87565  1.0000
  H   H674      1.0  0.14886  0.33291  0.77953  1.0000
  H   H675      1.0  0.00187  0.65295  0.98031  1.0000
  H   H676      1.0  0.12861  0.64302  0.83212  1.0000
  C   C572      1.0  0.00805  0.43772  0.84340  1.0000
  C   C573      1.0  0.15333  0.55649  0.98713  1.0000
  H   H677      1.0  0.01415  0.35008  0.90051  1.0000
  H   H678      1.0  0.19113  0.62784  0.86925  1.0000
  C   C574      1.0  0.20840  0.64801  0.81675  1.0000
  C   C575      1.0  0.00032  0.42155  0.83811  1.0000
  H   H679      1.0  0.01560  0.51390  0.87513  1.0000
  H   H680      1.0  0.14255  0.62198  0.99088  1.0000
  H   H681      1.0  0.19001  0.38069  0.77271  1.0000
  H   H682      1.0  0.20736  0.35038  0.76642  1.0000
  S   S150      1.0  0.30891  0.39148  0.74791  1.0000
  H   H683      1.0  0.18207  0.54059  0.98992  1.0000
  H   H684      1.0  0.00993  0.54971  0.87269  1.0000
  H   H685      1.0  0.22243  0.66072  0.77324  1.0000
  H   H686      1.0  0.01333  0.33380  0.97896  1.0000
  H   H687      1.0  0.19137  0.65997  0.86086  1.0000
  N   N40       1.0  0.17810  0.34232  0.77719  1.0000
  H   H688      1.0  0.00500  0.52714  0.90454  1.0000
  C   C576      1.0  0.19380  0.34670  0.76087  1.0000
  H   H689      1.0  0.15452  0.35039  0.75871  1.0000
  C   C577      1.0  0.00015  0.51429  0.87164  1.0000
  H   H690      1.0  0.09614  0.65667  0.87840  1.0000
  C   C578      1.0  0.16328  0.65728  0.89078  1.0000
  H   H691      1.0  0.14032  0.66078  0.94422  1.0000
  S   S151      1.0  0.19898  0.60803  0.99520  1.0000
  H   H692      1.0  0.06637  0.64503  0.87510  1.0000
  C   C579      1.0  0.13974  0.57205  0.99316  1.0000
  C   C580      1.0  0.00201  0.38713  0.77960  1.0000
  C   C581      1.0  0.00474  0.35167  0.78293  1.0000
  S   S152      1.0  0.99858  0.49687  0.82280  1.0000
  C   C582      1.0  0.99971  0.46588  0.79957  1.0000
  H   H693      1.0  0.07726  0.65494  0.82967  1.0000
  H   H694      1.0  0.99914  0.44263  0.78116  1.0000
  H   H695      1.0  0.18870  0.35904  0.74995  1.0000
  C   C583      1.0  0.17141  0.55242  0.99490  1.0000
  H   H696      1.0  0.99827  0.44899  0.85047  1.0000
  C   C584      1.0  0.19290  0.66030  0.80871  1.0000
  C   C585      1.0  0.28270  0.75685  0.24656  1.0000
  Fe  Fe77      1.0  0.18187  0.77214  0.20830  1.0000
  S   S153      1.0  0.14862  0.77484  0.21316  1.0000
  S   S154      1.0  0.20178  0.79061  0.18701  1.0000
  H   H697      1.0  0.36152  0.85228  0.01779  1.0000
  C   C586      1.0  0.49273  0.89521  0.03812  1.0000
  C   C587      1.0  0.26359  0.75434  0.24317  1.0000
  C   C588      1.0  0.30630  0.74946  0.00154  1.0000
  H   H698      1.0  0.03635  0.67227  0.03364  1.0000
  S   S155      1.0  0.18542  0.73916  0.21003  1.0000
  Fe  Fe78      1.0  0.29418  0.74289  0.06825  1.0000
  S   S156      1.0  0.27469  0.77004  0.05857  1.0000
  S   S157      1.0  0.29973  0.71481  0.05258  1.0000
  Fe  Fe79      1.0  0.30242  0.76017  0.10550  1.0000
  S   S158      1.0  0.28311  0.78829  0.09855  1.0000
  S   S159      1.0  0.31225  0.75762  0.13610  1.0000
  Fe  Fe80      1.0  0.26217  0.76876  0.09047  1.0000
  S   S160      1.0  0.22937  0.77070  0.09959  1.0000
  Fe  Fe81      1.0  0.29759  0.78732  0.06758  1.0000
  S   S161      1.0  0.30536  0.81533  0.04816  1.0000
  S   S162      1.0  0.28022  0.74068  0.09970  1.0000
  S   S163      1.0  0.31846  0.76014  0.07480  1.0000
  Fe  Fe82      1.0  0.36539  0.94927  0.02788  1.0000
  S   S164      1.0  0.39736  0.94216  0.01745  1.0000
  Fe  Fe83      1.0  0.36244  0.90839  0.05216  1.0000
  S   S165      1.0  0.39433  0.89894  0.04310  1.0000
  S   S166      1.0  0.34733  0.88507  0.07335  1.0000
  Fe  Fe84      1.0  0.40021  0.92902  0.04882  1.0000
  S   S167      1.0  0.42876  0.92898  0.06234  1.0000
  Fe  Fe85      1.0  0.38826  0.91298  0.01311  1.0000
  S   S168      1.0  0.36865  0.93793  0.06000  1.0000
  H   H699      1.0  0.28003  0.72295  0.18781  1.0000
  C   C589      1.0  0.21955  0.67975  0.07810  1.0000
  C   C590      1.0  0.43041  0.77573  0.00395  1.0000
  Fe  Fe86      1.0  0.46939  0.95017  0.15241  1.0000
  S   S169      1.0  0.48003  0.94689  0.18283  1.0000
  S   S170      1.0  0.44177  0.96527  0.13986  1.0000
  C   C591      1.0  0.48611  0.98213  0.08998  1.0000
  C   C592      1.0  0.38848  0.88988  0.12382  1.0000
  Fe  Fe87      1.0  0.48528  0.91426  0.17922  1.0000
  S   S171      1.0  0.47860  0.88770  0.20153  1.0000
  H   H700      1.0  0.40292  0.79713  0.03554  1.0000
  S   S172      1.0  0.47239  0.91789  0.15055  1.0000
  Fe  Fe88      1.0  0.40645  0.75682  0.18315  1.0000
  S   S173      1.0  0.38996  0.78404  0.19407  1.0000
  S   S174      1.0  0.40188  0.74879  0.15319  1.0000
  Fe  Fe89      1.0  0.43088  0.74925  0.21803  1.0000
  S   S175      1.0  0.41625  0.77654  0.23144  1.0000
  C   C593      1.0  0.25909  0.75330  0.22399  1.0000
  Fe  Fe90      1.0  0.38826  0.76646  0.22393  1.0000
  Fe  Fe91      1.0  0.41940  0.79173  0.20022  1.0000
  S   S176      1.0  0.42726  0.82136  0.18420  1.0000
  S   S177      1.0  0.40277  0.73841  0.21244  1.0000
  S   S178      1.0  0.43609  0.76516  0.18760  1.0000
  C   C594      1.0  0.46503  0.86872  0.19650  1.0000
  C   C595      1.0  0.46072  0.85333  0.21134  1.0000
  C   C596      1.0  0.44942  0.83845  0.20790  1.0000
  C   C597      1.0  0.44214  0.83900  0.18961  1.0000
  C   C598      1.0  0.44680  0.85412  0.17472  1.0000
  C   C599      1.0  0.45836  0.86871  0.17804  1.0000
  H   H701      1.0  0.46586  0.85312  0.22567  1.0000
  H   H702      1.0  0.44594  0.82689  0.21952  1.0000
  H   H703      1.0  0.44134  0.85460  0.16050  1.0000
  H   H704      1.0  0.46180  0.88016  0.16639  1.0000
  C   C600      1.0  0.43211  0.94076  0.08294  1.0000
  C   C601      1.0  0.45054  0.93718  0.09036  1.0000
  C   C602      1.0  0.45376  0.94534  0.10731  1.0000
  C   C603      1.0  0.43857  0.95712  0.11710  1.0000
  C   C604      1.0  0.42036  0.96140  0.10923  1.0000
  C   C605      1.0  0.41706  0.95309  0.09226  1.0000
  H   H705      1.0  0.46231  0.92773  0.08322  1.0000
  H   H706      1.0  0.46796  0.94219  0.11297  1.0000
  C   C606      1.0  0.46635  0.91772  0.02621  1.0000
  H   H707      1.0  0.46226  0.79934  0.16346  1.0000
  C   C607      1.0  0.33735  0.75574  0.14009  1.0000
  C   C608      1.0  0.35257  0.75231  0.12499  1.0000
  C   C609      1.0  0.37239  0.75005  0.12912  1.0000
  C   C610      1.0  0.37702  0.75144  0.14826  1.0000
  C   C611      1.0  0.36180  0.75529  0.16319  1.0000
  C   C612      1.0  0.34205  0.75733  0.15913  1.0000
  H   H708      1.0  0.34905  0.75093  0.11031  1.0000
  H   H709      1.0  0.38412  0.74698  0.11753  1.0000
  H   H710      1.0  0.36519  0.75632  0.17800  1.0000
  H   H711      1.0  0.33038  0.76003  0.17084  1.0000
  C   C613      1.0  0.31618  0.83492  0.05590  1.0000
  C   C614      1.0  0.32350  0.83340  0.07426  1.0000
  C   C615      1.0  0.33274  0.84900  0.07946  1.0000
  C   C616      1.0  0.33524  0.86604  0.06621  1.0000
  C   C617      1.0  0.32783  0.86759  0.04789  1.0000
  C   C618      1.0  0.31807  0.85225  0.04293  1.0000
  H   H712      1.0  0.32207  0.82021  0.08444  1.0000
  H   H713      1.0  0.33824  0.84773  0.09374  1.0000
  H   H714      1.0  0.32940  0.88071  0.03764  1.0000
  H   H715      1.0  0.31235  0.85365  0.02873  1.0000
  H   H716      1.0  0.05844  0.66772  0.05743  1.0000
  C   C619      1.0  0.45665  0.69658  0.21532  1.0000
  H   H717      1.0  0.44703  0.70496  0.20518  1.0000
  C   C620      1.0  0.20962  0.78370  0.16322  1.0000
  C   C621      1.0  0.22738  0.78973  0.15344  1.0000
  C   C622      1.0  0.23397  0.78491  0.13429  1.0000
  C   C623      1.0  0.22236  0.77483  0.12442  1.0000
  C   C624      1.0  0.20453  0.76883  0.13415  1.0000
  C   C625      1.0  0.19835  0.77292  0.15369  1.0000
  H   H718      1.0  0.23608  0.79813  0.16075  1.0000
  H   H719      1.0  0.24771  0.78958  0.12694  1.0000
  H   H720      1.0  0.19547  0.76104  0.12657  1.0000
  H   H721      1.0  0.18457  0.76831  0.16112  1.0000
  H   H722      1.0  0.42307  0.86467  0.02437  1.0000
  C   C626      1.0  0.12402  0.66763  0.18033  1.0000
  H   H723      1.0  0.36963  0.87587  0.10811  1.0000
  H   H724      1.0  0.24612  0.75062  0.16963  1.0000
  H   H725      1.0  0.42378  0.91776  0.16527  1.0000
  H   H726      1.0  0.36898  0.79865  0.03357  1.0000
  H   H727      1.0  0.18809  0.70196  0.23573  1.0000
  H   H728      1.0  0.36559  0.84811  0.13417  1.0000
  C   C627      1.0  0.27517  0.67451  0.02688  1.0000
  C   C628      1.0  0.28667  0.68351  0.03822  1.0000
  H   H729      1.0  0.10594  0.78733  0.21239  1.0000
  C   C629      1.0  0.48138  0.67454  0.24150  1.0000
  C   C630      1.0  0.47821  0.86505  0.12345  1.0000
  H   H730      1.0  0.45874  0.66983  0.20123  1.0000
  C   C631      1.0  0.09550  0.77625  0.21205  1.0000
  H   H731      1.0  0.46992  0.85836  0.13639  1.0000
  C   C632      1.0  0.49019  0.87973  0.12519  1.0000
  H   H732      1.0  0.42376  0.76257  0.01021  1.0000
  H   H733      1.0  0.38343  0.92611  0.14803  1.0000
  N   N41       1.0  0.26969  0.75382  0.18694  1.0000
  H   H734      1.0  0.42555  0.89174  0.16775  1.0000
  C   C633      1.0  0.44639  0.78123  0.01254  1.0000
  H   H735      1.0  0.44349  0.89146  0.04582  1.0000
  H   H736      1.0  0.15858  0.69372  0.19448  1.0000
  C   C634      1.0  0.03465  0.67251  0.09037  1.0000
  C   C635      1.0  0.24881  0.75112  0.18525  1.0000
  S   S179      1.0  0.35595  0.92071  0.02153  1.0000
  H   H737      1.0  0.09311  0.67785  0.18079  1.0000
  C   C636      1.0  0.26771  0.71493  0.03101  1.0000
  H   H738      1.0  0.13819  0.82531  0.24503  1.0000
  H   H739      1.0  0.19955  0.71683  0.10628  1.0000
  Fe  Fe92      1.0  0.15232  0.74148  0.21732  1.0000
  C   C637      1.0  0.00788  0.68626  0.02932  1.0000
  H   H740      1.0  0.34401  0.73536  0.00938  1.0000
  N   N42       1.0  0.23718  0.83292  0.07951  1.0000
  C   C638      1.0  0.21683  0.82771  0.08609  1.0000
  C   C639      1.0  0.23558  0.85161  0.06620  1.0000
  C   C640      1.0  0.24752  0.81710  0.06805  1.0000
  C   C641      1.0  0.24850  0.83521  0.09602  1.0000
  C   C642      1.0  0.24060  0.83249  0.11621  1.0000
  C   C643      1.0  0.26808  0.84055  0.09212  1.0000
  C   C644      1.0  0.25169  0.83496  0.13138  1.0000
  C   C645      1.0  0.27897  0.84310  0.10740  1.0000
  C   C646      1.0  0.27081  0.84026  0.12699  1.0000
  H   H741      1.0  0.20789  0.83927  0.09435  1.0000
  H   H742      1.0  0.20876  0.82589  0.07339  1.0000
  H   H743      1.0  0.21701  0.81336  0.09564  1.0000
  H   H744      1.0  0.25021  0.85535  0.05881  1.0000
  H   H745      1.0  0.22894  0.86414  0.07453  1.0000
  H   H746      1.0  0.22629  0.85080  0.05415  1.0000
  H   H747      1.0  0.24882  0.80284  0.07758  1.0000
  H   H748      1.0  0.23948  0.81488  0.05548  1.0000
  H   H749      1.0  0.26268  0.82013  0.06169  1.0000
  H   H750      1.0  0.22596  0.82819  0.12077  1.0000
  H   H751      1.0  0.27523  0.84265  0.07718  1.0000
  H   H752      1.0  0.24538  0.83269  0.14666  1.0000
  H   H753      1.0  0.29386  0.84725  0.10403  1.0000
  H   H754      1.0  0.27937  0.84212  0.13880  1.0000
  H   H755      1.0  0.40861  0.97072  0.11657  1.0000
  C   C647      1.0  0.17739  0.69230  0.23223  1.0000
  H   H756      1.0  0.26478  0.73053  0.03239  1.0000
  C   C648      1.0  0.39505  0.82716  0.02174  1.0000
  C   C649      1.0  0.35991  0.83638  0.02151  1.0000
  S   S180      1.0  0.46466  0.83853  0.10302  1.0000
  C   C650      1.0  0.40151  0.84625  0.01908  1.0000
  C   C651      1.0  0.47354  0.80967  0.15825  1.0000
  H   H757      1.0  0.40598  0.93749  0.14267  1.0000
  C   C652      1.0  0.45572  0.79776  0.00415  1.0000
  H   H758      1.0  0.47507  0.92346  0.01243  1.0000
  Fe  Fe93      1.0  0.48370  0.82278  0.07989  1.0000
  C   C653      1.0  0.37469  0.85942  0.13610  1.0000
  H   H759      1.0  0.39007  0.90151  0.11180  1.0000
  C   C654      1.0  0.10917  0.69900  0.19143  1.0000
  Fe  Fe94      1.0  0.18676  0.74074  0.24250  1.0000
  H   H760      1.0  0.40239  0.90567  0.17514  1.0000
  H   H761      1.0  0.19082  0.68719  0.09452  1.0000
  H   H762      1.0  0.34602  0.83387  0.01572  1.0000
  N   N43       1.0  0.49268  0.79947  0.15058  1.0000
  H   H763      1.0  0.43664  0.88972  0.13227  1.0000
  C   C655      1.0  0.39560  0.87313  0.15576  1.0000
  H   H764      1.0  0.36179  0.88827  0.00258  1.0000
  N   N44       1.0  0.40838  0.80490  0.12371  1.0000
  C   C656      1.0  0.42282  0.81285  0.13428  1.0000
  C   C657      1.0  0.39132  0.80045  0.13838  1.0000
  C   C658      1.0  0.41800  0.78627  0.11644  1.0000
  C   C659      1.0  0.40152  0.81850  0.10686  1.0000
  C   C660      1.0  0.38695  0.81332  0.09596  1.0000
  C   C661      1.0  0.40910  0.83687  0.10058  1.0000
  C   C662      1.0  0.38001  0.82596  0.08015  1.0000
  C   C663      1.0  0.40205  0.84939  0.08471  1.0000
  C   C664      1.0  0.38742  0.84403  0.07464  1.0000
  H   H765      1.0  0.41660  0.82692  0.14020  1.0000
  H   H766      1.0  0.42713  0.80250  0.14724  1.0000
  H   H767      1.0  0.43668  0.81525  0.12457  1.0000
  H   H768      1.0  0.38324  0.81409  0.14374  1.0000
  H   H769      1.0  0.39614  0.79076  0.15150  1.0000
  H   H770      1.0  0.38061  0.79241  0.13248  1.0000
  H   H771      1.0  0.43007  0.78911  0.10441  1.0000
  H   H772      1.0  0.42453  0.77609  0.12844  1.0000
  H   H773      1.0  0.40738  0.77794  0.11073  1.0000
  H   H774      1.0  0.38076  0.79943  0.09965  1.0000
  H   H775      1.0  0.42042  0.84199  0.10773  1.0000
  H   H776      1.0  0.36863  0.82182  0.07228  1.0000
  H   H777      1.0  0.40780  0.86347  0.08032  1.0000
  H   H778      1.0  0.38175  0.85397  0.06259  1.0000
  C   C665      1.0  0.40648  0.81214  0.03287  1.0000
  C   C666      1.0  0.39772  0.88966  0.14131  1.0000
  C   C667      1.0  0.33484  0.72559  0.00352  1.0000
  H   H779      1.0  0.43727  0.91581  0.13112  1.0000
  S   S181      1.0  0.48389  0.79170  0.07331  1.0000
  H   H780      1.0  0.39585  0.92862  0.12336  1.0000
  H   H781      1.0  0.38265  0.84596  0.16448  1.0000
  H   H782      1.0  0.27925  0.73569  0.16325  1.0000
  H   H783      1.0  0.25032  0.67851  0.06443  1.0000
  C   C668      1.0  0.46248  0.70552  0.23062  1.0000
  C   C669      1.0  0.37215  0.80299  0.01743  1.0000
  C   C670      1.0  0.41548  0.90510  0.16385  1.0000
  C   C671      1.0  0.49026  0.76975  0.17576  1.0000
  C   C672      1.0  0.37693  0.87511  0.12144  1.0000
  H   H784      1.0  0.47647  0.76733  0.17087  1.0000
  H   H785      1.0  0.40255  0.87128  0.16929  1.0000
  C   C673      1.0  0.21044  0.70820  0.09711  1.0000
  C   C674      1.0  0.42947  0.83491  0.03739  1.0000
  H   H786      1.0  0.04001  0.68676  0.08381  1.0000
  C   C675      1.0  0.01719  0.67165  0.06187  1.0000
  C   C676      1.0  0.46329  0.67665  0.21310  1.0000
  C   C677      1.0  0.47780  0.85837  0.10512  1.0000
  H   H787      1.0  0.39359  0.85848  0.01086  1.0000
  N   N45       1.0  0.47262  0.89653  0.03176  1.0000
  H   H788      1.0  0.31196  0.69834  0.00292  1.0000
  S   S182      1.0  0.12836  0.72554  0.20707  1.0000
  C   C678      1.0  0.45920  0.88912  0.04892  1.0000
  C   C679      1.0  0.47162  0.88494  0.01515  1.0000
  H   H789      1.0  0.32688  0.71815  0.01694  1.0000
  H   H790      1.0  0.18345  0.67338  0.06815  1.0000
  H   H791      1.0  0.48451  0.79864  0.12122  1.0000
  H   H792      1.0  0.46288  0.87309  0.05309  1.0000
  H   H793      1.0  0.06217  0.75930  0.22019  1.0000
  C   C680      1.0  0.14247  0.67239  0.18428  1.0000
  H   H794      1.0  0.48981  0.86081  0.07467  1.0000
  H   H795      1.0  0.08287  0.74122  0.22291  1.0000
  C   C681      1.0  0.24337  0.70313  0.08054  1.0000
  H   H796      1.0  0.45203  0.77218  0.02509  1.0000
  H   H797      1.0  0.46009  0.89676  0.06216  1.0000
  C   C682      1.0  0.20560  0.69124  0.09024  1.0000
  C   C683      1.0  0.48954  0.86629  0.08867  1.0000
  S   S183      1.0  0.35802  0.76474  0.24096  1.0000
  C   C684      1.0  0.47551  0.66543  0.22632  1.0000
  S   S184      1.0  0.18532  0.77353  0.24030  1.0000
  C   C685      1.0  0.48939  0.78852  0.13411  1.0000
  H   H798      1.0  0.43227  0.80431  0.04852  1.0000
  C   C686      1.0  0.23867  0.68621  0.07348  1.0000
  C   C687      1.0  0.10742  0.68126  0.18365  1.0000
  H   H799      1.0  0.10977  0.74639  0.23888  1.0000
  H   H800      1.0  0.38427  0.79248  0.01129  1.0000
  C   C688      1.0  0.25666  0.70608  0.01911  1.0000
  H   H801      1.0  0.24542  0.71509  0.01130  1.0000
  H   H802      1.0  0.48880  0.74482  0.19808  1.0000
  C   C689      1.0  0.42343  0.81607  0.04053  1.0000
  H   H803      1.0  0.10412  0.76386  0.20466  1.0000
  C   C690      1.0  0.38419  0.85831  0.15312  1.0000
  S   S185      1.0  0.47823  0.80331  0.01177  1.0000
  H   H804      1.0  0.29866  0.67475  0.04517  1.0000
  S   S186      1.0  0.48806  0.83476  0.04824  1.0000
  C   C691      1.0  0.15960  0.66411  0.24291  1.0000
  H   H805      1.0  0.13488  0.68718  0.24011  1.0000
  S   S187      1.0  0.45458  0.73037  0.23434  1.0000
  C   C692      1.0  0.12755  0.70361  0.19571  1.0000
  C   C693      1.0  0.22927  0.71414  0.09225  1.0000
  C   C694      1.0  0.39817  0.92522  0.13921  1.0000
  H   H806      1.0  0.47531  0.81765  0.17099  1.0000
  C   C695      1.0  0.19693  0.66741  0.05920  1.0000
  Fe  Fe95      1.0  0.49107  0.80353  0.04122  1.0000
  N   N46       1.0  0.37709  0.82363  0.01326  1.0000
  C   C696      1.0  0.28317  0.70379  0.04022  1.0000
  H   H807      1.0  0.29008  0.77455  0.17343  1.0000
  C   C697      1.0  0.14429  0.69036  0.19164  1.0000
  H   H808      1.0  0.16387  0.70201  0.22851  1.0000
  C   C698      1.0  0.26038  0.68586  0.01684  1.0000
  C   C699      1.0  0.27381  0.75475  0.20751  1.0000
  H   H809      1.0  0.46709  0.82064  0.14679  1.0000
  H   H810      1.0  0.44284  0.83773  0.04300  1.0000
  C   C700      1.0  0.08564  0.80219  0.24505  1.0000
  H   H811      1.0  0.18386  0.68557  0.21861  1.0000
  C   C701      1.0  0.28232  0.73712  0.17858  1.0000
  H   H812      1.0  0.40287  0.95613  0.08650  1.0000
  C   C702      1.0  0.42774  0.90425  0.12963  1.0000
  H   H813      1.0  0.24394  0.75139  0.22256  1.0000
  H   H814      1.0  0.23297  0.72731  0.09758  1.0000
  H   H815      1.0  0.42447  0.90616  0.11396  1.0000
  N   N47       1.0  0.40955  0.90570  0.14362  1.0000
  C   C703      1.0  0.41844  0.84999  0.02680  1.0000
  H   H816      1.0  0.09610  0.70911  0.19436  1.0000
  H   H817      1.0  0.02101  0.67595  0.10038  1.0000
  H   H818      1.0  0.44145  0.89688  0.00970  1.0000
  H   H819      1.0  0.30509  0.75847  0.19982  1.0000
  S   S188      1.0  0.34697  0.97731  0.01681  1.0000
  H   H820      1.0  0.47056  0.98384  0.08779  1.0000
  H   H821      1.0  0.01165  0.68907  0.01348  1.0000
  H   H822      1.0  0.20045  0.67867  0.04656  1.0000
  H   H823      1.0  0.49199  0.95426  0.07821  1.0000
  H   H824      1.0  0.35771  0.83350  0.03790  1.0000
  H   H825      1.0  0.47787  0.77832  0.13838  1.0000
  H   H826      1.0  0.11312  0.66694  0.22812  1.0000
  H   H827      1.0  0.49325  0.90484  0.04993  1.0000
  H   H828      1.0  0.08406  0.78318  0.20242  1.0000
  H   H829      1.0  0.24454  0.73711  0.19365  1.0000
  C   C704      1.0  0.47501  0.69445  0.24354  1.0000
  H   H830      1.0  0.29832  0.73898  0.17739  1.0000
  H   H831      1.0  0.45045  0.92066  0.02398  1.0000
  C   C705      1.0  0.29313  0.75726  0.21154  1.0000
  H   H832      1.0  0.25806  0.70779  0.07690  1.0000
  H   H833      1.0  0.35874  0.80089  0.01056  1.0000
  S   S189      1.0  0.24859  0.67630  0.99885  1.0000
  H   H834      1.0  0.31236  0.76029  0.23341  1.0000
  H   H835      1.0  0.46807  0.92689  0.03809  1.0000
  C   C706      1.0  0.29745  0.75831  0.23076  1.0000
  H   H836      1.0  0.27076  0.77235  0.15913  1.0000
  H   H837      1.0  0.49144  0.88384  0.13959  1.0000
  N   N48       1.0  0.08643  0.76942  0.23207  1.0000
  C   C707      1.0  0.02200  0.67645  0.04120  1.0000
  C   C708      1.0  0.27417  0.77234  0.17461  1.0000
  H   H838      1.0  0.23849  0.76356  0.19071  1.0000
  C   C709      1.0  0.07397  0.75374  0.22990  1.0000
  C   C710      1.0  0.48717  0.87065  0.00895  1.0000
  H   H839      1.0  0.11406  0.77002  0.24400  1.0000
  H   H840      1.0  0.26547  0.78536  0.18078  1.0000
  H   H841      1.0  0.48927  0.78432  0.24091  1.0000
  C   C711      1.0  0.49728  0.75672  0.19130  1.0000
  C   C712      1.0  0.10227  0.76029  0.24425  1.0000
  C   C713      1.0  0.45422  0.88686  0.00543  1.0000
  C   C714      1.0  0.14019  0.67188  0.23886  1.0000
  H   H842      1.0  0.31340  0.75969  0.00917  1.0000
  H   H843      1.0  0.29741  0.74046  0.01313  1.0000
  H   H844      1.0  0.04580  0.66481  0.10002  1.0000
  C   C715      1.0  0.07548  0.78644  0.24134  1.0000
  H   H845      1.0  0.48629  0.74943  0.24333  1.0000
  H   H846      1.0  0.10143  0.80207  0.24125  1.0000
  H   H847      1.0  0.06716  0.74747  0.24451  1.0000
  S   S190      1.0  0.02982  0.66245  0.14199  1.0000
  Fe  Fe96      1.0  0.15239  0.77357  0.24549  1.0000
  H   H848      1.0  0.04575  0.77674  0.24485  1.0000
  C   C716      1.0  0.48054  0.76425  0.28942  1.0000
  S   S191      1.0  0.20999  0.72116  0.25879  1.0000
  Fe  Fe97      1.0  0.22923  0.89077  0.44957  1.0000
  S   S192      1.0  0.19888  0.88211  0.44877  1.0000
  S   S193      1.0  0.25674  0.87635  0.43255  1.0000
  Fe  Fe98      1.0  0.21433  0.92503  0.47513  1.0000
  S   S194      1.0  0.18290  0.91885  0.47594  1.0000
  H   H849      1.0  0.31796  0.70720  0.44632  1.0000
  Fe  Fe99      1.0  0.19489  0.88704  0.48083  1.0000
  N   N49       1.0  0.41608  0.66482  0.41338  1.0000
  Fe  Fe100     1.0  0.18920  0.91451  0.44372  1.0000
  S   S195      1.0  0.16733  0.92938  0.42261  1.0000
  S   S196      1.0  0.22605  0.89320  0.48242  1.0000
  S   S197      1.0  0.21995  0.92319  0.44219  1.0000
  Fe  Fe101     1.0  0.05742  0.88214  0.34717  1.0000
  S   S198      1.0  0.05464  0.90035  0.31794  1.0000
  S   S199      1.0  0.03585  0.86379  0.36606  1.0000
  Fe  Fe102     1.0  0.09828  0.89413  0.35129  1.0000
  S   S200      1.0  0.09843  0.91378  0.32261  1.0000
  S   S201      1.0  0.12355  0.88251  0.36966  1.0000
  Fe  Fe103     1.0  0.06628  0.92380  0.33223  1.0000
  S   S202      1.0  0.05198  0.95535  0.33573  1.0000
  Fe  Fe104     1.0  0.08675  0.88864  0.31086  1.0000
  H   H850      1.0  0.48041  0.70915  0.31200  1.0000
  S   S203      1.0  0.06740  0.90584  0.36192  1.0000
  S   S204      1.0  0.08814  0.86876  0.33902  1.0000
  Fe  Fe105     1.0  0.26588  0.75246  0.34654  1.0000
  S   S205      1.0  0.27919  0.78055  0.34828  1.0000
  S   S206      1.0  0.23821  0.75743  0.33047  1.0000
  Fe  Fe106     1.0  0.29200  0.72849  0.37656  1.0000
  S   S207      1.0  0.30601  0.75532  0.38068  1.0000
  S   S208      1.0  0.30415  0.70283  0.39762  1.0000
  Fe  Fe107     1.0  0.27596  0.77239  0.38116  1.0000
  S   S209      1.0  0.25988  0.79001  0.40578  1.0000
  Fe  Fe108     1.0  0.30803  0.76095  0.34759  1.0000
  S   S210      1.0  0.33869  0.76670  0.33355  1.0000
  S   S211      1.0  0.26160  0.74497  0.37958  1.0000
  S   S212      1.0  0.29517  0.73341  0.34329  1.0000
  C   C717      1.0  0.00713  0.87370  0.34054  1.0000
  H   H851      1.0  0.40294  0.70171  0.34623  1.0000
  H   H852      1.0  0.04348  0.81068  0.44617  1.0000
  C   C718      1.0  0.28898  0.98340  0.47909  1.0000
  H   H853      1.0  0.01412  0.82927  0.41871  1.0000
  H   H854      1.0  0.42798  0.69232  0.40234  1.0000
  C   C719      1.0  0.49501  0.77059  0.31882  1.0000
  C   C720      1.0  0.34418  0.76556  0.30792  1.0000
  C   C721      1.0  0.32972  0.76223  0.29639  1.0000
  C   C722      1.0  0.33428  0.76190  0.27591  1.0000
  C   C723      1.0  0.35330  0.76481  0.26680  1.0000
  C   C724      1.0  0.36792  0.76773  0.27838  1.0000
  C   C725      1.0  0.36334  0.76811  0.29891  1.0000
  H   H855      1.0  0.31492  0.76026  0.30320  1.0000
  H   H856      1.0  0.32294  0.75958  0.26706  1.0000
  H   H857      1.0  0.38261  0.77001  0.27149  1.0000
  H   H858      1.0  0.37457  0.77074  0.30778  1.0000
  C   C726      1.0  0.13016  0.88393  0.47420  1.0000
  C   C727      1.0  0.14944  0.88136  0.47937  1.0000
  C   C728      1.0  0.36378  0.68453  0.45043  1.0000
  H   H859      1.0  0.02030  0.93106  0.34018  1.0000
  H   H860      1.0  0.12658  0.89421  0.46163  1.0000
  H   H861      1.0  0.16043  0.88940  0.47043  1.0000
  C   C729      1.0  0.25681  0.85281  0.42418  1.0000
  C   C730      1.0  0.27137  0.84658  0.40927  1.0000
  C   C731      1.0  0.27212  0.82773  0.40281  1.0000
  C   C732      1.0  0.25859  0.81471  0.41157  1.0000
  C   C733      1.0  0.24414  0.82092  0.42654  1.0000
  C   C734      1.0  0.24311  0.83988  0.43266  1.0000
  H   H862      1.0  0.28202  0.85645  0.40256  1.0000
  H   H863      1.0  0.28331  0.82321  0.39125  1.0000
  H   H864      1.0  0.23365  0.81097  0.43349  1.0000
  H   H865      1.0  0.23191  0.84436  0.44422  1.0000
  C   C735      1.0  0.15653  0.91628  0.40679  1.0000
  C   C736      1.0  0.14359  0.92666  0.39377  1.0000
  C   C737      1.0  0.13374  0.91662  0.38184  1.0000
  C   C738      1.0  0.13682  0.89608  0.38286  1.0000
  C   C739      1.0  0.15004  0.88573  0.39557  1.0000
  C   C740      1.0  0.15982  0.89576  0.40753  1.0000
  H   H866      1.0  0.14108  0.94255  0.39302  1.0000
  H   H867      1.0  0.12372  0.92475  0.37199  1.0000
  H   H868      1.0  0.15252  0.86983  0.39647  1.0000
  H   H869      1.0  0.16973  0.88760  0.41747  1.0000
  C   C741      1.0  0.21838  0.73137  0.27836  1.0000
  C   C742      1.0  0.23588  0.72305  0.28627  1.0000
  C   C743      1.0  0.24253  0.73101  0.30201  1.0000
  C   C744      1.0  0.23150  0.74715  0.31010  1.0000
  C   C745      1.0  0.21403  0.75537  0.30215  1.0000
  C   C746      1.0  0.20757  0.74763  0.28632  1.0000
  H   H870      1.0  0.24434  0.71045  0.28021  1.0000
  H   H871      1.0  0.25597  0.72451  0.30805  1.0000
  H   H872      1.0  0.20532  0.76774  0.30838  1.0000
  H   H873      1.0  0.19397  0.75406  0.28058  1.0000
  H   H874      1.0  0.01841  0.87959  0.32984  1.0000
  C   C747      1.0  0.48273  0.69328  0.31335  1.0000
  H   H875      1.0  0.11234  0.85632  0.41307  1.0000
  C   C748      1.0  0.30943  0.66898  0.37828  1.0000
  H   H876      1.0  0.00077  0.89881  0.38317  1.0000
  H   H877      1.0  0.11982  0.90531  0.42602  1.0000
  H   H878      1.0  0.39797  0.70347  0.41623  1.0000
  C   C749      1.0  0.37373  0.69433  0.29781  1.0000
  H   H879      1.0  0.04798  0.83179  0.26660  1.0000
  C   C750      1.0  0.31999  0.79501  0.45587  1.0000
  H   H880      1.0  0.38655  0.73000  0.26145  1.0000
  H   H881      1.0  0.02356  0.90750  0.35424  1.0000
  H   H882      1.0  0.07548  0.89311  0.40174  1.0000
  C   C751      1.0  0.02974  0.96796  0.32734  1.0000
  H   H883      1.0  0.15975  0.67574  0.27892  1.0000
  C   C752      1.0  0.10528  0.83730  0.29325  1.0000
  H   H884      1.0  0.39135  0.66818  0.30694  1.0000
  S   S213      1.0  0.00816  0.84804  0.47436  1.0000
  S   S214      1.0  0.47496  0.67336  0.39302  1.0000
  H   H885      1.0  0.07294  0.83150  0.38216  1.0000
  H   H886      1.0  0.40100  0.73675  0.43782  1.0000
  H   H887      1.0  0.27987  0.67844  0.46109  1.0000
  S   S215      1.0  0.06354  0.83097  0.48869  1.0000
  C   C753      1.0  0.49386  0.77377  0.29844  1.0000
  H   H888      1.0  0.28292  0.78574  0.46791  1.0000
  H   H889      1.0  0.27226  0.67952  0.40798  1.0000
  C   C754      1.0  0.39820  0.67186  0.42600  1.0000
  H   H890      1.0  0.03027  0.80469  0.39798  1.0000
  H   H891      1.0  0.00060  0.94042  0.39094  1.0000
  H   H892      1.0  0.29954  0.79071  0.41418  1.0000
  H   H893      1.0  0.46131  0.73780  0.33174  1.0000
  H   H894      1.0  0.04498  0.87780  0.40431  1.0000
  C   C755      1.0  0.00404  0.97316  0.30504  1.0000
  H   H895      1.0  0.32511  0.79093  0.41682  1.0000
  C   C756      1.0  0.04809  0.88514  0.41654  1.0000
  H   H896      1.0  0.00841  0.80585  0.47004  1.0000
  C   C757      1.0  0.46881  0.75121  0.30205  1.0000
  H   H897      1.0  0.43313  0.67944  0.24972  1.0000
  H   H898      1.0  0.32714  0.67409  0.42136  1.0000
  H   H899      1.0  0.10209  0.93670  0.40874  1.0000
  H   H900      1.0  0.02812  0.84852  0.40669  1.0000
  C   C758      1.0  0.37132  0.66479  0.45199  1.0000
  H   H901      1.0  0.02983  0.89328  0.46335  1.0000
  H   H902      1.0  0.03229  0.79664  0.43156  1.0000
  C   C759      1.0  0.37358  0.69818  0.43738  1.0000
  C   C760      1.0  0.04365  0.81270  0.39653  1.0000
  H   H903      1.0  0.34025  0.72445  0.46248  1.0000
  H   H904      1.0  0.29115  0.72648  0.42888  1.0000
  C   C761      1.0  0.42220  0.67974  0.39692  1.0000
  H   H905      1.0  0.08999  0.92117  0.39647  1.0000
  H   H906      1.0  0.36125  0.69059  0.30827  1.0000
  H   H907      1.0  0.00501  0.91282  0.33764  1.0000
  H   H908      1.0  0.08395  0.83005  0.25686  1.0000
  S   S216      1.0  0.22023  0.95325  0.48735  1.0000
  N   N50       1.0  0.30671  0.78652  0.44437  1.0000
  C   C762      1.0  0.41608  0.70539  0.47658  1.0000
  N   N51       1.0  0.27531  0.93996  0.45596  1.0000
  C   C763      1.0  0.47012  0.74813  0.32242  1.0000
  C   C764      1.0  0.26130  0.95083  0.44254  1.0000
  C   C765      1.0  0.29433  0.93449  0.44416  1.0000
  H   H909      1.0  0.42092  0.66955  0.34331  1.0000
  C   C766      1.0  0.46970  0.68218  0.32613  1.0000
  H   H910      1.0  0.02188  0.87766  0.43530  1.0000
  C   C767      1.0  0.39066  0.69206  0.42543  1.0000
  C   C768      1.0  0.13358  0.81098  0.49017  1.0000
  H   H911      1.0  0.41119  0.70034  0.49173  1.0000
  C   C769      1.0  0.28609  0.79256  0.45245  1.0000
  C   C770      1.0  0.24567  0.66948  0.45220  1.0000
  H   H912      1.0  0.47761  0.73595  0.26606  1.0000
  H   H913      1.0  0.40404  0.66342  0.48245  1.0000
  H   H914      1.0  0.25805  0.94153  0.43136  1.0000
  C   C771      1.0  0.16393  0.68678  0.26633  1.0000
  H   H915      1.0  0.43435  0.67350  0.38644  1.0000
  H   H916      1.0  0.29256  0.92424  0.43323  1.0000
  C   C772      1.0  0.05551  0.81929  0.25952  1.0000
  C   C773      1.0  0.17214  0.81650  0.49574  1.0000
  H   H917      1.0  0.00136  0.84814  0.38612  1.0000
  C   C774      1.0  0.32844  0.73283  0.45491  1.0000
  S   S217      1.0  0.46665  0.69835  0.43938  1.0000
  H   H918      1.0  0.36502  0.74156  0.35731  1.0000
  N   N52       1.0  0.36317  0.71016  0.36227  1.0000
  C   C775      1.0  0.35732  0.71113  0.38369  1.0000
  C   C776      1.0  0.37416  0.72737  0.35474  1.0000
  C   C777      1.0  0.34499  0.71243  0.35211  1.0000
  C   C778      1.0  0.37470  0.69093  0.35915  1.0000
  H   H919      1.0  0.33588  0.75971  0.46220  1.0000
  H   H920      1.0  0.26464  0.91223  0.45282  1.0000
  H   H921      1.0  0.48465  0.75499  0.34646  1.0000
  H   H922      1.0  0.20192  0.67657  0.25890  1.0000
  H   H923      1.0  0.07792  0.93631  0.44767  1.0000
  H   H924      1.0  0.37046  0.70976  0.39194  1.0000
  H   H925      1.0  0.34825  0.72526  0.38659  1.0000
  H   H926      1.0  0.34813  0.69928  0.39034  1.0000
  H   H927      1.0  0.43687  0.67270  0.43143  1.0000
  H   H928      1.0  0.37833  0.72805  0.33848  1.0000
  H   H929      1.0  0.38763  0.72728  0.36231  1.0000
  H   H930      1.0  0.33467  0.70140  0.35825  1.0000
  H   H931      1.0  0.33643  0.72707  0.35368  1.0000
  H   H932      1.0  0.34854  0.71133  0.33601  1.0000
  S   S218      1.0  0.15406  0.74041  0.25001  1.0000
  C   C779      1.0  0.02025  0.98408  0.33687  1.0000
  H   H933      1.0  0.24699  0.95569  0.45099  1.0000
  C   C780      1.0  0.32412  0.66719  0.40885  1.0000
  H   H934      1.0  0.30549  0.92698  0.45387  1.0000
  H   H935      1.0  0.30752  0.81174  0.42231  1.0000
  N   N53       1.0  0.15802  0.84905  0.31838  1.0000
  C   C781      1.0  0.16036  0.87017  0.31893  1.0000
  C   C782      1.0  0.15939  0.84558  0.29725  1.0000
  C   C783      1.0  0.13795  0.84533  0.32755  1.0000
  C   C784      1.0  0.17288  0.83635  0.32953  1.0000
  C   C785      1.0  0.18557  0.82074  0.32138  1.0000
  C   C786      1.0  0.17471  0.83917  0.34939  1.0000
  C   C787      1.0  0.19956  0.80917  0.33231  1.0000
  C   C788      1.0  0.16432  0.82416  0.47812  1.0000
  C   C789      1.0  0.20125  0.81263  0.35158  1.0000
  H   H936      1.0  0.15678  0.87487  0.33402  1.0000
  H   H937      1.0  0.17574  0.87333  0.31355  1.0000
  H   H938      1.0  0.15018  0.88003  0.30961  1.0000
  H   H939      1.0  0.15586  0.83052  0.29555  1.0000
  H   H940      1.0  0.17431  0.84774  0.28952  1.0000
  H   H941      1.0  0.14862  0.85594  0.28909  1.0000
  H   H942      1.0  0.13521  0.84903  0.34306  1.0000
  H   H943      1.0  0.12643  0.85445  0.31931  1.0000
  H   H944      1.0  0.13556  0.82960  0.32763  1.0000
  H   H945      1.0  0.18503  0.81709  0.30659  1.0000
  H   H946      1.0  0.16522  0.85038  0.35678  1.0000
  H   H947      1.0  0.20924  0.79738  0.32586  1.0000
  H   H948      1.0  0.49126  0.66644  0.25143  1.0000
  H   H949      1.0  0.29177  0.68206  0.43648  1.0000
  C   C790      1.0  0.02815  0.83593  0.41848  1.0000
  C   C791      1.0  0.04502  0.80417  0.25602  1.0000
  H   H950      1.0  0.35062  0.68926  0.45981  1.0000
  C   C792      1.0  0.26707  0.92139  0.46449  1.0000
  C   C793      1.0  0.39485  0.68912  0.35101  1.0000
  H   H951      1.0  0.41732  0.70810  0.25926  1.0000
  C   C794      1.0  0.44266  0.68332  0.28564  1.0000
  H   H952      1.0  0.30095  0.67719  0.36708  1.0000
  H   H953      1.0  0.13891  0.82796  0.46195  1.0000
  C   C795      1.0  0.49104  0.78231  0.25698  1.0000
  H   H954      1.0  0.04185  0.82421  0.38379  1.0000
  H   H955      1.0  0.10845  0.80588  0.30146  1.0000
  H   H956      1.0  0.33576  0.79207  0.44991  1.0000
  H   H957      1.0  0.09175  0.91476  0.45907  1.0000
  C   C796      1.0  0.06543  0.89424  0.41503  1.0000
  S   S219      1.0  0.13216  0.78806  0.26990  1.0000
  C   C797      1.0  0.11003  0.85270  0.27885  1.0000
  Fe  Fe109     1.0  0.47312  0.69474  0.36596  1.0000
  C   C798      1.0  0.40363  0.71898  0.46571  1.0000
  C   C799      1.0  0.31321  0.67811  0.39436  1.0000
  H   H958      1.0  0.02784  0.84198  0.43281  1.0000
  H   H959      1.0  0.31825  0.78899  0.47175  1.0000
  H   H960      1.0  0.30062  0.94747  0.43558  1.0000
  C   C800      1.0  0.01228  0.91914  0.34858  1.0000
  C   C801      1.0  0.41044  0.72602  0.44624  1.0000
  C   C802      1.0  0.02140  0.96244  0.31148  1.0000
  H   H961      1.0  0.02853  0.95015  0.30391  1.0000
  C   C803      1.0  0.06897  0.83813  0.43121  1.0000
  H   H962      1.0  0.01741  0.94784  0.36953  1.0000
  H   H963      1.0  0.28303  0.80886  0.45230  1.0000
  C   C804      1.0  0.00991  0.93529  0.37775  1.0000
  C   C805      1.0  0.27411  0.94738  0.49169  1.0000
  C   C806      1.0  0.29794  0.75442  0.43566  1.0000
  H   H964      1.0  0.47972  0.70122  0.25536  1.0000
  H   H965      1.0  0.21222  0.80365  0.35990  1.0000
  H   H966      1.0  0.10650  0.89196  0.41231  1.0000
  C   C807      1.0  0.12908  0.82854  0.25849  1.0000
  H   H967      1.0  0.27055  0.69827  0.44436  1.0000
  C   C808      1.0  0.30077  0.73394  0.43616  1.0000
  C   C809      1.0  0.19239  0.66643  0.25397  1.0000
  H   H968      1.0  0.09011  0.85184  0.44431  1.0000
  H   H969      1.0  0.44504  0.68918  0.47696  1.0000
  N   N54       1.0  0.47924  0.76684  0.26783  1.0000
  S   S220      1.0  0.45265  0.69387  0.34316  1.0000
  N   N55       1.0  0.99819  0.92662  0.36479  1.0000
  S   S221      1.0  0.10166  0.87770  0.28205  1.0000
  S   S222      1.0  0.09168  0.87700  0.47834  1.0000
  Fe  Fe110     1.0  0.48066  0.69938  0.40742  1.0000
  H   H970      1.0  0.43462  0.72514  0.42280  1.0000
  S   S223      1.0  0.37987  0.72815  0.47616  1.0000
  H   H971      1.0  0.45883  0.74294  0.29623  1.0000
  N   N56       1.0  0.42639  0.67267  0.28135  1.0000
  H   H972      1.0  0.31671  0.81132  0.45535  1.0000
  H   H973      1.0  0.07552  0.93918  0.41064  1.0000
  H   H974      1.0  0.35079  0.67329  0.37130  1.0000
  C   C810      1.0  0.04511  0.80522  0.43139  1.0000
  H   H975      1.0  0.05958  0.83685  0.44503  1.0000
  N   N57       1.0  0.08841  0.91394  0.42829  1.0000
  C   C811      1.0  0.25893  0.67830  0.41881  1.0000
  H   H976      1.0  0.23717  0.68435  0.45180  1.0000
  H   H977      1.0  0.05953  0.90963  0.46118  1.0000
  H   H978      1.0  0.09598  0.84046  0.30661  1.0000
  H   H979      1.0  0.27714  0.91202  0.47422  1.0000
  C   C812      1.0  0.31015  0.76478  0.44509  1.0000
  C   C813      1.0  0.05676  0.90345  0.44816  1.0000
  C   C814      1.0  0.18880  0.82755  0.36013  1.0000
  N   N58       1.0  0.04556  0.82141  0.41493  1.0000
  C   C815      1.0  0.07008  0.90412  0.43058  1.0000
  C   C816      1.0  0.03517  0.88502  0.43386  1.0000
  C   C817      1.0  0.11236  0.81768  0.29028  1.0000
  H   H980      1.0  0.25246  0.92450  0.47313  1.0000
  C   C818      1.0  0.09055  0.92482  0.44521  1.0000
  C   C819      1.0  0.12429  0.81316  0.27292  1.0000
  H   H981      1.0  0.10501  0.88690  0.43857  1.0000
  C   C820      1.0  0.10566  0.89891  0.42619  1.0000
  H   H982      1.0  0.05883  0.79481  0.43021  1.0000
  H   H983      1.0  0.17307  0.83280  0.46680  1.0000
  C   C821      1.0  0.03961  0.89399  0.44967  1.0000
  C   C822      1.0  0.08635  0.84696  0.43089  1.0000
  H   H984      1.0  0.09639  0.75691  0.26000  1.0000
  C   C823      1.0  0.07623  0.83514  0.39620  1.0000
  H   H985      1.0  0.10295  0.84676  0.38230  1.0000
  H   H986      1.0  0.19014  0.83013  0.37518  1.0000
  H   H987      1.0  0.05668  0.80205  0.39268  1.0000
  C   C824      1.0  0.06371  0.83132  0.41402  1.0000
  H   H988      1.0  0.44894  0.76029  0.26882  1.0000
  C   C825      1.0  0.09352  0.84408  0.39602  1.0000
  C   C826      1.0  0.09875  0.84966  0.41335  1.0000
  C   C827      1.0  0.01212  0.86422  0.35877  1.0000
  C   C828      1.0  0.08894  0.92834  0.41029  1.0000
  H   H989      1.0  0.28984  0.97599  0.44979  1.0000
  H   H990      1.0  0.17414  0.69615  0.27138  1.0000
  S   S224      1.0  0.47669  0.72133  0.38044  1.0000
  H   H991      1.0  0.28611  0.76210  0.42771  1.0000
  H   H992      1.0  0.35858  0.72173  0.28592  1.0000
  C   C829      1.0  0.15433  0.86859  0.49592  1.0000
  C   C830      1.0  0.43526  0.69918  0.46820  1.0000
  C   C831      1.0  0.48658  0.74806  0.25963  1.0000
  C   C832      1.0  0.40763  0.68581  0.28287  1.0000
  C   C833      1.0  0.37215  0.71181  0.28520  1.0000
  C   C834      1.0  0.38797  0.71648  0.27142  1.0000
  C   C835      1.0  0.44208  0.70619  0.44876  1.0000
  C   C836      1.0  0.32567  0.75333  0.45466  1.0000
  N   N59       1.0  0.17316  0.67699  0.24884  1.0000
  H   H993      1.0  0.10431  0.93232  0.44278  1.0000
  H   H994      1.0  0.11845  0.80917  0.48823  1.0000
  C   C837      1.0  0.11572  0.87328  0.48521  1.0000
  C   C838      1.0  0.40548  0.70376  0.27024  1.0000
  H   H995      1.0  0.27501  0.78826  0.44371  1.0000
  H   H996      1.0  0.45704  0.67385  0.28508  1.0000
  H   H997      1.0  0.36828  0.71371  0.43703  1.0000
  C   C839      1.0  0.12190  0.84820  0.26143  1.0000
  C   C840      1.0  0.31594  0.72312  0.44583  1.0000
  C   C841      1.0  0.42946  0.71943  0.43767  1.0000
  C   C842      1.0  0.40543  0.67061  0.34906  1.0000
  H   H998      1.0  0.26701  0.96417  0.43414  1.0000
  C   C843      1.0  0.28616  0.97099  0.46519  1.0000
  C   C844      1.0  0.00271  0.99460  0.33062  1.0000
  Fe  Fe111     1.0  0.03160  0.84201  0.49634  1.0000
  C   C845      1.0  0.05476  0.78794  0.24704  1.0000
  H   H999      1.0  0.40976  0.68544  0.38813  1.0000
  C   C846      1.0  0.99847  0.81434  0.46030  1.0000
  H   H1000     1.0  0.02192  0.92436  0.38329  1.0000
  C   C847      1.0  0.14507  0.82150  0.47538  1.0000
  C   C848      1.0  0.27849  0.95264  0.47104  1.0000
  H   H1001     1.0  0.45179  0.78561  0.27086  1.0000
  C   C849      1.0  0.30989  0.79535  0.42356  1.0000
  C   C850      1.0  0.43076  0.66674  0.26105  1.0000
  N   N60       1.0  0.26423  0.66957  0.43863  1.0000
  H   H1002     1.0  0.02654  0.98849  0.34915  1.0000
  H   H1003     1.0  0.02924  0.80500  0.26039  1.0000
  H   H1004     1.0  0.44484  0.69653  0.27491  1.0000
  H   H1005     1.0  0.25139  0.69356  0.41908  1.0000
  H   H1006     1.0  0.24882  0.66946  0.41299  1.0000
  H   H1007     1.0  0.15047  0.69681  0.26325  1.0000
  C   C851      1.0  0.36595  0.67314  0.36486  1.0000
  H   H1008     1.0  0.28605  0.75771  0.26147  1.0000
  C   C852      1.0  0.45841  0.77232  0.26368  1.0000
  C   C853      1.0  0.27711  0.68263  0.44543  1.0000
  C   C854      1.0  0.07577  0.81832  0.25401  1.0000
  H   H1009     1.0  0.45717  0.77549  0.24753  1.0000
  C   C855      1.0  0.48320  0.75781  0.33077  1.0000
  H   H1010     1.0  0.48644  0.79683  0.26268  1.0000
  H   H1011     1.0  0.43960  0.68840  0.30062  1.0000
  H   H1012     1.0  0.12564  0.85999  0.25016  1.0000
  S   S225      1.0  0.30941  0.67819  0.48596  1.0000
  C   C856      1.0  0.39118  0.68148  0.29679  1.0000
  H   H1013     1.0  0.25213  0.75322  0.25553  1.0000
  H   H1014     1.0  0.24844  0.66513  0.46786  1.0000
  H   H1015     1.0  0.99795  0.96895  0.29254  1.0000
  C   C857      1.0  0.17481  0.67692  0.69191  1.0000
  H   H1016     1.0  0.19200  0.92993  0.52014  1.0000
  N   N61       1.0  0.30023  0.68286  0.60480  1.0000
  Fe  Fe112     1.0  0.22896  0.86415  0.71826  1.0000
  S   S226      1.0  0.19629  0.87247  0.72373  1.0000
  S   S227      1.0  0.24091  0.83910  0.70038  1.0000
  Fe  Fe113     1.0  0.20459  0.90340  0.71976  1.0000
  S   S228      1.0  0.18736  0.92907  0.70255  1.0000
  H   H1017     1.0  0.15716  0.82381  0.54487  1.0000
  S   S229      1.0  0.23742  0.89513  0.71245  1.0000
  C   C858      1.0  0.32280  0.86863  0.74623  1.0000
  H   H1018     1.0  0.28065  0.70622  0.59108  1.0000
  S   S230      1.0  0.36389  0.70892  0.53611  1.0000
  C   C859      1.0  0.15958  0.95456  0.61876  1.0000
  Fe  Fe114     1.0  0.33063  0.71580  0.53837  1.0000
  S   S231      1.0  0.31425  0.73389  0.56188  1.0000
  Fe  Fe115     1.0  0.23982  0.89288  0.74534  1.0000
  S   S232      1.0  0.32437  0.68444  0.53933  1.0000
  H   H1019     1.0  0.13354  0.83154  0.59883  1.0000
  Fe  Fe116     1.0  0.05061  0.97843  0.63752  1.0000
  C   C860      1.0  0.36323  0.98807  0.74550  1.0000
  H   H1020     1.0  0.21378  0.75982  0.69166  1.0000
  Fe  Fe117     1.0  0.08979  0.95257  0.64537  1.0000
  S   S233      1.0  0.10330  0.96084  0.61455  1.0000
  S   S234      1.0  0.10653  0.92851  0.66503  1.0000
  Fe  Fe118     1.0  0.32661  0.69052  0.50641  1.0000
  H   H1021     1.0  0.20491  0.70969  0.70153  1.0000
  Fe  Fe119     1.0  0.07431  0.95649  0.60461  1.0000
  S   S235      1.0  0.07764  0.94196  0.57629  1.0000
  S   S236      1.0  0.07786  0.98370  0.65071  1.0000
  S   S237      1.0  0.06131  0.94619  0.63515  1.0000
  H   H1022     1.0  0.15292  0.98851  0.65496  1.0000
  H   H1023     1.0  0.12142  0.97200  0.70987  1.0000
  H   H1024     1.0  0.17347  0.77005  0.54802  1.0000
  Fe  Fe120     1.0  0.06422  0.82018  0.52107  1.0000
  S   S238      1.0  0.07327  0.84794  0.52940  1.0000
  S   S239      1.0  0.08369  0.79205  0.52961  1.0000
  Fe  Fe121     1.0  0.04093  0.85734  0.53443  1.0000
  S   S240      1.0  0.02944  0.87291  0.56135  1.0000
  H   H1025     1.0  0.32480  0.68911  0.58298  1.0000
  H   H1026     1.0  0.22564  0.95885  0.65664  1.0000
  S   S241      1.0  0.03140  0.82860  0.52828  1.0000
  N   N62       1.0  0.16821  0.79808  0.53037  1.0000
  Fe  Fe122     1.0  0.20352  0.76455  0.59569  1.0000
  S   S242      1.0  0.17924  0.74702  0.61126  1.0000
  S   S243      1.0  0.22086  0.75443  0.56775  1.0000
  Fe  Fe123     1.0  0.19307  0.79765  0.62237  1.0000
  S   S244      1.0  0.16874  0.78230  0.63984  1.0000
  S   S245      1.0  0.19348  0.82881  0.62934  1.0000
  Fe  Fe124     1.0  0.18975  0.75474  0.63898  1.0000
  S   S246      1.0  0.19639  0.73679  0.66794  1.0000
  Fe  Fe125     1.0  0.16052  0.77639  0.61055  1.0000
  S   S247      1.0  0.12875  0.78793  0.60618  1.0000
  S   S248      1.0  0.21507  0.77068  0.62340  1.0000
  S   S249      1.0  0.18394  0.79319  0.59314  1.0000
  C   C861      1.0  0.09651  0.79112  0.55071  1.0000
  C   C862      1.0  0.11183  0.77602  0.55421  1.0000
  C   C863      1.0  0.12233  0.77512  0.57082  1.0000
  C   C864      1.0  0.11721  0.78907  0.58430  1.0000
  C   C865      1.0  0.10174  0.80397  0.58092  1.0000
  C   C866      1.0  0.09159  0.80513  0.56412  1.0000
  H   H1027     1.0  0.11545  0.76490  0.54410  1.0000
  H   H1028     1.0  0.13392  0.76330  0.57353  1.0000
  H   H1029     1.0  0.09731  0.81451  0.59149  1.0000
  H   H1030     1.0  0.07950  0.81651  0.56193  1.0000
  C   C867      1.0  0.06364  0.92310  0.57247  1.0000
  C   C868      1.0  0.06790  0.91433  0.55479  1.0000
  C   C869      1.0  0.05762  0.89882  0.55138  1.0000
  C   C870      1.0  0.04276  0.89215  0.56551  1.0000
  C   C871      1.0  0.03840  0.90100  0.58315  1.0000
  C   C872      1.0  0.04884  0.91641  0.58666  1.0000
  H   H1031     1.0  0.07910  0.91960  0.54361  1.0000
  H   H1032     1.0  0.06094  0.89224  0.53766  1.0000
  H   H1033     1.0  0.02688  0.89592  0.59411  1.0000
  H   H1034     1.0  0.04538  0.92312  0.60030  1.0000
  C   C873      1.0  0.28830  0.73934  0.56329  1.0000
  C   C874      1.0  0.27835  0.74881  0.57923  1.0000
  C   C875      1.0  0.25767  0.75320  0.58095  1.0000
  C   C876      1.0  0.24678  0.74835  0.56659  1.0000
  C   C877      1.0  0.25674  0.73878  0.55070  1.0000
  C   C878      1.0  0.27740  0.73415  0.54912  1.0000
  H   H1035     1.0  0.28667  0.75288  0.59024  1.0000
  H   H1036     1.0  0.25022  0.76067  0.59317  1.0000
  H   H1037     1.0  0.24844  0.73497  0.53954  1.0000
  H   H1038     1.0  0.28491  0.72679  0.53682  1.0000
  C   C879      1.0  0.10649  0.89525  0.62456  1.0000
  C   C880      1.0  0.29211  0.68964  0.62419  1.0000
  C   C881      1.0  0.18800  0.71366  0.67655  1.0000
  C   C882      1.0  0.17476  0.70543  0.66681  1.0000
  C   C883      1.0  0.16816  0.68713  0.67451  1.0000
  H   H1039     1.0  0.16956  0.71318  0.65340  1.0000
  C   C884      1.0  0.12084  0.98952  0.56277  1.0000
  C   C885      1.0  0.22849  0.83709  0.67984  1.0000
  C   C886      1.0  0.23329  0.82045  0.66957  1.0000
  C   C887      1.0  0.22253  0.81772  0.65411  1.0000
  C   C888      1.0  0.20724  0.83188  0.64856  1.0000
  C   C889      1.0  0.20277  0.84878  0.65849  1.0000
  C   C890      1.0  0.21326  0.85131  0.67421  1.0000
  H   H1040     1.0  0.24519  0.80952  0.67375  1.0000
  H   H1041     1.0  0.22626  0.80481  0.64630  1.0000
  H   H1042     1.0  0.19107  0.85986  0.65413  1.0000
  H   H1043     1.0  0.20961  0.86429  0.68190  1.0000
  C   C891      1.0  0.16559  0.92832  0.69101  1.0000
  C   C892      1.0  0.15685  0.94576  0.68116  1.0000
  C   C893      1.0  0.13903  0.94604  0.67270  1.0000
  C   C894      1.0  0.12967  0.92886  0.67416  1.0000
  C   C895      1.0  0.13864  0.91134  0.68362  1.0000
  C   C896      1.0  0.15658  0.91100  0.69180  1.0000
  H   H1044     1.0  0.16375  0.95922  0.68028  1.0000
  H   H1045     1.0  0.13235  0.95960  0.66542  1.0000
  H   H1046     1.0  0.13156  0.89797  0.68476  1.0000
  H   H1047     1.0  0.16330  0.89736  0.69887  1.0000
  H   H1048     1.0  0.18529  0.99222  0.55223  1.0000
  H   H1049     1.0  0.19083  0.81756  0.52980  1.0000
  H   H1050     1.0  0.35945  0.66909  0.58459  1.0000
  H   H1051     1.0  0.11244  0.90436  0.74087  1.0000
  H   H1052     1.0  0.10746  0.90877  0.63085  1.0000
  H   H1053     1.0  0.14365  0.84779  0.51964  1.0000
  H   H1054     1.0  0.33037  0.68642  0.60807  1.0000
  H   H1055     1.0  0.13835  0.93340  0.62508  1.0000
  C   C897      1.0  0.22551  0.95982  0.51039  1.0000
  H   H1056     1.0  0.27221  0.68221  0.59380  1.0000
  H   H1057     1.0  0.25628  0.67751  0.72804  1.0000
  C   C898      1.0  0.23536  0.97205  0.54587  1.0000
  H   H1058     1.0  0.21045  0.80371  0.71856  1.0000
  C   C899      1.0  0.16603  0.92211  0.63589  1.0000
  C   C900      1.0  0.19461  0.70347  0.69396  1.0000
  H   H1059     1.0  0.18228  0.97331  0.61562  1.0000
  H   H1060     1.0  0.21856  0.96160  0.60349  1.0000
  H   H1061     1.0  0.07954  0.87725  0.59388  1.0000
  H   H1062     1.0  0.13985  0.80605  0.54662  1.0000
  C   C901      1.0  0.10181  0.92862  0.72133  1.0000
  Fe  Fe126     1.0  0.08939  0.99128  0.61900  1.0000
  H   H1063     1.0  0.29164  0.68894  0.57500  1.0000
  H   H1064     1.0  0.19324  0.67754  0.71500  1.0000
  H   H1065     1.0  0.17840  0.76967  0.68780  1.0000
  H   H1066     1.0  0.19372  0.91501  0.64714  1.0000
  H   H1067     1.0  0.33659  0.98149  0.73545  1.0000
  H   H1068     1.0  0.15391  0.98058  0.51415  1.0000
  H   H1069     1.0  0.27340  0.95573  0.52112  1.0000
  H   H1070     1.0  0.32383  0.86971  0.73025  1.0000
  C   C902      1.0  0.21120  0.95473  0.65357  1.0000
  N   N63       1.0  0.13481  0.90156  0.54708  1.0000
  C   C903      1.0  0.11828  0.90328  0.56306  1.0000
  C   C904      1.0  0.12607  0.90444  0.52803  1.0000
  C   C905      1.0  0.14485  0.88125  0.54986  1.0000
  C   C906      1.0  0.14932  0.91592  0.54692  1.0000
  C   C907      1.0  0.14785  0.92953  0.56123  1.0000
  C   C908      1.0  0.16572  0.91644  0.53217  1.0000
  C   C909      1.0  0.16202  0.94268  0.56070  1.0000
  C   C910      1.0  0.17966  0.92979  0.53166  1.0000
  C   C911      1.0  0.17787  0.94282  0.54594  1.0000
  H   H1071     1.0  0.10999  0.91819  0.56172  1.0000
  H   H1072     1.0  0.10734  0.89268  0.56250  1.0000
  H   H1073     1.0  0.12354  0.90029  0.57797  1.0000
  H   H1074     1.0  0.13725  0.90182  0.51523  1.0000
  H   H1075     1.0  0.11869  0.91968  0.52523  1.0000
  H   H1076     1.0  0.11481  0.89408  0.52773  1.0000
  H   H1077     1.0  0.15188  0.87861  0.56388  1.0000
  H   H1078     1.0  0.13437  0.87002  0.55014  1.0000
  H   H1079     1.0  0.15668  0.87827  0.53774  1.0000
  H   H1080     1.0  0.13587  0.93041  0.57297  1.0000
  H   H1081     1.0  0.16799  0.90638  0.52093  1.0000
  H   H1082     1.0  0.16347  0.90462  0.73210  1.0000
  H   H1083     1.0  0.15992  0.80136  0.56124  1.0000
  C   C912      1.0  0.11900  0.87828  0.62973  1.0000
  N   N64       1.0  0.19547  0.78266  0.70648  1.0000
  C   C913      1.0  0.19750  0.80307  0.71037  1.0000
  H   H1084     1.0  0.28818  0.70592  0.62297  1.0000
  C   C914      1.0  0.17950  0.78393  0.69341  1.0000
  C   C915      1.0  0.19095  0.76922  0.72464  1.0000
  S   S250      1.0  0.06164  0.98803  0.60613  1.0000
  C   C916      1.0  0.23028  0.98601  0.53020  1.0000
  C   C917      1.0  0.31870  0.69207  0.59822  1.0000
  H   H1085     1.0  0.18394  0.80973  0.71875  1.0000
  C   C918      1.0  0.18734  0.74955  0.72330  1.0000
  N   N65       1.0  0.21215  0.94855  0.63353  1.0000
  H   H1086     1.0  0.14935  0.96594  0.61201  1.0000
  H   H1087     1.0  0.12076  0.99164  0.64097  1.0000
  H   H1088     1.0  0.18212  0.79455  0.67996  1.0000
  C   C919      1.0  0.21429  0.77489  0.69572  1.0000
  C   C920      1.0  0.24692  0.66820  0.73881  1.0000
  H   H1089     1.0  0.16489  0.78866  0.70129  1.0000
  C   C921      1.0  0.18901  0.80154  0.53148  1.0000
  S   S251      1.0  0.01950  0.98761  0.65152  1.0000
  H   H1090     1.0  0.21785  0.78417  0.68159  1.0000
  H   H1091     1.0  0.18778  0.74406  0.70912  1.0000
  H   H1092     1.0  0.19927  0.79436  0.51998  1.0000
  H   H1093     1.0  0.23024  0.93034  0.52486  1.0000
  H   H1094     1.0  0.23532  0.96633  0.62002  1.0000
  H   H1095     1.0  0.15790  0.68086  0.66691  1.0000
  H   H1096     1.0  0.26792  0.93393  0.49765  1.0000
  C   C922      1.0  0.18807  0.68519  0.70160  1.0000
  C   C923      1.0  0.11758  0.86021  0.62213  1.0000
  H   H1097     1.0  0.23594  0.70492  0.73719  1.0000
  C   C924      1.0  0.10331  0.86047  0.60866  1.0000
  H   H1098     1.0  0.15439  0.85423  0.63707  1.0000
  C   C925      1.0  0.09076  0.87750  0.60374  1.0000
  C   C926      1.0  0.09229  0.89482  0.61179  1.0000
  H   H1099     1.0  0.15183  0.77259  0.53558  1.0000
  H   H1100     1.0  0.24224  0.93452  0.63214  1.0000
  H   H1101     1.0  0.13503  0.84838  0.65668  1.0000
  H   H1102     1.0  0.22475  0.91936  0.64466  1.0000
  C   C927      1.0  0.15436  0.90062  0.74620  1.0000
  H   H1103     1.0  0.10702  0.83082  0.64909  1.0000
  H   H1104     1.0  0.22685  0.77430  0.70471  1.0000
  H   H1105     1.0  0.31466  0.93814  0.73325  1.0000
  H   H1106     1.0  0.08238  0.90795  0.60826  1.0000
  C   C928      1.0  0.10407  0.94770  0.71267  1.0000
  H   H1107     1.0  0.30309  0.68631  0.63516  1.0000
  H   H1108     1.0  0.31630  0.70840  0.59804  1.0000
  H   H1109     1.0  0.19421  0.79526  0.54598  1.0000
  C   C929      1.0  0.19219  0.94426  0.63036  1.0000
  Fe  Fe127     1.0  0.36267  0.71269  0.50300  1.0000
  C   C930      1.0  0.14128  0.80316  0.50777  1.0000
  H   H1110     1.0  0.13160  0.79537  0.51883  1.0000
  C   C931      1.0  0.14247  0.83511  0.61015  1.0000
  H   H1111     1.0  0.27842  0.68279  0.63018  1.0000
  H   H1112     1.0  0.28463  0.92102  0.73372  1.0000
  S   S252      1.0  0.17822  0.86669  0.50301  1.0000
  H   H1113     1.0  0.15219  0.84646  0.60323  1.0000
  C   C932      1.0  0.34609  0.99288  0.73618  1.0000
  H   H1114     1.0  0.21150  0.97915  0.62134  1.0000
  C   C933      1.0  0.22569  0.97990  0.51252  1.0000
  S   S253      1.0  0.03881  0.87132  0.50347  1.0000
  S   S254      1.0  0.24369  0.97890  0.56748  1.0000
  H   H1115     1.0  0.17568  0.76882  0.52183  1.0000
  H   H1116     1.0  0.10148  0.84737  0.60213  1.0000
  H   H1117     1.0  0.16061  0.95293  0.57174  1.0000
  N   N66       1.0  0.13002  0.84173  0.62783  1.0000
  C   C934      1.0  0.22687  0.93090  0.63199  1.0000
  C   C935      1.0  0.23008  0.94585  0.52626  1.0000
  H   H1118     1.0  0.15229  0.82141  0.61404  1.0000
  C   C936      1.0  0.18504  0.92608  0.63832  1.0000
  C   C937      1.0  0.14340  0.84367  0.64282  1.0000
  C   C938      1.0  0.13029  0.92877  0.73989  1.0000
  C   C939      1.0  0.23515  0.95194  0.54379  1.0000
  H   H1119     1.0  0.16891  0.93472  0.74488  1.0000
  C   C940      1.0  0.16720  0.77649  0.53407  1.0000
  Fe  Fe128     1.0  0.35727  0.67774  0.53541  1.0000
  C   C941      1.0  0.18307  0.73653  0.74017  1.0000
  H   H1120     1.0  0.20680  0.94284  0.66519  1.0000
  H   H1121     1.0  0.23925  0.94097  0.55571  1.0000
  H   H1122     1.0  0.10989  0.85123  0.50965  1.0000
  H   H1123     1.0  0.09445  0.95465  0.70178  1.0000
  C   C942      1.0  0.15577  0.80774  0.54644  1.0000
  C   C943      1.0  0.21959  0.96453  0.61893  1.0000
  H   H1124     1.0  0.12615  0.81213  0.64124  1.0000
  C   C944      1.0  0.11726  0.82613  0.63626  1.0000
  C   C945      1.0  0.28557  0.69024  0.59060  1.0000
  H   H1125     1.0  0.15228  0.82942  0.64696  1.0000
  H   H1126     1.0  0.28633  0.98757  0.50996  1.0000
  H   H1127     1.0  0.10452  0.96721  0.55536  1.0000
  H   H1128     1.0  0.20001  0.96768  0.65557  1.0000
  C   C946      1.0  0.17866  0.95860  0.62089  1.0000
  C   C947      1.0  0.11930  0.95743  0.71724  1.0000
  H   H1129     1.0  0.10817  0.82208  0.62532  1.0000
  H   H1130     1.0  0.19991  0.81296  0.69641  1.0000
  H   H1131     1.0  0.16078  0.90830  0.64247  1.0000
  H   H1132     1.0  0.18457  0.99024  0.51598  1.0000
  C   C948      1.0  0.15334  0.93629  0.62611  1.0000
  H   H1133     1.0  0.22629  0.92433  0.61805  1.0000
  H   H1134     1.0  0.12938  0.87969  0.63999  1.0000
  S   S255      1.0  0.35900  0.68103  0.50229  1.0000
  S   S256      1.0  0.32996  0.72248  0.50561  1.0000
  H   H1135     1.0  0.18884  0.95300  0.54557  1.0000
  C   C949      1.0  0.11701  0.97561  0.55100  1.0000
  Fe  Fe129     1.0  0.07037  0.85920  0.49785  1.0000
  C   C950      1.0  0.12916  0.97266  0.53360  1.0000
  H   H1136     1.0  0.11126  0.99185  0.57626  1.0000
  C   C951      1.0  0.12069  0.86004  0.50148  1.0000
  C   C952      1.0  0.13991  0.85792  0.50702  1.0000
  C   C953      1.0  0.27712  0.95986  0.50545  1.0000
  C   C954      1.0  0.13237  0.94815  0.73052  1.0000
  H   H1137     1.0  0.23117  0.67239  0.73630  1.0000
  C   C955      1.0  0.16078  0.80578  0.51120  1.0000
  H   H1138     1.0  0.39972  0.66310  0.50890  1.0000
  H   H1139     1.0  0.14427  0.89009  0.74330  1.0000
  H   H1140     1.0  0.12613  0.96176  0.52453  1.0000
  H   H1141     1.0  0.18025  0.72163  0.73867  1.0000
  H   H1142     1.0  0.09035  0.92091  0.71712  1.0000
  H   H1143     1.0  0.22258  0.99082  0.50024  1.0000
  C   C956      1.0  0.14514  0.98368  0.52780  1.0000
  C   C957      1.0  0.19030  0.77494  0.74397  1.0000
  H   H1144     1.0  0.14424  0.95632  0.73275  1.0000
  C   C958      1.0  0.11465  0.91927  0.73479  1.0000
  C   C959      1.0  0.28439  0.97786  0.49918  1.0000
  H   H1145     1.0  0.18693  0.81971  0.49704  1.0000
  H   H1146     1.0  0.42408  0.66345  0.49709  1.0000
  H   H1147     1.0  0.99859  0.97790  0.61268  1.0000
  H   H1148     1.0  0.35281  0.87330  0.74641  1.0000
  H   H1149     1.0  0.19301  0.78950  0.74658  1.0000
  H   H1150     1.0  0.42525  0.76145  0.91349  1.0000
  H   H1151     1.0  0.17916  0.69009  0.80424  1.0000
  C   C960      1.0  0.23589  0.83632  0.81248  1.0000
  Fe  Fe130     1.0  0.39832  0.96050  0.79205  1.0000
  S   S257      1.0  0.40099  0.94259  0.82141  1.0000
  Fe  Fe131     1.0  0.35903  0.94376  0.78722  1.0000
  S   S258      1.0  0.35851  0.92529  0.81665  1.0000
  Fe  Fe132     1.0  0.36852  0.95172  0.82733  1.0000
  H   H1152     1.0  0.47054  0.96998  0.80263  1.0000
  Fe  Fe133     1.0  0.39092  0.91770  0.80848  1.0000
  S   S259      1.0  0.40678  0.88695  0.81066  1.0000
  S   S260      1.0  0.36616  0.97119  0.79872  1.0000
  S   S261      1.0  0.39111  0.93455  0.77823  1.0000
  Fe  Fe134     1.0  0.38564  0.79400  0.95167  1.0000
  S   S262      1.0  0.38809  0.82459  0.93690  1.0000
  Fe  Fe135     1.0  0.35089  0.78823  0.92781  1.0000
  S   S263      1.0  0.35089  0.81859  0.91131  1.0000
  S   S264      1.0  0.33230  0.76381  0.92366  1.0000
  Fe  Fe136     1.0  0.38400  0.81284  0.90868  1.0000
  S   S265      1.0  0.40544  0.81763  0.88122  1.0000
  Fe  Fe137     1.0  0.35493  0.82791  0.94074  1.0000
  S   S266      1.0  0.33812  0.85411  0.95371  1.0000
  S   S267      1.0  0.38400  0.78159  0.92310  1.0000
  S   S268      1.0  0.35248  0.79811  0.95766  1.0000
  C   C961      1.0  0.33298  0.74957  0.97519  1.0000
  C   C962      1.0  0.34312  0.91970  0.94306  1.0000
  S   S269      1.0  0.09003  0.68269  0.90880  1.0000
  H   H1153     1.0  0.21277  0.67515  0.95318  1.0000
  H   H1154     1.0  0.18837  0.68299  0.87045  1.0000
  H   H1155     1.0  0.33918  0.92417  0.98327  1.0000
  H   H1156     1.0  0.26854  0.78168  0.84674  1.0000
  H   H1157     1.0  0.47553  0.79931  0.92978  1.0000
  C   C963      1.0  0.23749  0.70620  0.75244  1.0000
  C   C964      1.0  0.38256  0.88732  0.97652  1.0000
  Fe  Fe138     1.0  0.19018  0.73490  0.88176  1.0000
  S   S270      1.0  0.19198  0.72688  0.85090  1.0000
  S   S271      1.0  0.16625  0.72804  0.90694  1.0000
  Fe  Fe139     1.0  0.23127  0.75024  0.87542  1.0000
  S   S272      1.0  0.23646  0.74239  0.84426  1.0000
  S   S273      1.0  0.24996  0.77109  0.88678  1.0000
  Fe  Fe140     1.0  0.20526  0.75533  0.84121  1.0000
  S   S274      1.0  0.20433  0.77017  0.80996  1.0000
  Fe  Fe141     1.0  0.22299  0.71453  0.85545  1.0000
  S   S275      1.0  0.23488  0.68546  0.84387  1.0000
  S   S276      1.0  0.20043  0.76488  0.87180  1.0000
  S   S277      1.0  0.22072  0.72078  0.88726  1.0000
  S   S278      1.0  0.40045  0.89854  0.98602  1.0000
  S   S279      1.0  0.18243  0.86062  0.78193  1.0000
  C   C965      1.0  0.19807  0.79542  0.80293  1.0000
  C   C966      1.0  0.20490  0.80325  0.78383  1.0000
  C   C967      1.0  0.20023  0.82324  0.77738  1.0000
  C   C968      1.0  0.18841  0.83551  0.78991  1.0000
  C   C969      1.0  0.18146  0.82768  0.80901  1.0000
  C   C970      1.0  0.18640  0.80768  0.81559  1.0000
  H   H1158     1.0  0.21403  0.79385  0.77402  1.0000
  C   C971      1.0  0.19005  0.70733  0.94532  1.0000
  H   H1159     1.0  0.17229  0.83712  0.81876  1.0000
  H   H1160     1.0  0.18092  0.80171  0.83029  1.0000
  H   H1161     1.0  0.34083  0.89623  0.92557  1.0000
  C   C972      1.0  0.36649  0.94784  0.96979  1.0000
  C   C973      1.0  0.29189  0.71831  0.95320  1.0000
  H   H1162     1.0  0.20325  0.70404  0.82101  1.0000
  C   C974      1.0  0.11228  0.69362  0.90843  1.0000
  C   C975      1.0  0.12068  0.69503  0.92571  1.0000
  C   C976      1.0  0.13737  0.70535  0.92494  1.0000
  C   C977      1.0  0.14605  0.71412  0.90687  1.0000
  C   C978      1.0  0.13809  0.71210  0.88948  1.0000
  C   C979      1.0  0.12115  0.70213  0.89031  1.0000
  H   H1163     1.0  0.11385  0.68885  0.93978  1.0000
  H   H1164     1.0  0.14334  0.70685  0.93851  1.0000
  H   H1165     1.0  0.14447  0.71893  0.87550  1.0000
  H   H1166     1.0  0.11461  0.70138  0.87688  1.0000
  H   H1167     1.0  0.42819  0.84958  0.81679  1.0000
  C   C980      1.0  0.30985  0.76626  0.91250  1.0000
  C   C981      1.0  0.29867  0.78447  0.90894  1.0000
  C   C982      1.0  0.28045  0.78558  0.90104  1.0000
  C   C983      1.0  0.27320  0.76857  0.89646  1.0000
  C   C984      1.0  0.28443  0.75037  0.89987  1.0000
  C   C985      1.0  0.30264  0.74926  0.90786  1.0000
  H   H1168     1.0  0.30393  0.79767  0.91251  1.0000
  H   H1169     1.0  0.27187  0.79974  0.89856  1.0000
  H   H1170     1.0  0.27910  0.73716  0.89642  1.0000
  H   H1171     1.0  0.31121  0.73511  0.91045  1.0000
  C   C986      1.0  0.18597  0.76181  0.76076  1.0000
  H   H1172     1.0  0.33098  0.94781  0.99101  1.0000
  H   H1173     1.0  0.31510  0.92226  0.79571  1.0000
  C   C987      1.0  0.40516  0.86865  0.83116  1.0000
  C   C988      1.0  0.39177  0.87057  0.84821  1.0000
  C   C989      1.0  0.39127  0.85500  0.86382  1.0000
  C   C990      1.0  0.40428  0.83768  0.86237  1.0000
  C   C991      1.0  0.41751  0.83602  0.84533  1.0000
  C   C992      1.0  0.41786  0.85127  0.82985  1.0000
  H   H1174     1.0  0.38186  0.88395  0.84938  1.0000
  H   H1175     1.0  0.38103  0.85646  0.87697  1.0000
  H   H1176     1.0  0.22155  0.76677  0.92179  1.0000
  H   H1177     1.0  0.48746  0.95063  0.79359  1.0000
  C   C993      1.0  0.19398  0.66719  0.87378  1.0000
  C   C994      1.0  0.38653  0.88082  0.95778  1.0000
  C   C995      1.0  0.37261  0.87110  0.95043  1.0000
  C   C996      1.0  0.35469  0.86797  0.96179  1.0000
  C   C997      1.0  0.35052  0.87489  0.98031  1.0000
  H   H1178     1.0  0.17904  0.73258  0.77198  1.0000
  H   H1179     1.0  0.36721  0.84282  0.78717  1.0000
  H   H1180     1.0  0.37565  0.86624  0.93586  1.0000
  H   H1181     1.0  0.45054  0.77622  0.89305  1.0000
  C   C998      1.0  0.45271  0.87557  0.99017  1.0000
  H   H1182     1.0  0.35041  0.90483  0.78047  1.0000
  H   H1183     1.0  0.44284  0.74504  0.92644  1.0000
  C   C999      1.0  0.24037  0.71231  0.79147  1.0000
  H   H1184     1.0  0.28495  0.90542  0.79619  1.0000
  C   C1000     1.0  0.20446  0.68838  0.82042  1.0000
  H   H1185     1.0  0.23310  0.68517  0.96085  1.0000
  H   H1186     1.0  0.44301  0.80766  0.92269  1.0000
  H   H1187     1.0  0.42698  0.81260  0.96635  1.0000
  H   H1188     1.0  0.43929  0.87733  0.98293  1.0000
  H   H1189     1.0  0.17677  0.66711  0.92202  1.0000
  Fe  Fe142     1.0  0.20207  0.87213  0.75529  1.0000
  C   C1001     1.0  0.21943  0.67609  0.82927  1.0000
  H   H1190     1.0  0.15188  0.94441  0.76460  1.0000
  H   H1191     1.0  0.44750  0.74854  0.95923  1.0000
  C   C1002     1.0  0.27148  0.66393  0.76145  1.0000
  H   H1192     1.0  0.28574  0.72374  0.93947  1.0000
  H   H1193     1.0  0.27497  0.66328  0.77694  1.0000
  H   H1194     1.0  0.42636  0.98766  0.81471  1.0000
  H   H1195     1.0  0.49297  0.77038  0.98457  1.0000
  C   C1003     1.0  0.19995  0.70300  0.97795  1.0000
  H   H1196     1.0  0.46835  0.78839  0.90215  1.0000
  C   C1004     1.0  0.48413  0.77105  0.97236  1.0000
  H   H1197     1.0  0.42333  0.76001  0.93973  1.0000
  C   C1005     1.0  0.30222  0.73045  0.96221  1.0000
  H   H1198     1.0  0.46578  0.97580  0.83562  1.0000
  C   C1006     1.0  0.45829  0.75898  0.95753  1.0000
  H   H1199     1.0  0.18151  0.69439  0.94931  1.0000
  H   H1200     1.0  0.19473  0.70774  0.92921  1.0000
  H   H1201     1.0  0.33482  0.97680  0.97097  1.0000
  H   H1202     1.0  0.29580  0.75852  0.99202  1.0000
  C   C1007     1.0  0.24074  0.75631  0.94421  1.0000
  H   H1203     1.0  0.40039  0.88319  0.94897  1.0000
  H   H1204     1.0  0.29435  0.67774  0.98652  1.0000
  H   H1205     1.0  0.22851  0.74219  0.78339  1.0000
  C   C1008     1.0  0.19107  0.68049  0.81048  1.0000
  H   H1206     1.0  0.46021  0.93453  0.78858  1.0000
  N   N67       1.0  0.32110  0.73678  0.98991  1.0000
  H   H1207     1.0  0.30349  0.74514  0.95492  1.0000
  H   H1208     1.0  0.21024  0.66643  0.87415  1.0000
  H   H1209     1.0  0.18537  0.76651  0.77538  1.0000
  H   H1210     1.0  0.43851  0.92107  0.84213  1.0000
  H   H1211     1.0  0.23899  0.71375  0.97444  1.0000
  C   C1009     1.0  0.44843  0.80895  0.98748  1.0000
  C   C1010     1.0  0.21385  0.73918  0.93750  1.0000
  C   C1011     1.0  0.28919  0.69934  0.96189  1.0000
  H   H1212     1.0  0.42477  0.79536  0.93894  1.0000
  N   N68       1.0  0.25124  0.80567  0.83113  1.0000
  C   C1012     1.0  0.23291  0.80177  0.84407  1.0000
  C   C1013     1.0  0.25265  0.79435  0.81382  1.0000
  C   C1014     1.0  0.25056  0.82703  0.82447  1.0000
  C   C1015     1.0  0.26389  0.83924  0.82990  1.0000
  C   C1016     1.0  0.26266  0.85940  0.82335  1.0000
  C   C1017     1.0  0.23482  0.85643  0.80599  1.0000
  C   C1018     1.0  0.24821  0.86795  0.81136  1.0000
  H   H1213     1.0  0.23123  0.80997  0.85731  1.0000
  H   H1214     1.0  0.23292  0.78588  0.84948  1.0000
  H   H1215     1.0  0.21946  0.80598  0.83634  1.0000
  H   H1216     1.0  0.25404  0.77816  0.81827  1.0000
  H   H1217     1.0  0.23930  0.79744  0.80581  1.0000
  H   H1218     1.0  0.26560  0.79779  0.80308  1.0000
  H   H1219     1.0  0.27530  0.83363  0.83929  1.0000
  H   H1220     1.0  0.14198  0.90525  0.78445  1.0000
  H   H1221     1.0  0.24733  0.88355  0.80623  1.0000
  H   H1222     1.0  0.12326  0.92538  0.77930  1.0000
  H   H1223     1.0  0.36489  0.95469  0.98387  1.0000
  H   H1224     1.0  0.44326  0.92547  0.80838  1.0000
  H   H1225     1.0  0.38278  0.84389  0.98698  1.0000
  C   C1019     1.0  0.31961  0.86676  0.78740  1.0000
  C   C1020     1.0  0.44057  0.93513  0.84668  1.0000
  C   C1021     1.0  0.43417  0.75980  0.92625  1.0000
  H   H1226     1.0  0.17948  0.72057  0.94807  1.0000
  N   N69       1.0  0.14371  0.91848  0.75415  1.0000
  H   H1227     1.0  0.42472  0.79676  0.91269  1.0000
  C   C1022     1.0  0.34628  0.91039  0.92575  1.0000
  H   H1228     1.0  0.34214  0.74085  0.96407  1.0000
  H   H1229     1.0  0.12192  0.90152  0.77172  1.0000
  C   C1023     1.0  0.38783  0.98503  0.84776  1.0000
  H   H1230     1.0  0.28098  0.69002  0.95503  1.0000
  C   C1024     1.0  0.43446  0.79471  0.92479  1.0000
  H   H1231     1.0  0.20198  0.73929  0.92844  1.0000
  C   C1025     1.0  0.42336  0.78680  0.98707  1.0000
  H   H1232     1.0  0.44169  0.95131  0.80015  1.0000
  H   H1233     1.0  0.47024  0.76191  0.90531  1.0000
  C   C1026     1.0  0.37963  0.82847  0.99149  1.0000
  S   S280      1.0  0.42070  0.98029  0.77490  1.0000
  H   H1234     1.0  0.25137  0.68211  0.79608  1.0000
  C   C1027     1.0  0.28264  0.91203  0.76497  1.0000
  C   C1028     1.0  0.45969  0.77553  0.90556  1.0000
  C   C1029     1.0  0.24608  0.69367  0.78521  1.0000
  H   H1235     1.0  0.16446  0.89238  0.75662  1.0000
  C   C1030     1.0  0.26822  0.79787  0.84242  1.0000
  H   H1236     1.0  0.31717  0.86623  0.80327  1.0000
  C   C1031     1.0  0.29148  0.91246  0.78239  1.0000
  C   C1032     1.0  0.33335  0.93941  0.97783  1.0000
  C   C1033     1.0  0.35017  0.93819  0.94383  1.0000
  N   N70       1.0  0.20734  0.70603  0.95667  1.0000
  H   H1237     1.0  0.37723  0.95584  0.95932  1.0000
  C   C1034     1.0  0.24462  0.68994  0.76556  1.0000
  H   H1238     1.0  0.07752  0.67005  0.84929  1.0000
  C   C1035     1.0  0.33926  0.87079  0.75566  1.0000
  C   C1036     1.0  0.23318  0.72782  0.77836  1.0000
  N   N71       1.0  0.46580  0.94108  0.81737  1.0000
  C   C1037     1.0  0.47393  0.78730  0.94134  1.0000
  H   H1239     1.0  0.42062  0.96414  0.88238  1.0000
  C   C1038     1.0  0.22500  0.75521  0.93350  1.0000
  H   H1240     1.0  0.32585  0.97046  0.94932  1.0000
  C   C1039     1.0  0.37297  0.97872  0.86209  1.0000
  C   C1040     1.0  0.33918  0.96933  0.95733  1.0000
  H   H1241     1.0  0.35863  0.98155  0.89148  1.0000
  C   C1041     1.0  0.36458  0.88427  0.98777  1.0000
  H   H1242     1.0  0.37199  0.94363  0.89591  1.0000
  H   H1243     1.0  0.46927  0.91006  0.82806  1.0000
  C   C1042     1.0  0.36397  0.93697  0.90916  1.0000
  H   H1244     1.0  0.34758  0.85872  0.81513  1.0000
  C   C1043     1.0  0.21827  0.72363  0.95253  1.0000
  H   H1245     1.0  0.26729  0.80449  0.85659  1.0000
  C   C1044     1.0  0.47038  0.75766  0.97277  1.0000
  C   C1045     1.0  0.22077  0.68849  0.95140  1.0000
  C   C1046     1.0  0.35657  0.91906  0.90881  1.0000
  H   H1246     1.0  0.24125  0.71462  0.80670  1.0000
  C   C1047     1.0  0.23444  0.72521  0.96314  1.0000
  C   C1048     1.0  0.37034  0.98609  0.88048  1.0000
  C   C1049     1.0  0.42870  0.94112  0.86339  1.0000
  C   C1050     1.0  0.30864  0.92194  0.78216  1.0000
  H   H1247     1.0  0.37527  0.89568  0.78517  1.0000
  N   N72       1.0  0.44724  0.77576  0.92482  1.0000
  H   H1248     1.0  0.22745  0.69064  0.93578  1.0000
  C   C1051     1.0  0.43023  0.95927  0.86975  1.0000
  C   C1052     1.0  0.47825  0.92233  0.82217  1.0000
  H   H1249     1.0  0.37329  0.93240  0.97283  1.0000
  H   H1250     1.0  0.20563  0.82911  0.76263  1.0000
  C   C1053     1.0  0.29681  0.69242  0.97964  1.0000
  C   C1054     1.0  0.31708  0.93134  0.76446  1.0000
  H   H1251     1.0  0.22348  0.86315  0.79676  1.0000
  H   H1252     1.0  0.28258  0.80037  0.83361  1.0000
  H   H1253     1.0  0.28906  0.86260  0.78614  1.0000
  C   C1055     1.0  0.43222  0.80373  0.97917  1.0000
  H   H1254     1.0  0.49016  0.95842  0.81694  1.0000
  H   H1255     1.0  0.15544  0.67226  0.88754  1.0000
  H   H1256     1.0  0.41790  0.93184  0.87118  1.0000
  S   S281      1.0  0.35752  0.96192  0.85687  1.0000
  H   H1257     1.0  0.36730  0.96009  0.92602  1.0000
  N   N73       1.0  0.35560  0.87335  0.78606  1.0000
  C   C1056     1.0  0.35177  0.87321  0.80787  1.0000
  C   C1057     1.0  0.37188  0.85768  0.78188  1.0000
  H   H1258     1.0  0.46862  0.74659  0.98535  1.0000
  C   C1058     1.0  0.33812  0.87022  0.77654  1.0000
  H   H1259     1.0  0.21209  0.69951  0.98759  1.0000
  H   H1260     1.0  0.19087  0.69036  0.98121  1.0000
  C   C1059     1.0  0.44381  0.97139  0.85959  1.0000
  C   C1060     1.0  0.13217  0.91245  0.77320  1.0000
  H   H1261     1.0  0.36613  0.82662  0.98466  1.0000
  H   H1262     1.0  0.48765  0.91747  0.80887  1.0000
  H   H1263     1.0  0.36515  0.87591  0.81447  1.0000
  H   H1264     1.0  0.33678  0.87223  0.98924  1.0000
  H   H1265     1.0  0.32368  0.76146  0.96704  1.0000
  H   H1266     1.0  0.38510  0.85933  0.78934  1.0000
  H   H1267     1.0  0.16843  0.92266  0.76943  1.0000
  H   H1268     1.0  0.39209  0.81890  0.98461  1.0000
  H   H1269     1.0  0.34311  0.75743  0.98217  1.0000
  H   H1270     1.0  0.35007  0.97835  0.94828  1.0000
  C   C1061     1.0  0.45576  0.96556  0.84286  1.0000
  H   H1271     1.0  0.42759  0.82276  0.84403  1.0000
  S   S282      1.0  0.40406  0.77839  0.97601  1.0000
  H   H1272     1.0  0.46691  0.85290  0.97278  1.0000
  H   H1273     1.0  0.27291  0.86854  0.82760  1.0000
  H   H1274     1.0  0.45567  0.82152  0.98066  1.0000
  H   H1275     1.0  0.20107  0.67241  0.91053  1.0000
  H   H1276     1.0  0.22500  0.82811  0.80810  1.0000
  C   C1062     1.0  0.47905  0.95569  0.80731  1.0000
  H   H1277     1.0  0.44464  0.98568  0.86445  1.0000
  C   C1063     1.0  0.45985  0.77379  0.94118  1.0000
  N   N74       1.0  0.34723  0.94843  0.96191  1.0000
  H   H1278     1.0  0.33523  0.91196  0.95563  1.0000
  C   C1064     1.0  0.45219  0.93791  0.80307  1.0000
  C   C1065     1.0  0.36100  0.94637  0.92642  1.0000
  H   H1279     1.0  0.35889  0.91186  0.89539  1.0000
  H   H1280     1.0  0.24949  0.76865  0.94074  1.0000
  C   C1066     1.0  0.45419  0.94734  0.83563  1.0000
  H   H1281     1.0  0.33999  0.88505  0.81206  1.0000
  C   C1067     1.0  0.24531  0.74145  0.95917  1.0000
  H   H1282     1.0  0.38947  0.98018  0.83324  1.0000
  H   H1283     1.0  0.17929  0.68692  0.90319  1.0000
  C   C1068     1.0  0.18553  0.67162  0.90785  1.0000
  C   C1069     1.0  0.18234  0.74267  0.75888  1.0000
  C   C1070     1.0  0.30709  0.70442  0.98885  1.0000
  C   C1071     1.0  0.36238  0.89269  0.77804  1.0000
  C   C1072     1.0  0.31057  0.72371  0.98015  1.0000
  S   S283      1.0  0.26113  0.89956  0.76641  1.0000
  H   H1284     1.0  0.31862  0.93909  0.97271  1.0000
  C   C1073     1.0  0.30329  0.86446  0.77779  1.0000
  S   S284      1.0  0.33832  0.94413  0.76342  1.0000
  H   H1285     1.0  0.25749  0.74238  0.96758  1.0000
  C   C1074     1.0  0.46822  0.86176  0.98445  1.0000
  N   N75       1.0  0.25022  0.66988  0.75954  1.0000
  H   H1286     1.0  0.49709  0.84790  0.98992  1.0000
  H   H1287     1.0  0.36717  0.89376  0.76194  1.0000
  C   C1075     1.0  0.23192  0.72482  0.75885  1.0000
  H   H1288     1.0  0.36707  0.97304  0.75178  1.0000
  H   H1289     1.0  0.37695  0.85796  0.76585  1.0000
  C   C1076     1.0  0.15882  0.93070  0.75842  1.0000
  S   S285      1.0  0.20770  0.90383  0.75205  1.0000
  C   C1077     1.0  0.48586  0.78588  0.95672  1.0000
  C   C1078     1.0  0.30483  0.86557  0.75728  1.0000
  H   H1290     1.0  0.37815  0.98681  0.98332  1.0000
  H   H1291     1.0  0.48815  0.92392  0.83348  1.0000
  H   H1292     1.0  0.19064  0.71635  0.98268  1.0000
  C   C1079     1.0  0.48532  0.85916  0.99395  1.0000
  H   H1293     1.0  0.49616  0.79662  0.95687  1.0000
  S   S286      1.0  0.23399  0.86106  0.75025  1.0000
  H   H1294     1.0  0.29190  0.86453  0.74993  1.0000
  H   H1295     1.0  0.09932  0.66535  0.83270  1.0000
  C   C1080     1.0  0.29121  0.92124  0.74723  1.0000
  H   H1296     1.0  0.28082  0.67447  0.75223  1.0000
  H   H1297     1.0  0.22643  0.73700  0.74868  1.0000
  H   H1298     1.0  0.34503  0.71433  0.99594  1.0000
  H   H1299     1.0  0.34523  0.99546  0.83269  1.0000
  C   C1081     1.0  0.30827  0.93091  0.74703  1.0000
  C   C1082     1.0  0.43603  0.99537  0.78420  1.0000
  Fe  Fe143     1.0  0.64669  0.03411  0.14889  1.0000
  S   S287      1.0  0.62784  0.04317  0.17598  1.0000
  H   H1300     1.0  0.65416  0.06696  0.05535  1.0000
  Fe  Fe144     1.0  0.63541  0.07252  0.12370  1.0000
  S   S288      1.0  0.61524  0.08422  0.14886  1.0000
  S   S289      1.0  0.64250  0.08628  0.09225  1.0000
  Fe  Fe145     1.0  0.64027  0.07236  0.16729  1.0000
  S   S290      1.0  0.65109  0.09159  0.18797  1.0000
  Fe  Fe146     1.0  0.60488  0.05364  0.15499  1.0000
  S   S291      1.0  0.57231  0.04727  0.15935  1.0000
  S   S292      1.0  0.66076  0.06217  0.14167  1.0000
  S   S293      1.0  0.62343  0.04330  0.12828  1.0000
  Fe  Fe147     1.0  0.63685  0.18829  0.03643  1.0000
  S   S294      1.0  0.63115  0.21931  0.02191  1.0000
  S   S295      1.0  0.61824  0.17625  0.06372  1.0000
  C   C1083     1.0  0.55205  0.17983  0.00017  1.0000
  H   H1301     1.0  0.73182  0.04093  0.24575  1.0000
  Fe  Fe148     1.0  0.66456  0.21871  0.01899  1.0000
  S   S296      1.0  0.67894  0.24405  0.02829  1.0000
  H   H1302     1.0  0.76522  0.30103  0.00127  1.0000
  C   C1084     1.0  0.78058  0.29744  0.00535  1.0000
  S   S297      1.0  0.66961  0.18850  0.03533  1.0000
  S   S298      1.0  0.63837  0.17513  0.00809  1.0000
  Fe  Fe149     1.0  0.75900  0.11559  0.21624  1.0000
  S   S299      1.0  0.76020  0.14820  0.20806  1.0000
  S   S300      1.0  0.74072  0.09448  0.20454  1.0000
  H   H1303     1.0  0.66736  0.12792  0.02426  1.0000
  S   S301      1.0  0.80020  0.14332  0.23234  1.0000
  H   H1304     1.0  0.62200  0.05129  0.01082  1.0000
  H   H1305     1.0  0.60783  0.15305  0.00455  1.0000
  Fe  Fe150     1.0  0.79287  0.14090  0.20169  1.0000
  S   S302      1.0  0.81015  0.15596  0.17484  1.0000
  S   S303      1.0  0.79168  0.10805  0.20785  1.0000
  H   H1306     1.0  0.83535  0.30572  0.12382  1.0000
  Fe  Fe151     1.0  0.79172  0.30018  0.08728  1.0000
  S   S304      1.0  0.81358  0.28033  0.10424  1.0000
  H   H1307     1.0  0.63144  0.01956  0.02416  1.0000
  Fe  Fe152     1.0  0.78254  0.26710  0.06443  1.0000
  S   S305      1.0  0.80497  0.24552  0.07931  1.0000
  S   S306      1.0  0.76797  0.25272  0.04225  1.0000
  Fe  Fe153     1.0  0.79180  0.25799  0.10721  1.0000
  S   S307      1.0  0.77942  0.24119  0.13570  1.0000
  Fe  Fe154     1.0  0.82462  0.27012  0.07473  1.0000
  S   S308      1.0  0.85767  0.26478  0.06631  1.0000
  S   S309      1.0  0.76861  0.27888  0.09257  1.0000
  S   S310      1.0  0.80356  0.29068  0.05745  1.0000
  C   C1085     1.0  0.81777  0.27033  0.01313  1.0000
  H   H1308     1.0  0.57508  0.18964  0.03526  1.0000
  S   S311      1.0  0.93235  0.30633  0.02406  1.0000
  H   H1309     1.0  0.71506  0.22813  0.07735  1.0000
  C   C1086     1.0  0.71923  0.21243  0.07830  1.0000
  H   H1310     1.0  0.78657  0.30951  0.16263  1.0000
  H   H1311     1.0  0.63939  0.99916  0.19042  1.0000
  N   N76       1.0  0.85802  0.32096  0.10555  1.0000
  C   C1087     1.0  0.77581  0.05985  0.23745  1.0000
  H   H1312     1.0  0.63402  0.04849  0.07677  1.0000
  H   H1313     1.0  0.83608  0.31509  0.08763  1.0000
  C   C1088     1.0  0.76727  0.21112  0.09327  1.0000
  H   H1314     1.0  0.83913  0.25675  0.03268  1.0000
  H   H1315     1.0  0.64855  0.04533  0.00908  1.0000
  H   H1316     1.0  0.76964  0.21697  0.07737  1.0000
  H   H1317     1.0  0.78400  0.30600  0.12767  1.0000
  H   H1318     1.0  0.74184  0.05600  0.22504  1.0000
  C   C1089     1.0  0.87724  0.27812  0.05445  1.0000
  C   C1090     1.0  0.89587  0.26747  0.05191  1.0000
  C   C1091     1.0  0.91226  0.27657  0.04275  1.0000
  C   C1092     1.0  0.91062  0.29669  0.03623  1.0000
  H   H1319     1.0  0.80116  0.23076  0.20369  1.0000
  C   C1093     1.0  0.87519  0.29836  0.04769  1.0000
  H   H1320     1.0  0.89768  0.25188  0.05694  1.0000
  H   H1321     1.0  0.92644  0.26786  0.04075  1.0000
  H   H1322     1.0  0.57608  0.15406  0.05062  1.0000
  C   C1094     1.0  0.73886  0.18222  0.08904  1.0000
  C   C1095     1.0  0.80117  0.17933  0.16350  1.0000
  C   C1096     1.0  0.78331  0.18927  0.17079  1.0000
  C   C1097     1.0  0.77700  0.20823  0.16215  1.0000
  C   C1098     1.0  0.78824  0.21732  0.14586  1.0000
  C   C1099     1.0  0.80592  0.20726  0.13824  1.0000
  C   C1100     1.0  0.81241  0.18839  0.14715  1.0000
  H   H1323     1.0  0.77438  0.18244  0.18318  1.0000
  H   H1324     1.0  0.76328  0.21588  0.16812  1.0000
  H   H1325     1.0  0.81473  0.21410  0.12571  1.0000
  H   H1326     1.0  0.82625  0.18078  0.14138  1.0000
  H   H1327     1.0  0.61016  0.01497  0.20968  1.0000
  C   C1101     1.0  0.62788  0.00130  0.07223  1.0000
  H   H1328     1.0  0.86079  0.30664  0.04917  1.0000
  H   H1329     1.0  0.58093  0.99704  0.22009  1.0000
  C   C1102     1.0  0.55876  0.16616  0.01578  1.0000
  C   C1103     1.0  0.82277  0.23140  0.23614  1.0000
  H   H1330     1.0  0.82125  0.24212  0.22340  1.0000
  H   H1331     1.0  0.54817  0.14424  0.03950  1.0000
  C   C1104     1.0  0.70366  0.24519  0.03327  1.0000
  C   C1105     1.0  0.70760  0.26008  0.04417  1.0000
  C   C1106     1.0  0.72708  0.26222  0.04764  1.0000
  C   C1107     1.0  0.74295  0.24971  0.03987  1.0000
  C   C1108     1.0  0.73902  0.23485  0.02894  1.0000
  C   C1109     1.0  0.71952  0.23245  0.02582  1.0000
  H   H1332     1.0  0.69549  0.27016  0.04983  1.0000
  H   H1333     1.0  0.72981  0.27390  0.05585  1.0000
  H   H1334     1.0  0.75116  0.22513  0.02277  1.0000
  H   H1335     1.0  0.71680  0.22104  0.01726  1.0000
  C   C1110     1.0  0.78821  0.31955  0.13157  1.0000
  C   C1111     1.0  0.67614  0.09235  0.19226  1.0000
  C   C1112     1.0  0.69153  0.07922  0.18463  1.0000
  C   C1113     1.0  0.71112  0.08026  0.18846  1.0000
  C   C1114     1.0  0.71574  0.09463  0.19963  1.0000
  C   C1115     1.0  0.70040  0.10797  0.20702  1.0000
  C   C1116     1.0  0.68072  0.10672  0.20348  1.0000
  H   H1336     1.0  0.68831  0.06809  0.17599  1.0000
  H   H1337     1.0  0.72282  0.06984  0.18266  1.0000
  H   H1338     1.0  0.70362  0.11903  0.21575  1.0000
  H   H1339     1.0  0.66897  0.11693  0.20952  1.0000
  C   C1117     1.0  0.63528  0.11129  0.08479  1.0000
  C   C1118     1.0  0.62122  0.12269  0.09633  1.0000
  C   C1119     1.0  0.61593  0.14263  0.08979  1.0000
  C   C1120     1.0  0.62472  0.15122  0.07175  1.0000
  C   C1121     1.0  0.63865  0.13976  0.06023  1.0000
  C   C1122     1.0  0.64386  0.11986  0.06668  1.0000
  H   H1340     1.0  0.61424  0.11606  0.11011  1.0000
  H   H1341     1.0  0.60506  0.15143  0.09873  1.0000
  H   H1342     1.0  0.64548  0.14635  0.04637  1.0000
  H   H1343     1.0  0.65473  0.11111  0.05769  1.0000
  H   H1344     1.0  0.63646  0.11268  0.02380  1.0000
  C   C1123     1.0  0.63110  0.01996  0.03989  1.0000
  H   H1345     1.0  0.60429  0.06547  0.04149  1.0000
  C   C1124     1.0  0.74368  0.20547  0.12191  1.0000
  H   H1346     1.0  0.80863  0.21165  0.18818  1.0000
  H   H1347     1.0  0.60040  0.14861  0.03897  1.0000
  N   N77       1.0  0.65566  0.13476  0.13963  1.0000
  C   C1125     1.0  0.63478  0.13390  0.14807  1.0000
  C   C1126     1.0  0.66345  0.11484  0.13414  1.0000
  C   C1127     1.0  0.66723  0.13914  0.15519  1.0000
  C   C1128     1.0  0.65682  0.15043  0.12283  1.0000
  C   C1129     1.0  0.66476  0.14667  0.10335  1.0000
  C   C1130     1.0  0.64978  0.17025  0.12572  1.0000
  C   C1131     1.0  0.66555  0.16189  0.08788  1.0000
  C   C1132     1.0  0.65047  0.18531  0.11008  1.0000
  C   C1133     1.0  0.65831  0.18113  0.09120  1.0000
  H   H1348     1.0  0.63323  0.12162  0.16017  1.0000
  H   H1349     1.0  0.62831  0.14753  0.15460  1.0000
  H   H1350     1.0  0.62541  0.13157  0.13658  1.0000
  H   H1351     1.0  0.65481  0.11009  0.12314  1.0000
  H   H1352     1.0  0.66261  0.10353  0.14719  1.0000
  H   H1353     1.0  0.67930  0.11414  0.12816  1.0000
  H   H1354     1.0  0.66140  0.15313  0.16137  1.0000
  H   H1355     1.0  0.66686  0.12748  0.16795  1.0000
  H   H1356     1.0  0.68299  0.14010  0.14942  1.0000
  H   H1357     1.0  0.66996  0.13203  0.09951  1.0000
  H   H1358     1.0  0.64338  0.17420  0.14006  1.0000
  H   H1359     1.0  0.67106  0.15860  0.07303  1.0000
  H   H1360     1.0  0.64453  0.20026  0.11249  1.0000
  H   H1361     1.0  0.65825  0.19275  0.07901  1.0000
  C   C1134     1.0  0.83659  0.26683  0.01956  1.0000
  C   C1135     1.0  0.82819  0.18677  0.21317  1.0000
  H   H1362     1.0  0.50323  0.17361  0.00527  1.0000
  C   C1136     1.0  0.54277  0.02259  0.16046  1.0000
  H   H1363     1.0  0.58162  0.13449  0.03447  1.0000
  C   C1137     1.0  0.57482  0.00631  0.16685  1.0000
  H   H1364     1.0  0.82465  0.18088  0.19973  1.0000
  H   H1365     1.0  0.77618  0.21906  0.10163  1.0000
  C   C1138     1.0  0.73468  0.20292  0.08929  1.0000
  C   C1139     1.0  0.81266  0.21823  0.20102  1.0000
  H   H1366     1.0  0.55289  0.00344  0.10069  1.0000
  H   H1367     1.0  0.53323  0.03600  0.15717  1.0000
  H   H1368     1.0  0.89042  0.32323  0.03343  1.0000
  H   H1369     1.0  0.62973  0.01710  0.09686  1.0000
  H   H1370     1.0  0.65661  0.07802  0.03049  1.0000
  H   H1371     1.0  0.75069  0.19007  0.12442  1.0000
  C   C1140     1.0  0.63319  0.03741  0.04833  1.0000
  C   C1141     1.0  0.56286  0.02379  0.16230  1.0000
  H   H1372     1.0  0.72781  0.20573  0.12775  1.0000
  C   C1142     1.0  0.63004  0.01803  0.08093  1.0000
  N   N78       1.0  0.63546  0.05661  0.03634  1.0000
  C   C1143     1.0  0.63260  0.03587  0.06924  1.0000
  C   C1144     1.0  0.73969  0.23509  0.09977  1.0000
  C   C1145     1.0  0.64381  0.11916  0.01018  1.0000
  H   H1373     1.0  0.80617  0.26284  0.02189  1.0000
  C   C1146     1.0  0.86966  0.30169  0.10250  1.0000
  S   S312      1.0  0.66351  0.00403  0.14835  1.0000
  H   H1374     1.0  0.79371  0.18476  0.23638  1.0000
  C   C1147     1.0  0.62849  0.00223  0.05177  1.0000
  H   H1375     1.0  0.84691  0.09706  0.23487  1.0000
  N   N79       1.0  0.74602  0.21359  0.10079  1.0000
  H   H1376     1.0  0.78911  0.19012  0.21127  1.0000
  C   C1148     1.0  0.81948  0.21137  0.23616  1.0000
  C   C1149     1.0  0.63599  0.05574  0.01471  1.0000
  C   C1150     1.0  0.71330  0.18151  0.06778  1.0000
  H   H1377     1.0  0.75039  0.17399  0.09705  1.0000
  Fe  Fe155     1.0  0.76742  0.14888  0.23918  1.0000
  H   H1378     1.0  0.51937  0.00362  0.16194  1.0000
  C   C1151     1.0  0.74603  0.04490  0.23751  1.0000
  H   H1379     1.0  0.59011  0.00692  0.16870  1.0000
  C   C1152     1.0  0.89196  0.30773  0.03879  1.0000
  H   H1380     1.0  0.88256  0.08972  0.23927  1.0000
  H   H1381     1.0  0.82851  0.17411  0.22487  1.0000
  H   H1382     1.0  0.69702  0.20937  0.05947  1.0000
  Fe  Fe156     1.0  0.67057  0.17817  0.00550  1.0000
  H   H1383     1.0  0.70529  0.17340  0.05938  1.0000
  C   C1153     1.0  0.79396  0.19650  0.22379  1.0000
  Fe  Fe157     1.0  0.79592  0.11131  0.23928  1.0000
  C   C1154     1.0  0.61866  0.07114  0.04231  1.0000
  H   H1384     1.0  0.82715  0.22398  0.19620  1.0000
  H   H1385     1.0  0.61885  0.08531  0.03258  1.0000
  C   C1155     1.0  0.53486  0.00420  0.16311  1.0000
  H   H1386     1.0  0.78608  0.31143  0.00781  1.0000
  H   H1387     1.0  0.86658  0.27396  0.01465  1.0000
  C   C1156     1.0  0.72832  0.17174  0.07840  1.0000
  H   H1388     1.0  0.74202  0.24235  0.08436  1.0000
  H   H1389     1.0  0.78444  0.06873  0.24504  1.0000
  H   H1390     1.0  0.77133  0.06970  0.22424  1.0000
  H   H1391     1.0  0.62137  0.00737  0.15158  1.0000
  C   C1157     1.0  0.84564  0.32671  0.08908  1.0000
  H   H1392     1.0  0.88020  0.29743  0.11381  1.0000
  C   C1158     1.0  0.70869  0.20177  0.06784  1.0000
  C   C1159     1.0  0.52468  0.15769  0.02346  1.0000
  H   H1393     1.0  0.78254  0.20857  0.22811  1.0000
  H   H1394     1.0  0.61888  0.07478  0.05767  1.0000
  H   H1395     1.0  0.72392  0.23817  0.10562  1.0000
  C   C1160     1.0  0.65411  0.06391  0.03980  1.0000
  H   H1396     1.0  0.77375  0.19550  0.09474  1.0000
  H   H1397     1.0  0.58698  0.14401  0.99721  1.0000
  H   H1398     1.0  0.73189  0.15596  0.07829  1.0000
  H   H1399     1.0  0.74837  0.24257  0.10878  1.0000
  N   N80       1.0  0.81371  0.20354  0.21875  1.0000
  C   C1161     1.0  0.66130  0.12773  0.01046  1.0000
  H   H1400     1.0  0.85305  0.31405  0.13720  1.0000
  H   H1401     1.0  0.75077  0.21410  0.13127  1.0000
  C   C1162     1.0  0.59220  0.15731  0.00173  1.0000
  H   H1402     1.0  0.75398  0.03186  0.23079  1.0000
  C   C1163     1.0  0.78956  0.32160  0.15142  1.0000
  C   C1164     1.0  0.84462  0.31788  0.12412  1.0000
  H   H1403     1.0  0.66702  0.05297  0.03639  1.0000
  C   C1165     1.0  0.58448  0.14962  0.03664  1.0000
  H   H1404     1.0  0.60034  0.18214  0.02774  1.0000
  H   H1405     1.0  0.87828  0.30164  0.08774  1.0000
  H   H1406     1.0  0.78600  0.04732  0.23211  1.0000
  H   H1407     1.0  0.58514  0.19441  0.00986  1.0000
  H   H1408     1.0  0.78428  0.25898  0.00180  1.0000
  C   C1166     1.0  0.51858  0.17146  0.00814  1.0000
  H   H1409     1.0  0.77953  0.28814  0.01980  1.0000
  C   C1167     1.0  0.54447  0.15502  0.02734  1.0000
  N   N81       1.0  0.57978  0.16403  0.01941  1.0000
  C   C1168     1.0  0.58525  0.18338  0.02314  1.0000
  H   H1410     1.0  0.86002  0.28960  0.10328  1.0000
  H   H1411     1.0  0.84341  0.19126  0.21005  1.0000
  C   C1169     1.0  0.85208  0.27651  0.00941  1.0000
  H   H1412     1.0  0.51397  0.14915  0.03251  1.0000
  H   H1413     1.0  0.51853  0.00508  0.10976  1.0000
  C   C1170     1.0  0.61030  0.00001  0.20615  1.0000
  H   H1414     1.0  0.70390  0.27053  0.99769  1.0000
  H   H1415     1.0  0.63789  0.07035  0.00612  1.0000
  H   H1416     1.0  0.71872  0.26092  0.48274  1.0000
  C   C1171     1.0  0.83787  0.18880  0.45305  1.0000
  Fe  Fe158     1.0  0.94262  0.15622  0.46246  1.0000
  S   S313      1.0  0.95844  0.18338  0.45661  1.0000
  H   H1417     1.0  0.77070  0.01787  0.45135  1.0000
  Fe  Fe159     1.0  0.96984  0.13416  0.43229  1.0000
  C   C1172     1.0  0.53763  0.30020  0.44346  1.0000
  S   S314      1.0  0.97288  0.10382  0.42211  1.0000
  H   H1418     1.0  0.54930  0.27090  0.45398  1.0000
  H   H1419     1.0  0.99548  0.00670  0.33831  1.0000
  Fe  Fe160     1.0  0.95821  0.17830  0.42462  1.0000
  S   S315      1.0  0.94830  0.20095  0.39956  1.0000
  S   S316      1.0  0.97016  0.13563  0.46466  1.0000
  S   S317      1.0  0.94078  0.15239  0.43089  1.0000
  Fe  Fe161     1.0  0.94622  0.07053  0.32763  1.0000
  S   S318      1.0  0.95205  0.05942  0.29777  1.0000
  S   S319      1.0  0.96159  0.09625  0.33324  1.0000
  Fe  Fe162     1.0  0.91609  0.04249  0.34183  1.0000
  S   S320      1.0  0.91947  0.02903  0.31321  1.0000
  N   N82       1.0  0.91549  0.14654  0.36801  1.0000
  Fe  Fe163     1.0  0.95217  0.02918  0.31459  1.0000
  H   H1420     1.0  0.87152  0.02948  0.31131  1.0000
  Fe  Fe164     1.0  0.91892  0.06024  0.29912  1.0000
  S   S321      1.0  0.94855  0.04024  0.34445  1.0000
  S   S322      1.0  0.91329  0.07370  0.32771  1.0000
  Fe  Fe165     1.0  0.81010  0.21404  0.33530  1.0000
  S   S323      1.0  0.80955  0.21797  0.36724  1.0000
  S   S324      1.0  0.80368  0.18458  0.32772  1.0000
  Fe  Fe166     1.0  0.82327  0.25441  0.32227  1.0000
  S   S325      1.0  0.82415  0.26144  0.35350  1.0000
  S   S326      1.0  0.82587  0.27197  0.29192  1.0000
  Fe  Fe167     1.0  0.83873  0.23022  0.35924  1.0000
  S   S327      1.0  0.85740  0.21638  0.38393  1.0000
  Fe  Fe168     1.0  0.79517  0.24841  0.35965  1.0000
  S   S328      1.0  0.77110  0.26077  0.38187  1.0000
  S   S329      1.0  0.84013  0.22417  0.32746  1.0000
  S   S330      1.0  0.79319  0.24349  0.32835  1.0000
  C   C1173     1.0  0.53805  0.28307  0.45656  1.0000
  S   S331      1.0  0.64631  0.29432  0.42852  1.0000
  Fe  Fe169     1.0  0.66222  0.30296  0.39843  1.0000
  S   S332      1.0  0.67908  0.28366  0.37597  1.0000
  C   C1174     1.0  0.52459  0.28194  0.47345  1.0000
  C   C1175     1.0  0.86653  0.13060  0.47837  1.0000
  H   H1421     1.0  0.67330  0.23777  0.38358  1.0000
  H   H1422     1.0  0.82280  0.01069  0.44928  1.0000
  C   C1176     1.0  0.59109  0.29268  0.46495  1.0000
  H   H1423     1.0  0.60361  0.28506  0.45684  1.0000
  H   H1424     1.0  0.81554  0.99562  0.42010  1.0000
  C   C1177     1.0  0.82834  0.29707  0.28383  1.0000
  S   S333      1.0  0.83542  0.08532  0.48488  1.0000
  H   H1425     1.0  0.81770  0.22140  0.41794  1.0000
  H   H1426     1.0  0.75055  0.18270  0.47168  1.0000
  H   H1427     1.0  0.99402  0.08145  0.30047  1.0000
  H   H1428     1.0  0.78512  0.28814  0.30079  1.0000
  H   H1429     1.0  0.84674  0.03511  0.30466  1.0000
  H   H1430     1.0  0.70002  0.28115  0.47868  1.0000
  C   C1178     1.0  0.82184  0.00406  0.26073  1.0000
  H   H1431     1.0  0.85245  0.17986  0.36001  1.0000
  C   C1179     1.0  0.74566  0.26716  0.37947  1.0000
  C   C1180     1.0  0.73750  0.26605  0.36195  1.0000
  C   C1181     1.0  0.71707  0.27120  0.36093  1.0000
  C   C1182     1.0  0.70478  0.27782  0.37728  1.0000
  C   C1183     1.0  0.71306  0.27912  0.39466  1.0000
  C   C1184     1.0  0.73335  0.27372  0.39576  1.0000
  H   H1432     1.0  0.74690  0.26143  0.34921  1.0000
  H   H1433     1.0  0.71076  0.27014  0.34745  1.0000
  H   H1434     1.0  0.70375  0.28402  0.40739  1.0000
  H   H1435     1.0  0.73955  0.27471  0.40933  1.0000
  H   H1436     1.0  0.83819  0.07251  0.39261  1.0000
  H   H1437     1.0  0.79446  0.03405  0.30449  1.0000
  H   H1438     1.0  0.92775  0.09529  0.42436  1.0000
  H   H1439     1.0  0.70131  0.23721  0.40305  1.0000
  H   H1440     1.0  0.77695  0.15509  0.47022  1.0000
  H   H1441     1.0  0.54870  0.30130  0.43076  1.0000
  C   C1185     1.0  0.82169  0.19883  0.25401  1.0000
  Fe  Fe170     1.0  0.80605  0.07701  0.47870  1.0000
  C   C1186     1.0  0.87705  0.14949  0.44757  1.0000
  C   C1187     1.0  0.89321  0.15433  0.45597  1.0000
  C   C1188     1.0  0.73375  0.31828  0.36496  1.0000
  C   C1189     1.0  0.70337  0.22980  0.38975  1.0000
  H   H1442     1.0  0.84528  0.04283  0.41732  1.0000
  H   H1443     1.0  0.90304  0.16410  0.44755  1.0000
  H   H1444     1.0  0.82943  0.16719  0.42554  1.0000
  H   H1445     1.0  0.90700  0.16104  0.39445  1.0000
  C   C1190     1.0  0.92296  0.20616  0.39562  1.0000
  C   C1191     1.0  0.90811  0.19905  0.40948  1.0000
  C   C1192     1.0  0.88821  0.20254  0.40564  1.0000
  C   C1193     1.0  0.88280  0.21319  0.38790  1.0000
  C   C1194     1.0  0.89761  0.22040  0.37402  1.0000
  C   C1195     1.0  0.91758  0.21699  0.37793  1.0000
  H   H1446     1.0  0.91201  0.19088  0.42319  1.0000
  H   H1447     1.0  0.87700  0.19685  0.41653  1.0000
  H   H1448     1.0  0.89373  0.22861  0.36030  1.0000
  H   H1449     1.0  0.92896  0.22258  0.36711  1.0000
  C   C1196     1.0  0.97037  0.10187  0.39726  1.0000
  C   C1197     1.0  0.96420  0.08459  0.39231  1.0000
  C   C1198     1.0  0.96133  0.08279  0.37272  1.0000
  C   C1199     1.0  0.96538  0.09797  0.35785  1.0000
  C   C1200     1.0  0.97241  0.11491  0.36265  1.0000
  C   C1201     1.0  0.97448  0.11708  0.38239  1.0000
  H   H1450     1.0  0.96134  0.07269  0.40376  1.0000
  H   H1451     1.0  0.95609  0.06961  0.36918  1.0000
  H   H1452     1.0  0.97609  0.12648  0.35111  1.0000
  H   H1453     1.0  0.97959  0.13032  0.38609  1.0000
  C   C1202     1.0  0.77079  0.17791  0.27496  1.0000
  C   C1203     1.0  0.78083  0.16152  0.28496  1.0000
  C   C1204     1.0  0.79106  0.16384  0.30093  1.0000
  C   C1205     1.0  0.79187  0.18259  0.30664  1.0000
  C   C1206     1.0  0.78266  0.19912  0.29598  1.0000
  C   C1207     1.0  0.77183  0.19673  0.28044  1.0000
  H   H1454     1.0  0.78021  0.14696  0.28076  1.0000
  H   H1455     1.0  0.79829  0.15099  0.30895  1.0000
  H   H1456     1.0  0.78367  0.21371  0.29983  1.0000
  H   H1457     1.0  0.76434  0.20949  0.27254  1.0000
  C   C1208     1.0  0.86348  0.07523  0.28607  1.0000
  H   H1458     1.0  0.76294  0.21937  0.37186  1.0000
  H   H1459     1.0  0.86801  0.06909  0.30030  1.0000
  H   H1460     1.0  0.83225  0.07558  0.29566  1.0000
  H   H1461     1.0  0.93268  0.13519  0.34233  1.0000
  H   H1462     1.0  0.75546  0.07750  0.26756  1.0000
  H   H1463     1.0  0.78566  0.06322  0.43208  1.0000
  H   H1464     1.0  0.93285  0.15926  0.38661  1.0000
  H   H1465     1.0  0.92850  0.16163  0.34115  1.0000
  C   C1209     1.0  0.84322  0.07893  0.28339  1.0000
  S   S334      1.0  0.80904  0.04734  0.46514  1.0000
  H   H1466     1.0  0.74155  0.21143  0.32637  1.0000
  C   C1210     1.0  0.52383  0.31634  0.44728  1.0000
  C   C1211     1.0  0.78004  0.16974  0.46369  1.0000
  H   H1467     1.0  0.76161  0.00461  0.47438  1.0000
  H   H1468     1.0  0.84545  0.15682  0.33738  1.0000
  C   C1212     1.0  0.71725  0.32470  0.35499  1.0000
  S   S335      1.0  0.84326  0.13204  0.44838  1.0000
  H   H1469     1.0  0.83445  0.23087  0.28305  1.0000
  C   C1213     1.0  0.87781  0.07879  0.27008  1.0000
  H   H1470     1.0  0.67779  0.22178  0.35273  1.0000
  C   C1214     1.0  0.50979  0.31568  0.46431  1.0000
  H   H1471     1.0  0.58883  0.26922  0.48883  1.0000
  H   H1472     1.0  0.93233  0.12487  0.38662  1.0000
  H   H1473     1.0  0.91413  0.00099  0.34740  1.0000
  C   C1215     1.0  0.78806  0.03983  0.41308  1.0000
  S   S336      1.0  0.90342  0.07182  0.27175  1.0000
  H   H1474     1.0  0.77805  0.04795  0.40319  1.0000
  H   H1475     1.0  0.76630  0.20884  0.33235  1.0000
  Fe  Fe171     1.0  0.62310  0.31918  0.42089  1.0000
  H   H1476     1.0  0.89393  0.06261  0.39425  1.0000
  C   C1216     1.0  0.76511  0.18530  0.46446  1.0000
  C   C1217     1.0  0.82973  0.18322  0.42104  1.0000
  C   C1218     1.0  0.80361  0.19203  0.44651  1.0000
  H   H1477     1.0  0.76401  0.30770  0.36332  1.0000
  H   H1478     1.0  0.86198  0.04114  0.27004  1.0000
  C   C1219     1.0  0.81321  0.01901  0.43911  1.0000
  H   H1479     1.0  0.75734  0.19592  0.38520  1.0000
  C   C1220     1.0  0.88569  0.01195  0.36104  1.0000
  H   H1480     1.0  0.66481  0.32008  0.34976  1.0000
  C   C1221     1.0  0.86329  0.16755  0.35661  1.0000
  C   C1222     1.0  0.93129  0.14787  0.35124  1.0000
  H   H1481     1.0  0.71008  0.20580  0.34088  1.0000
  N   N83       1.0  0.82402  0.19511  0.43787  1.0000
  C   C1223     1.0  0.75786  0.01957  0.27122  1.0000
  H   H1482     1.0  0.83377  0.19703  0.46619  1.0000
  C   C1224     1.0  0.82663  0.21595  0.43043  1.0000
  C   C1225     1.0  0.78788  0.20753  0.44707  1.0000
  C   C1226     1.0  0.76897  0.20412  0.45604  1.0000
  H   H1483     1.0  0.73944  0.17351  0.36903  1.0000
  C   C1227     1.0  0.83809  0.01234  0.26549  1.0000
  H   H1484     1.0  0.91677  0.17660  0.37311  1.0000
  H   H1485     1.0  0.65173  0.31357  0.31947  1.0000
  C   C1228     1.0  0.89632  0.14698  0.47541  1.0000
  H   H1486     1.0  0.78981  0.22243  0.44078  1.0000
  C   C1229     1.0  0.56581  0.29297  0.49341  1.0000
  H   H1487     1.0  0.84225  0.21776  0.42453  1.0000
  S   S337      1.0  0.98787  0.15961  0.42366  1.0000
  H   H1488     1.0  0.81972  0.18756  0.40927  1.0000
  H   H1489     1.0  0.72343  0.28581  0.48470  1.0000
  C   C1230     1.0  0.89415  0.07203  0.40572  1.0000
  H   H1490     1.0  0.75911  0.17503  0.34910  1.0000
  H   H1491     1.0  0.78126  0.00165  0.31172  1.0000
  C   C1231     1.0  0.84086  0.07802  0.42907  1.0000
  N   N84       1.0  0.86458  0.01331  0.28841  1.0000
  S   S338      1.0  0.78828  0.00954  0.38984  1.0000
  C   C1232     1.0  0.83519  0.30960  0.29546  1.0000
  H   H1492     1.0  0.73413  0.18011  0.34392  1.0000
  H   H1493     1.0  0.85338  0.19115  0.44722  1.0000
  H   H1494     1.0  0.62901  0.31776  0.46661  1.0000
  H   H1495     1.0  0.84296  0.07267  0.44473  1.0000
  H   H1496     1.0  0.83861  0.09443  0.42741  1.0000
  H   H1497     1.0  0.82673  0.07284  0.42643  1.0000
  C   C1233     1.0  0.58261  0.31093  0.45679  1.0000
  H   H1498     1.0  0.77521  0.19675  0.36402  1.0000
  Fe  Fe172     1.0  0.66146  0.31802  0.43810  1.0000
  S   S339      1.0  0.79543  0.10711  0.46448  1.0000
  C   C1234     1.0  0.91800  0.16151  0.38111  1.0000
  C   C1235     1.0  0.86590  0.00862  0.36576  1.0000
  C   C1236     1.0  0.79899  0.17298  0.45487  1.0000
  C   C1237     1.0  0.75085  0.21378  0.33790  1.0000
  C   C1238     1.0  0.86374  0.13757  0.45877  1.0000
  S   S340      1.0  0.67933  0.32464  0.40896  1.0000
  C   C1239     1.0  0.73731  0.32140  0.32380  1.0000
  H   H1499     1.0  0.94600  0.14810  0.35641  1.0000
  C   C1240     1.0  0.74431  0.18205  0.35480  1.0000
  S   S341      1.0  0.81151  0.08921  0.26168  1.0000
  C   C1241     1.0  0.80911  0.01038  0.42254  1.0000
  C   C1242     1.0  0.68752  0.23015  0.37877  1.0000
  H   H1500     1.0  0.80324  0.29560  0.32507  1.0000
  C   C1243     1.0  0.72527  0.21184  0.36534  1.0000
  N   N85       1.0  0.75847  0.05284  0.25032  1.0000
  C   C1244     1.0  0.70870  0.21219  0.35467  1.0000
  C   C1245     1.0  0.85888  0.02299  0.30674  1.0000
  C   C1246     1.0  0.69015  0.22128  0.36132  1.0000
  H   H1501     1.0  0.87776  0.02167  0.25881  1.0000
  S   S342      1.0  0.89389  0.03334  0.36696  1.0000
  C   C1247     1.0  0.71211  0.27521  0.48794  1.0000
  H   H1502     1.0  0.87478  0.15516  0.43250  1.0000
  C   C1248     1.0  0.91833  0.12690  0.37954  1.0000
  C   C1249     1.0  0.88280  0.13532  0.48670  1.0000
  Fe  Fe173     1.0  0.98655  0.16234  0.45654  1.0000
  Fe  Fe174     1.0  0.82417  0.11532  0.47165  1.0000
  C   C1250     1.0  0.79239  0.04859  0.42947  1.0000
  H   H1503     1.0  0.78508  0.28694  0.34404  1.0000
  C   C1251     1.0  0.51061  0.29793  0.47735  1.0000
  S   S343      1.0  0.67104  0.31492  0.46860  1.0000
  H   H1504     1.0  0.83814  0.17288  0.45834  1.0000
  C   C1252     1.0  0.74668  0.06992  0.25878  1.0000
  C   C1253     1.0  0.76071  0.20387  0.37027  1.0000
  H   H1505     1.0  0.73362  0.06529  0.26874  1.0000
  H   H1506     1.0  0.74990  0.22988  0.33882  1.0000
  C   C1254     1.0  0.63176  0.32623  0.47809  1.0000
  C   C1255     1.0  0.75433  0.31430  0.33351  1.0000
  H   H1507     1.0  0.85372  0.01251  0.31943  1.0000
  S   S344      1.0  0.75658  0.17512  0.25590  1.0000
  C   C1256     1.0  0.89598  0.14928  0.36028  1.0000
  C   C1257     1.0  0.89686  0.09606  0.43503  1.0000
  C   C1258     1.0  0.85935  0.15459  0.34385  1.0000
  H   H1508     1.0  0.81827  0.29487  0.25567  1.0000
  H   H1509     1.0  0.88330  0.17571  0.37440  1.0000
  H   H1510     1.0  0.85246  0.09304  0.39146  1.0000
  C   C1259     1.0  0.80474  0.03809  0.44287  1.0000
  H   H1511     1.0  0.85625  0.12148  0.48716  1.0000
  H   H1512     1.0  0.89795  0.10541  0.44645  1.0000
  H   H1513     1.0  0.89424  0.00303  0.29535  1.0000
  H   H1514     1.0  0.86369  0.04322  0.43375  1.0000
  C   C1260     1.0  0.85285  0.07676  0.39490  1.0000
  N   N86       1.0  0.85776  0.07044  0.41538  1.0000
  H   H1515     1.0  0.90603  0.12496  0.39153  1.0000
  H   H1516     1.0  0.75671  0.01339  0.42000  1.0000
  C   C1261     1.0  0.76506  0.03834  0.26665  1.0000
  H   H1517     1.0  0.86640  0.09440  0.44333  1.0000
  H   H1518     1.0  0.90196  0.12408  0.34314  1.0000
  H   H1519     1.0  0.82277  0.22580  0.44234  1.0000
  C   C1262     1.0  0.87675  0.07746  0.41813  1.0000
  H   H1520     1.0  0.85578  0.01885  0.37387  1.0000
  C   C1263     1.0  0.85949  0.04861  0.41868  1.0000
  H   H1521     1.0  0.78431  0.05728  0.27682  1.0000
  H   H1522     1.0  0.86368  0.06984  0.38366  1.0000
  C   C1264     1.0  0.91363  0.09043  0.42258  1.0000
  H   H1523     1.0  0.74622  0.02403  0.46236  1.0000
  H   H1524     1.0  0.54503  0.31898  0.49348  1.0000
  H   H1525     1.0  0.87072  0.04166  0.40780  1.0000
  C   C1265     1.0  0.72203  0.22092  0.38318  1.0000
  C   C1266     1.0  0.88126  0.16499  0.36479  1.0000
  C   C1267     1.0  0.87285  0.02806  0.27295  1.0000
  H   H1526     1.0  0.83920  0.30401  0.31004  1.0000
  H   H1527     1.0  0.83049  0.25357  0.25279  1.0000
  C   C1268     1.0  0.74395  0.00803  0.42988  1.0000
  C   C1269     1.0  0.82714  0.20581  0.27064  1.0000
  C   C1270     1.0  0.87867  0.08963  0.43300  1.0000
  C   C1271     1.0  0.91225  0.07843  0.40796  1.0000
  H   H1528     1.0  0.92528  0.07390  0.39835  1.0000
  C   C1272     1.0  0.87337  0.13893  0.33928  1.0000
  C   C1273     1.0  0.76375  0.00659  0.28730  1.0000
  C   C1274     1.0  0.83705  0.08684  0.26492  1.0000
  C   C1275     1.0  0.79614  0.02056  0.40958  1.0000
  H   H1529     1.0  0.98932  0.03929  0.31939  1.0000
  N   N87       1.0  0.74496  0.20306  0.35739  1.0000
  H   H1530     1.0  0.75725  0.21617  0.45657  1.0000
  N   N88       1.0  0.77336  0.30868  0.32185  1.0000
  C   C1276     1.0  0.56621  0.32051  0.46746  1.0000
  H   H1531     1.0  0.84502  0.18514  0.41416  1.0000
  C   C1277     1.0  0.65093  0.32591  0.48324  1.0000
  H   H1532     1.0  0.88596  0.03385  0.27742  1.0000
  H   H1533     1.0  0.76102  0.29947  0.29722  1.0000
  C   C1278     1.0  0.82351  0.30447  0.26481  1.0000
  H   H1534     1.0  0.87033  0.12895  0.32920  1.0000
  C   C1279     1.0  0.75204  0.31306  0.35451  1.0000
  H   H1535     1.0  0.73330  0.02115  0.43280  1.0000
  C   C1280     1.0  0.77845  0.04316  0.27914  1.0000
  H   H1536     1.0  0.73375  0.22193  0.39208  1.0000
  H   H1537     1.0  0.76445  0.28074  0.31757  1.0000
  C   C1281     1.0  0.89142  0.13626  0.34734  1.0000
  H   H1538     1.0  0.91923  0.11463  0.37021  1.0000
  C   C1282     1.0  0.78427  0.03002  0.29513  1.0000
  C   C1283     1.0  0.65577  0.32812  0.32061  1.0000
  H   H1539     1.0  0.81006  0.16041  0.45481  1.0000
  C   C1284     1.0  0.82548  0.32419  0.25738  1.0000
  C   C1285     1.0  0.89870  0.99875  0.35048  1.0000
  C   C1286     1.0  0.55797  0.31169  0.48576  1.0000
  S   S345      1.0  0.91708  0.15211  0.48569  1.0000
  C   C1287     1.0  0.58260  0.28367  0.48306  1.0000
  H   H1540     1.0  0.79306  0.31114  0.34356  1.0000
  H   H1541     1.0  0.82863  0.19598  0.28414  1.0000
  C   C1288     1.0  0.85139  0.09112  0.24919  1.0000
  N   N89       1.0  0.75050  0.99702  0.44837  1.0000
  H   H1542     1.0  0.74752  0.01460  0.26277  1.0000
  H   H1543     1.0  0.73797  0.32307  0.30788  1.0000
  S   S346      1.0  0.63715  0.32543  0.38941  1.0000
  H   H1544     1.0  0.66866  0.27671  0.49523  1.0000
  C   C1289     1.0  0.77081  0.29365  0.30883  1.0000
  C   C1290     1.0  0.77685  0.01182  0.29926  1.0000
  H   H1545     1.0  0.84318  0.02437  0.25528  1.0000
  S   S347      1.0  0.59037  0.32079  0.43231  1.0000
  C   C1291     1.0  0.84720  0.00516  0.28293  1.0000
  C   C1292     1.0  0.83034  0.22546  0.27010  1.0000
  S   S348      1.0  0.97328  0.00285  0.30497  1.0000
  H   H1546     1.0  0.73220  0.31685  0.38099  1.0000
  C   C1293     1.0  0.78931  0.30025  0.33424  1.0000
  C   C1294     1.0  0.75761  0.01142  0.45963  1.0000
  C   C1295     1.0  0.82811  0.23823  0.25294  1.0000
  H   H1547     1.0  0.81899  0.18352  0.25536  1.0000
  C   C1296     1.0  0.78014  0.32628  0.30939  1.0000
  C   C1297     1.0  0.71905  0.32637  0.33443  1.0000
  H   H1548     1.0  0.72166  0.00105  0.46471  1.0000
  H   H1549     1.0  0.96242  0.19720  0.49633  1.0000
  H   H1550     1.0  0.73656  0.99898  0.42127  1.0000
  H   H1551     1.0  0.99767  0.05962  0.28860  1.0000
  H   H1552     1.0  0.79450  0.32267  0.30046  1.0000
  C   C1298     1.0  0.87162  0.08691  0.25172  1.0000
  H   H1553     1.0  0.52547  0.26882  0.48398  1.0000
  H   H1554     1.0  0.98486  0.06057  0.33248  1.0000
  H   H1555     1.0  0.81510  0.00976  0.24741  1.0000
  C   C1299     1.0  0.99653  0.04912  0.32737  1.0000
  S   S349      1.0  0.76317  0.11704  0.24815  1.0000
  H   H1556     1.0  0.74114  0.08114  0.24700  1.0000
  C   C1300     1.0  0.88065  0.99725  0.29204  1.0000
  H   H1557     1.0  0.50095  0.29610  0.49091  1.0000
  H   H1558     1.0  0.70302  0.32819  0.36329  1.0000
  Fe  Fe175     1.0  0.78405  0.11528  0.49520  1.0000
  Fe  Fe176     1.0  0.94929  0.13130  0.61402  1.0000
  S   S350      1.0  0.94330  0.12207  0.64654  1.0000
  Fe  Fe177     1.0  0.91945  0.10677  0.60229  1.0000
  S   S351      1.0  0.91083  0.09552  0.63391  1.0000
  S   S352      1.0  0.91236  0.09743  0.57345  1.0000
  Fe  Fe178     1.0  0.91137  0.12686  0.64075  1.0000
  S   S353      1.0  0.88604  0.14260  0.65971  1.0000
  Fe  Fe179     1.0  0.94351  0.09169  0.63707  1.0000
  S   S354      1.0  0.95573  0.06346  0.65452  1.0000
  S   S355      1.0  0.91746  0.13820  0.60876  1.0000
  S   S356      1.0  0.95204  0.10087  0.60509  1.0000
  C   C1301     1.0  0.62807  0.27463  0.61716  1.0000
  H   H1559     1.0  0.89558  0.17871  0.72772  1.0000
  H   H1560     1.0  0.98434  0.18585  0.62025  1.0000
  S   S357      1.0  0.53448  0.32820  0.53542  1.0000
  C   C1302     1.0  0.50094  0.24133  0.72760  1.0000
  H   H1561     1.0  0.58909  0.32788  0.56581  1.0000
  C   C1303     1.0  0.62703  0.27912  0.55105  1.0000
  H   H1562     1.0  0.78155  0.16236  0.50685  1.0000
  Fe  Fe180     1.0  0.82048  0.09526  0.51357  1.0000
  S   S358      1.0  0.82852  0.09150  0.54518  1.0000
  H   H1563     1.0  0.97464  0.20305  0.55498  1.0000
  S   S359      1.0  0.79189  0.08427  0.50901  1.0000
  Fe  Fe181     1.0  0.85331  0.27965  0.73348  1.0000
  H   H1564     1.0  0.62327  0.32608  0.56409  1.0000
  C   C1304     1.0  0.97809  0.10384  0.55173  1.0000
  Fe  Fe182     1.0  0.82374  0.26495  0.70907  1.0000
  S   S360      1.0  0.83256  0.23293  0.71842  1.0000
  S   S361      1.0  0.79986  0.27788  0.68960  1.0000
  H   H1565     1.0  0.90406  0.18458  0.55498  1.0000
  Fe  Fe183     1.0  0.86354  0.24139  0.71289  1.0000
  S   S362      1.0  0.88889  0.22292  0.69674  1.0000
  C   C1305     1.0  0.67849  0.22684  0.52721  1.0000
  S   S363      1.0  0.85476  0.27316  0.70176  1.0000
  Fe  Fe184     1.0  0.72868  0.22656  0.57355  1.0000
  S   S364      1.0  0.74506  0.25140  0.57920  1.0000
  S   S365      1.0  0.74557  0.21224  0.54700  1.0000
  Fe  Fe185     1.0  0.69657  0.23663  0.60782  1.0000
  S   S366      1.0  0.71092  0.26203  0.61527  1.0000
  S   S367      1.0  0.66673  0.22984  0.62345  1.0000
  Fe  Fe186     1.0  0.71559  0.26975  0.58223  1.0000
  S   S368      1.0  0.70967  0.29785  0.56152  1.0000
  Fe  Fe187     1.0  0.73898  0.24129  0.61151  1.0000
  S   S369      1.0  0.76315  0.23080  0.63147  1.0000
  S   S370      1.0  0.69950  0.24546  0.57496  1.0000
  S   S371      1.0  0.72418  0.21537  0.60583  1.0000
  Fe  Fe188     1.0  0.61357  0.24399  0.72979  1.0000
  S   S372      1.0  0.58634  0.23525  0.71922  1.0000
  S   S373      1.0  0.64433  0.24542  0.71346  1.0000
  H   H1566     1.0  0.94745  0.00661  0.64273  1.0000
  S   S374      1.0  0.54779  0.28189  0.71537  1.0000
  H   H1567     1.0  0.55115  0.13932  0.72637  1.0000
  C   C1306     1.0  0.96106  0.09570  0.54887  1.0000
  H   H1568     1.0  0.52179  0.30932  0.69346  1.0000
  H   H1569     1.0  0.90634  0.14318  0.54123  1.0000
  N   N90       1.0  0.93556  0.03317  0.61035  1.0000
  C   C1307     1.0  0.66085  0.23359  0.64867  1.0000
  C   C1308     1.0  0.67438  0.24038  0.65925  1.0000
  C   C1309     1.0  0.66907  0.24395  0.67906  1.0000
  C   C1310     1.0  0.65019  0.24081  0.68849  1.0000
  C   C1311     1.0  0.63661  0.23410  0.67790  1.0000
  C   C1312     1.0  0.64195  0.23048  0.65808  1.0000
  H   H1570     1.0  0.68901  0.24275  0.65223  1.0000
  H   H1571     1.0  0.67967  0.24918  0.68710  1.0000
  H   H1572     1.0  0.62208  0.23151  0.68504  1.0000
  H   H1573     1.0  0.63141  0.22517  0.65003  1.0000
  C   C1313     1.0  0.66074  0.23182  0.51893  1.0000
  H   H1574     1.0  0.92776  0.13287  0.56592  1.0000
  C   C1314     1.0  0.50978  0.17109  0.72349  1.0000
  C   C1315     1.0  0.55862  0.16243  0.74203  1.0000
  C   C1316     1.0  0.89855  0.15167  0.71555  1.0000
  C   C1317     1.0  0.71273  0.24668  0.73592  1.0000
  H   H1575     1.0  0.70712  0.30266  0.51458  1.0000
  C   C1318     1.0  0.78854  0.26431  0.67467  1.0000
  C   C1319     1.0  0.79317  0.24398  0.67465  1.0000
  C   C1320     1.0  0.78495  0.23389  0.66154  1.0000
  C   C1321     1.0  0.77162  0.24393  0.64877  1.0000
  C   C1322     1.0  0.76622  0.26410  0.64947  1.0000
  C   C1323     1.0  0.77477  0.27427  0.66231  1.0000
  H   H1576     1.0  0.80318  0.23606  0.68459  1.0000
  H   H1577     1.0  0.78904  0.21825  0.66118  1.0000
  H   H1578     1.0  0.75595  0.27195  0.63971  1.0000
  H   H1579     1.0  0.77096  0.28998  0.66241  1.0000
  C   C1324     1.0  0.74768  0.18961  0.53636  1.0000
  C   C1325     1.0  0.76529  0.18403  0.52465  1.0000
  C   C1326     1.0  0.76784  0.16641  0.51564  1.0000
  C   C1327     1.0  0.75250  0.15440  0.51759  1.0000
  C   C1328     1.0  0.73473  0.16012  0.52904  1.0000
  C   C1329     1.0  0.73243  0.17745  0.53866  1.0000
  H   H1580     1.0  0.77714  0.19338  0.52262  1.0000
  S   S375      1.0  0.75475  0.13252  0.50564  1.0000
  H   H1581     1.0  0.72272  0.15101  0.53061  1.0000
  H   H1582     1.0  0.71874  0.18156  0.54748  1.0000
  H   H1583     1.0  0.63548  0.25989  0.62214  1.0000
  H   H1584     1.0  0.95047  0.18047  0.56878  1.0000
  H   H1585     1.0  0.79835  0.27917  0.62011  1.0000
  H   H1586     1.0  0.67491  0.21678  0.74538  1.0000
  C   C1330     1.0  0.88687  0.16548  0.66898  1.0000
  C   C1331     1.0  0.90436  0.17439  0.66737  1.0000
  C   C1332     1.0  0.90468  0.19196  0.67593  1.0000
  C   C1333     1.0  0.88753  0.20094  0.68602  1.0000
  C   C1334     1.0  0.86991  0.19233  0.68719  1.0000
  C   C1335     1.0  0.86963  0.17464  0.67882  1.0000
  H   H1587     1.0  0.91774  0.16752  0.65989  1.0000
  H   H1588     1.0  0.91838  0.19854  0.67485  1.0000
  H   H1589     1.0  0.85656  0.19914  0.69470  1.0000
  H   H1590     1.0  0.85604  0.16783  0.68017  1.0000
  C   C1336     1.0  0.88861  0.09778  0.56572  1.0000
  C   C1337     1.0  0.87179  0.09651  0.57929  1.0000
  C   C1338     1.0  0.85347  0.09480  0.57271  1.0000
  C   C1339     1.0  0.85170  0.09479  0.55249  1.0000
  C   C1340     1.0  0.86840  0.09675  0.53884  1.0000
  C   C1341     1.0  0.88682  0.09802  0.54547  1.0000
  H   H1591     1.0  0.87301  0.09614  0.59491  1.0000
  H   H1592     1.0  0.84071  0.09304  0.58339  1.0000
  H   H1593     1.0  0.86725  0.09673  0.52325  1.0000
  H   H1594     1.0  0.89975  0.09896  0.53484  1.0000
  Fe  Fe189     1.0  0.57101  0.26253  0.73218  1.0000
  H   H1595     1.0  0.58604  0.31101  0.51857  1.0000
  H   H1596     1.0  0.68114  0.21272  0.53597  1.0000
  H   H1597     1.0  0.74335  0.24651  0.69225  1.0000
  N   N91       1.0  0.85368  0.24325  0.64550  1.0000
  C   C1342     1.0  0.84464  0.23996  0.66615  1.0000
  C   C1343     1.0  0.86858  0.22618  0.64171  1.0000
  C   C1344     1.0  0.86443  0.26103  0.64338  1.0000
  C   C1345     1.0  0.83780  0.24602  0.63227  1.0000
  C   C1346     1.0  0.82419  0.26331  0.63187  1.0000
  C   C1347     1.0  0.83449  0.23128  0.62055  1.0000
  C   C1348     1.0  0.65645  0.28581  0.56415  1.0000
  C   C1349     1.0  0.81880  0.23402  0.60887  1.0000
  C   C1350     1.0  0.80604  0.25137  0.60846  1.0000
  H   H1598     1.0  0.83410  0.25275  0.67037  1.0000
  H   H1599     1.0  0.83637  0.22676  0.66843  1.0000
  H   H1600     1.0  0.85599  0.23766  0.67669  1.0000
  H   H1601     1.0  0.86224  0.21187  0.64561  1.0000
  H   H1602     1.0  0.88104  0.22531  0.65093  1.0000
  H   H1603     1.0  0.87509  0.22725  0.62601  1.0000
  H   H1604     1.0  0.85512  0.27402  0.64889  1.0000
  H   H1605     1.0  0.87730  0.25870  0.65223  1.0000
  H   H1606     1.0  0.86999  0.26511  0.62767  1.0000
  H   H1607     1.0  0.82482  0.27460  0.64137  1.0000
  H   H1608     1.0  0.84354  0.21733  0.62046  1.0000
  C   C1351     1.0  0.60534  0.31382  0.61799  1.0000
  H   H1609     1.0  0.81616  0.22246  0.60041  1.0000
  C   C1352     1.0  0.80878  0.26601  0.61988  1.0000
  H   H1610     1.0  0.90042  0.16119  0.56910  1.0000
  H   H1611     1.0  0.61303  0.28766  0.65166  1.0000
  C   C1353     1.0  0.96974  0.20179  0.52486  1.0000
  H   H1612     1.0  0.96382  0.02340  0.58014  1.0000
  H   H1613     1.0  0.95087  0.05359  0.58904  1.0000
  C   C1354     1.0  0.62927  0.28765  0.64804  1.0000
  H   H1614     1.0  0.84740  0.14187  0.74289  1.0000
  H   H1615     1.0  0.63395  0.29949  0.65558  1.0000
  Fe  Fe190     1.0  0.53055  0.32186  0.56814  1.0000
  H   H1616     1.0  0.92778  0.14513  0.52411  1.0000
  H   H1617     1.0  0.66335  0.27301  0.62860  1.0000
  H   H1618     1.0  0.56861  0.29698  0.55190  1.0000
  N   N92       1.0  0.63512  0.29052  0.62645  1.0000
  N   N93       1.0  0.51579  0.22406  0.73134  1.0000
  C   C1355     1.0  0.51105  0.20676  0.72263  1.0000
  H   H1619     1.0  0.75958  0.26952  0.70827  1.0000
  C   C1356     1.0  0.72070  0.24205  0.71667  1.0000
  H   H1620     1.0  0.63617  0.27333  0.65489  1.0000
  H   H1621     1.0  0.91081  0.04661  0.62854  1.0000
  C   C1357     1.0  0.95245  0.18392  0.55290  1.0000
  H   H1622     1.0  0.98756  0.12339  0.62845  1.0000
  C   C1358     1.0  0.72240  0.26655  0.52039  1.0000
  C   C1359     1.0  0.62613  0.31004  0.61830  1.0000
  C   C1360     1.0  0.52417  0.31604  0.70633  1.0000
  H   H1623     1.0  0.71799  0.26455  0.53660  1.0000
  C   C1361     1.0  0.94562  0.18045  0.51972  1.0000
  S   S376      1.0  0.97052  0.15210  0.59879  1.0000
  S   S377      1.0  0.55475  0.28048  0.51546  1.0000
  H   H1624     1.0  0.88506  0.12969  0.50179  1.0000
  H   H1625     1.0  0.58690  0.27670  0.55486  1.0000
  C   C1362     1.0  0.95951  0.19351  0.51217  1.0000
  C   C1363     1.0  0.92318  0.03457  0.62957  1.0000
  H   H1626     1.0  0.99239  0.99851  0.58143  1.0000
  H   H1627     1.0  0.83946  0.18835  0.72672  1.0000
  C   C1364     1.0  0.98839  0.01143  0.66684  1.0000
  H   H1628     1.0  0.69983  0.21032  0.73506  1.0000
  H   H1629     1.0  0.91649  0.02068  0.63487  1.0000
  C   C1365     1.0  0.65708  0.28814  0.62320  1.0000
  H   H1630     1.0  0.98042  0.21197  0.51891  1.0000
  H   H1631     1.0  0.51862  0.31253  0.60780  1.0000
  H   H1632     1.0  0.79354  0.25318  0.59988  1.0000
  H   H1633     1.0  0.64371  0.25366  0.50085  1.0000
  N   N94       1.0  0.92719  0.16143  0.54908  1.0000
  C   C1366     1.0  0.95635  0.00522  0.62879  1.0000
  H   H1634     1.0  0.60027  0.28774  0.52189  1.0000
  H   H1635     1.0  0.90862  0.16558  0.52527  1.0000
  H   H1636     1.0  0.91789  0.17579  0.57556  1.0000
  H   H1637     1.0  0.93073  0.06478  0.60408  1.0000
  N   N95       1.0  0.78673  0.13626  0.57176  1.0000
  C   C1367     1.0  0.79400  0.11616  0.58026  1.0000
  C   C1368     1.0  0.76677  0.13522  0.56593  1.0000
  C   C1369     1.0  0.80016  0.14147  0.55376  1.0000
  C   C1370     1.0  0.78581  0.15146  0.58550  1.0000
  C   C1371     1.0  0.79230  0.14731  0.60466  1.0000
  C   C1372     1.0  0.77824  0.17122  0.57983  1.0000
  C   C1373     1.0  0.79070  0.16199  0.61740  1.0000
  C   C1374     1.0  0.77662  0.18573  0.59270  1.0000
  C   C1375     1.0  0.78275  0.18111  0.61149  1.0000
  H   H1638     1.0  0.78456  0.11119  0.59386  1.0000
  H   H1639     1.0  0.79393  0.10506  0.56970  1.0000
  H   H1640     1.0  0.80958  0.11535  0.58357  1.0000
  H   H1641     1.0  0.76064  0.14933  0.55826  1.0000
  H   H1642     1.0  0.75613  0.13151  0.57904  1.0000
  H   H1643     1.0  0.76693  0.12400  0.55544  1.0000
  H   H1644     1.0  0.81532  0.14252  0.55747  1.0000
  H   H1645     1.0  0.80146  0.13012  0.54325  1.0000
  H   H1646     1.0  0.79494  0.15570  0.54557  1.0000
  H   H1647     1.0  0.79861  0.13285  0.61020  1.0000
  H   H1648     1.0  0.77335  0.17565  0.56542  1.0000
  H   H1649     1.0  0.79553  0.15852  0.63203  1.0000
  H   H1650     1.0  0.77038  0.20064  0.58813  1.0000
  H   H1651     1.0  0.78126  0.19238  0.62149  1.0000
  H   H1652     1.0  0.95343  0.05560  0.61440  1.0000
  C   C1376     1.0  0.95207  0.10110  0.53158  1.0000
  C   C1377     1.0  0.83816  0.18322  0.74280  1.0000
  N   N96       1.0  0.59823  0.30499  0.54665  1.0000
  C   C1378     1.0  0.91175  0.17122  0.56276  1.0000
  C   C1379     1.0  0.89017  0.13473  0.71336  1.0000
  H   H1653     1.0  0.65290  0.25819  0.55419  1.0000
  C   C1380     1.0  0.53641  0.30571  0.71999  1.0000
  H   H1654     1.0  0.73077  0.25263  0.51588  1.0000
  C   C1381     1.0  0.92256  0.02939  0.59575  1.0000
  H   H1655     1.0  0.66252  0.29058  0.60724  1.0000
  C   C1382     1.0  0.68813  0.22284  0.73685  1.0000
  C   C1383     1.0  0.67181  0.26299  0.50442  1.0000
  C   C1384     1.0  0.69300  0.23985  0.52418  1.0000
  H   H1656     1.0  0.70647  0.23490  0.53090  1.0000
  C   C1385     1.0  0.94157  0.17537  0.54043  1.0000
  H   H1657     1.0  0.59565  0.30277  0.62396  1.0000
  C   C1386     1.0  0.93766  0.14437  0.56022  1.0000
  C   C1387     1.0  0.96636  0.19687  0.54517  1.0000
  C   C1388     1.0  0.64605  0.27294  0.55635  1.0000
  H   H1658     1.0  0.90944  0.04064  0.59512  1.0000
  H   H1659     1.0  0.63107  0.27690  0.60079  1.0000
  H   H1660     1.0  0.54701  0.21667  0.72462  1.0000
  S   S378      1.0  0.86475  0.24864  0.74395  1.0000
  H   H1661     1.0  0.68334  0.22866  0.72211  1.0000
  H   H1662     1.0  0.51170  0.15641  0.73133  1.0000
  C   C1389     1.0  0.95244  0.01758  0.61120  1.0000
  C   C1390     1.0  0.91707  0.15361  0.53425  1.0000
  H   H1663     1.0  0.56453  0.17100  0.72885  1.0000
  C   C1391     1.0  0.86159  0.14514  0.73542  1.0000
  N   N97       1.0  0.70495  0.27270  0.50927  1.0000
  C   C1392     1.0  0.69593  0.29207  0.51525  1.0000
  Fe  Fe191     1.0  0.53097  0.29642  0.53560  1.0000
  C   C1393     1.0  0.51300  0.18735  0.73261  1.0000
  H   H1664     1.0  0.50099  0.26918  0.65248  1.0000
  H   H1665     1.0  0.94379  0.14850  0.57312  1.0000
  H   H1666     1.0  0.95452  0.08537  0.56029  1.0000
  C   C1394     1.0  0.64781  0.30477  0.56689  1.0000
  C   C1395     1.0  0.97491  0.04363  0.65236  1.0000
  C   C1396     1.0  0.69218  0.32765  0.58409  1.0000
  C   C1397     1.0  0.53931  0.31464  0.73655  1.0000
  H   H1667     1.0  0.65599  0.31484  0.57274  1.0000
  S   S379      1.0  0.81205  0.12623  0.50060  1.0000
  H   H1668     1.0  0.99505  0.15527  0.52394  1.0000
  C   C1398     1.0  0.98215  0.00033  0.59456  1.0000
  H   H1669     1.0  0.58172  0.29355  0.57344  1.0000
  C   C1399     1.0  0.73744  0.25023  0.70691  1.0000
  C   C1400     1.0  0.58333  0.29246  0.55725  1.0000
  C   C1401     1.0  0.88841  0.16564  0.72734  1.0000
  H   H1670     1.0  0.98409  0.09912  0.56559  1.0000
  S   S380      1.0  0.49777  0.30141  0.53564  1.0000
  H   H1671     1.0  0.73303  0.27786  0.51800  1.0000
  H   H1672     1.0  0.93022  0.02993  0.58050  1.0000
  H   H1673     1.0  0.61966  0.26882  0.54463  1.0000
  C   C1402     1.0  0.96017  0.11455  0.51693  1.0000
  H   H1674     1.0  0.50144  0.28158  0.61687  1.0000
  C   C1403     1.0  0.61785  0.29843  0.55351  1.0000
  C   C1404     1.0  0.59102  0.32572  0.54984  1.0000
  H   H1675     1.0  0.67130  0.28118  0.56796  1.0000
  H   H1676     1.0  0.56932  0.32652  0.70103  1.0000
  H   H1677     1.0  0.93193  0.03803  0.64113  1.0000
  H   H1678     1.0  0.61244  0.30969  0.51705  1.0000
  H   H1679     1.0  0.86531  0.11822  0.72151  1.0000
  S   S381      1.0  0.52917  0.28953  0.56885  1.0000
  H   H1680     1.0  0.93869  0.09496  0.52962  1.0000
  H   H1681     1.0  0.74625  0.27843  0.74144  1.0000
  H   H1682     1.0  0.98734  0.99939  0.67852  1.0000
  C   C1405     1.0  0.96578  0.01457  0.59404  1.0000
  C   C1406     1.0  0.55104  0.14444  0.74068  1.0000
  H   H1683     1.0  0.82877  0.17090  0.74528  1.0000
  C   C1407     1.0  0.98663  0.11781  0.53715  1.0000
  C   C1408     1.0  0.94299  0.05258  0.60417  1.0000
  H   H1684     1.0  0.68858  0.29051  0.53063  1.0000
  C   C1409     1.0  0.59930  0.30327  0.52518  1.0000
  C   C1410     1.0  0.69570  0.32074  0.56549  1.0000
  H   H1685     1.0  0.98763  0.15300  0.55013  1.0000
  H   H1686     1.0  0.96272  0.02843  0.67954  1.0000
  C   C1411     1.0  0.74661  0.26324  0.71587  1.0000
  H   H1687     1.0  0.89779  0.12436  0.70355  1.0000
  S   S382      1.0  0.59854  0.27224  0.74070  1.0000
  H   H1688     1.0  0.61206  0.27341  0.62103  1.0000
  H   H1689     1.0  0.69799  0.31885  0.59669  1.0000
  S   S383      1.0  0.82143  0.27379  0.73972  1.0000
  H   H1690     1.0  0.66368  0.29825  0.63139  1.0000
  C   C1412     1.0  0.53538  0.22922  0.72211  1.0000
  H   H1691     1.0  0.71429  0.23220  0.70877  1.0000
  H   H1692     1.0  0.67521  0.26161  0.73343  1.0000
  C   C1413     1.0  0.97431  0.02793  0.66736  1.0000
  C   C1414     1.0  0.62881  0.31107  0.56178  1.0000
  H   H1693     1.0  0.56079  0.30788  0.67628  1.0000
  H   H1694     1.0  0.69103  0.32757  0.53474  1.0000
  H   H1695     1.0  0.53558  0.23321  0.70587  1.0000
  H   H1696     1.0  0.95012  0.13752  0.55071  1.0000
  H   H1697     1.0  0.93831  0.17453  0.50900  1.0000
  H   H1698     1.0  0.50322  0.25385  0.73563  1.0000
  H   H1699     1.0  0.86968  0.20333  0.73375  1.0000
  H   H1700     1.0  0.91273  0.15432  0.70744  1.0000
  C   C1415     1.0  0.87178  0.13140  0.72338  1.0000
  H   H1701     1.0  0.53970  0.24209  0.72826  1.0000
  H   H1702     1.0  0.91716  0.01462  0.59951  1.0000
  C   C1416     1.0  0.86942  0.16288  0.73750  1.0000
  C   C1417     1.0  0.65742  0.24986  0.50752  1.0000
  C   C1418     1.0  0.97723  0.12277  0.51957  1.0000
  H   H1703     1.0  0.64961  0.22160  0.52122  1.0000
  C   C1419     1.0  0.69000  0.25848  0.51279  1.0000
  H   H1704     1.0  0.68470  0.29933  0.50561  1.0000
  C   C1420     1.0  0.72230  0.26026  0.74443  1.0000
  H   H1705     1.0  0.95307  0.11871  0.50349  1.0000
  S   S384      1.0  0.85831  0.30851  0.74492  1.0000
  C   C1421     1.0  0.73904  0.26827  0.73456  1.0000
  C   C1422     1.0  0.50592  0.20871  0.70298  1.0000
  H   H1706     1.0  0.98301  0.13313  0.50771  1.0000
  C   C1423     1.0  0.50271  0.19236  0.69402  1.0000
  H   H1707     1.0  0.49891  0.19436  0.67894  1.0000
  C   C1424     1.0  0.63743  0.32595  0.61105  1.0000
  H   H1708     1.0  0.50476  0.22285  0.69413  1.0000
  C   C1425     1.0  0.50482  0.17356  0.70418  1.0000
  H   H1709     1.0  0.55546  0.32384  0.64266  1.0000
  C   C1426     1.0  0.99017  0.04265  0.63669  1.0000
  H   H1710     1.0  0.99087  0.05467  0.62500  1.0000
  H   H1711     1.0  0.50285  0.16086  0.69701  1.0000
  H   H1712     1.0  0.65326  0.32473  0.61108  1.0000
  C   C1427     1.0  0.56286  0.32333  0.67235  1.0000
  C   C1428     1.0  0.51673  0.32685  0.61318  1.0000
  H   H1713     1.0  0.50160  0.24745  0.71180  1.0000
  H   H1714     1.0  0.99334  0.16093  0.64759  1.0000
  C   C1429     1.0  0.99483  0.14543  0.60436  1.0000
  C   C1430     1.0  0.99748  0.18676  0.62731  1.0000
  C   C1431     1.0  0.53761  0.14940  0.85556  1.0000
  C   C1432     1.0  0.58258  0.10573  0.82522  1.0000
  H   H1715     1.0  0.61224  0.14753  0.88375  1.0000
  S   S385      1.0  0.82311  0.22614  0.77782  1.0000
  Fe  Fe192     1.0  0.72253  0.25906  0.87619  1.0000
  S   S386      1.0  0.73172  0.22796  0.86847  1.0000
  S   S387      1.0  0.74577  0.27335  0.88968  1.0000
  Fe  Fe193     1.0  0.68312  0.26013  0.85833  1.0000
  S   S388      1.0  0.68934  0.22956  0.84978  1.0000
  S   S389      1.0  0.65395  0.27823  0.85456  1.0000
  Fe  Fe194     1.0  0.70044  0.22172  0.87952  1.0000
  S   S390      1.0  0.69008  0.19815  0.90371  1.0000
  Fe  Fe195     1.0  0.71978  0.23853  0.83933  1.0000
  S   S391      1.0  0.73160  0.23499  0.80746  1.0000
  S   S392      1.0  0.69212  0.25214  0.88898  1.0000
  S   S393      1.0  0.71267  0.26985  0.84620  1.0000
  Fe  Fe196     1.0  0.60504  0.07811  0.92873  1.0000
  S   S394      1.0  0.63586  0.06665  0.91726  1.0000
  S   S395      1.0  0.57653  0.07929  0.91464  1.0000
  Fe  Fe197     1.0  0.61943  0.09475  0.96281  1.0000
  S   S396      1.0  0.65104  0.08535  0.95319  1.0000
  H   H1716     1.0  0.52747  0.19335  0.98466  1.0000
  Fe  Fe198     1.0  0.64376  0.09642  0.92251  1.0000
  S   S397      1.0  0.66184  0.11405  0.89790  1.0000
  Fe  Fe199     1.0  0.64002  0.05669  0.94946  1.0000
  S   S398      1.0  0.65906  0.03113  0.96478  1.0000
  S   S399      1.0  0.61283  0.10818  0.93256  1.0000
  S   S400      1.0  0.60852  0.06591  0.96042  1.0000
  C   C1433     1.0  0.79252  0.30025  0.97093  1.0000
  S   S401      1.0  0.51001  0.05885  0.83260  1.0000
  C   C1434     1.0  0.71909  0.24709  0.95614  1.0000
  Fe  Fe200     1.0  0.52453  0.08993  0.78322  1.0000
  S   S402      1.0  0.53556  0.09445  0.81150  1.0000
  H   H1717     1.0  0.82448  0.32106  0.80719  1.0000
  Fe  Fe201     1.0  0.54025  0.06176  0.81733  1.0000
  S   S403      1.0  0.56717  0.04869  0.83256  1.0000
  H   H1718     1.0  0.59985  0.18519  0.94242  1.0000
  H   H1719     1.0  0.80028  0.29932  0.77019  1.0000
  S   S404      1.0  0.53148  0.05660  0.78774  1.0000
  H   H1720     1.0  0.58396  0.15272  0.80381  1.0000
  Fe  Fe202     1.0  0.59247  0.25351  0.76954  1.0000
  S   S405      1.0  0.56367  0.24596  0.76171  1.0000
  S   S406      1.0  0.58964  0.26373  0.80000  1.0000
  H   H1721     1.0  0.71693  0.26476  0.75884  1.0000
  C   C1435     1.0  0.51832  0.26819  0.81168  1.0000
  H   H1722     1.0  0.89703  0.29089  0.75701  1.0000
  C   C1436     1.0  0.99032  0.32195  0.89499  1.0000
  C   C1437     1.0  0.55957  0.22328  0.96415  1.0000
  C   C1438     1.0  0.52361  0.10846  0.92791  1.0000
  H   H1723     1.0  0.77117  0.27119  0.98244  1.0000
  C   C1439     1.0  0.69222  0.07123  0.91158  1.0000
  C   C1440     1.0  0.51969  0.13449  0.83404  1.0000
  C   C1441     1.0  0.53391  0.14669  0.83659  1.0000
  H   H1724     1.0  0.61941  0.14980  0.85765  1.0000
  H   H1725     1.0  0.51620  0.13314  0.81936  1.0000
  H   H1726     1.0  0.54124  0.15486  0.82399  1.0000
  H   H1727     1.0  0.57114  0.15825  0.96495  1.0000
  C   C1442     1.0  0.86755  0.19587  0.74909  1.0000
  H   H1728     1.0  0.50543  0.27246  0.85092  1.0000
  C   C1443     1.0  0.55068  0.15787  0.77738  1.0000
  C   C1444     1.0  0.54340  0.13991  0.77608  1.0000
  H   H1729     1.0  0.55039  0.16309  0.79163  1.0000
  H   H1730     1.0  0.53765  0.13150  0.78933  1.0000
  C   C1445     1.0  0.57473  0.07095  0.89154  1.0000
  C   C1446     1.0  0.58944  0.05787  0.88278  1.0000
  C   C1447     1.0  0.58700  0.05112  0.86470  1.0000
  C   C1448     1.0  0.56999  0.05757  0.85514  1.0000
  C   C1449     1.0  0.55553  0.07103  0.86370  1.0000
  C   C1450     1.0  0.55787  0.07759  0.88183  1.0000
  H   H1731     1.0  0.60251  0.05265  0.89007  1.0000
  H   H1732     1.0  0.59829  0.04079  0.85812  1.0000
  H   H1733     1.0  0.54246  0.07630  0.85641  1.0000
  H   H1734     1.0  0.54656  0.08799  0.88825  1.0000
  C   C1451     1.0  0.63721  0.27331  0.83855  1.0000
  C   C1452     1.0  0.64256  0.26149  0.82300  1.0000
  C   C1453     1.0  0.62833  0.25858  0.81056  1.0000
  C   C1454     1.0  0.60876  0.26720  0.81397  1.0000
  C   C1455     1.0  0.60357  0.27857  0.82974  1.0000
  C   C1456     1.0  0.61769  0.28177  0.84175  1.0000
  H   H1735     1.0  0.65762  0.25487  0.82042  1.0000
  H   H1736     1.0  0.63241  0.24958  0.79854  1.0000
  H   H1737     1.0  0.58855  0.28523  0.83256  1.0000
  H   H1738     1.0  0.61343  0.29090  0.85366  1.0000
  C   C1457     1.0  0.68133  0.17535  0.90129  1.0000
  C   C1458     1.0  0.68433  0.16685  0.88351  1.0000
  C   C1459     1.0  0.67805  0.14820  0.88263  1.0000
  C   C1460     1.0  0.66842  0.13801  0.89939  1.0000
  C   C1461     1.0  0.66489  0.14680  0.91698  1.0000
  C   C1462     1.0  0.67147  0.16526  0.91797  1.0000
  H   H1739     1.0  0.69189  0.17441  0.87056  1.0000
  H   H1740     1.0  0.68084  0.14157  0.86892  1.0000
  H   H1741     1.0  0.65758  0.13912  0.92997  1.0000
  H   H1742     1.0  0.66903  0.17169  0.93182  1.0000
  C   C1463     1.0  0.79774  0.22960  0.78615  1.0000
  C   C1464     1.0  0.79140  0.22538  0.80629  1.0000
  C   C1465     1.0  0.77116  0.22742  0.81314  1.0000
  C   C1466     1.0  0.75716  0.23323  0.79976  1.0000
  C   C1467     1.0  0.76354  0.23752  0.77963  1.0000
  C   C1468     1.0  0.78377  0.23599  0.77287  1.0000
  H   H1743     1.0  0.80216  0.22048  0.81665  1.0000
  H   H1744     1.0  0.76638  0.22408  0.82868  1.0000
  H   H1745     1.0  0.75278  0.24193  0.76922  1.0000
  H   H1746     1.0  0.78849  0.23921  0.75730  1.0000
  H   H1747     1.0  0.75110  0.32733  0.83201  1.0000
  C   C1469     1.0  0.59330  0.12610  0.84815  1.0000
  C   C1470     1.0  0.54137  0.27774  0.83206  1.0000
  C   C1471     1.0  0.55479  0.21168  0.95024  1.0000
  C   C1472     1.0  0.59131  0.14236  0.83330  1.0000
  C   C1473     1.0  0.50921  0.12494  0.85049  1.0000
  S   S407      1.0  0.66771  0.20817  0.98877  1.0000
  H   H1748     1.0  0.73106  0.29031  0.98360  1.0000
  C   C1474     1.0  0.96204  0.30927  0.96636  1.0000
  C   C1475     1.0  0.98142  0.30044  0.96407  1.0000
  C   C1476     1.0  0.61569  0.11209  0.87247  1.0000
  C   C1477     1.0  0.58849  0.10780  0.84358  1.0000
  H   H1749     1.0  0.56215  0.18858  0.99068  1.0000
  C   C1478     1.0  0.64524  0.12818  0.97486  1.0000
  C   C1479     1.0  0.66235  0.13730  0.97528  1.0000
  H   H1750     1.0  0.63890  0.12866  0.96111  1.0000
  H   H1751     1.0  0.66886  0.14521  0.96198  1.0000
  H   H1752     1.0  0.71443  0.29660  0.91304  1.0000
  H   H1753     1.0  0.51829  0.23398  0.75966  1.0000
  N   N98       1.0  0.81694  0.29546  0.79558  1.0000
  N   N99       1.0  0.59955  0.12780  0.86777  1.0000
  H   H1754     1.0  0.62804  0.11200  0.86034  1.0000
  H   H1755     1.0  0.54658  0.08004  0.94563  1.0000
  C   C1480     1.0  0.76412  0.29805  0.90850  1.0000
  H   H1756     1.0  0.61060  0.09716  0.87511  1.0000
  H   H1757     1.0  0.69104  0.05659  0.90674  1.0000
  H   H1758     1.0  0.95262  0.30592  0.97998  1.0000
  H   H1759     1.0  0.51998  0.02130  0.88839  1.0000
  C   C1481     1.0  0.83018  0.29290  0.98587  1.0000
  H   H1760     1.0  0.79699  0.31510  0.97184  1.0000
  C   C1482     1.0  0.98687  0.31847  0.93098  1.0000
  H   H1761     1.0  0.70295  0.07995  0.96502  1.0000
  C   C1483     1.0  0.74586  0.29218  0.90538  1.0000
  Fe  Fe203     1.0  0.58095  0.21934  0.74989  1.0000
  H   H1762     1.0  0.80030  0.32112  0.78218  1.0000
  C   C1484     1.0  0.84888  0.28953  0.99262  1.0000
  H   H1763     1.0  0.92120  0.30391  0.77497  1.0000
  H   H1764     1.0  0.53838  0.10535  0.91952  1.0000
  C   C1485     1.0  0.59357  0.20790  0.96201  1.0000
  C   C1486     1.0  0.54335  0.13305  0.75774  1.0000
  C   C1487     1.0  0.51318  0.12730  0.86949  1.0000
  C   C1488     1.0  0.90743  0.31275  0.77236  1.0000
  H   H1765     1.0  0.77759  0.29136  0.90103  1.0000
  N   N100      1.0  0.70719  0.07024  0.92569  1.0000
  N   N101      1.0  0.71348  0.23141  0.94558  1.0000
  C   C1489     1.0  0.72696  0.06483  0.91530  1.0000
  C   C1490     1.0  0.70295  0.05410  0.94157  1.0000
  C   C1491     1.0  0.70690  0.08964  0.93312  1.0000
  C   C1492     1.0  0.70928  0.10683  0.91969  1.0000
  C   C1493     1.0  0.70497  0.09202  0.95361  1.0000
  C   C1494     1.0  0.70956  0.12521  0.92633  1.0000
  H   H1766     1.0  0.52213  0.07393  0.95134  1.0000
  H   H1767     1.0  0.81821  0.26801  0.78288  1.0000
  C   C1495     1.0  0.65049  0.01116  0.98134  1.0000
  C   C1496     1.0  0.67047  0.13698  0.99306  1.0000
  H   H1768     1.0  0.57644  0.12020  0.79669  1.0000
  H   H1769     1.0  0.70760  0.21214  0.97250  1.0000
  C   C1497     1.0  0.66297  0.00088  0.99489  1.0000
  H   H1770     1.0  0.73870  0.06441  0.92527  1.0000
  H   H1771     1.0  0.70229  0.03987  0.93558  1.0000
  H   H1772     1.0  0.71447  0.05130  0.95197  1.0000
  H   H1773     1.0  0.68834  0.05746  0.95013  1.0000
  H   H1774     1.0  0.71066  0.10632  0.90390  1.0000
  H   H1775     1.0  0.78144  0.29515  0.85886  1.0000
  H   H1776     1.0  0.71088  0.13822  0.91578  1.0000
  C   C1498     1.0  0.55718  0.11368  0.95919  1.0000
  S   S408      1.0  0.53289  0.11096  0.75571  1.0000
  N   N102      1.0  0.62424  0.22397  0.89746  1.0000
  C   C1499     1.0  0.63454  0.20570  0.90702  1.0000
  C   C1500     1.0  0.63966  0.23648  0.88791  1.0000
  C   C1501     1.0  0.61225  0.23483  0.91296  1.0000
  C   C1502     1.0  0.61119  0.21895  0.88352  1.0000
  C   C1503     1.0  0.59625  0.20636  0.89026  1.0000
  C   C1504     1.0  0.61259  0.22643  0.86316  1.0000
  C   C1505     1.0  0.58366  0.20142  0.87749  1.0000
  C   C1506     1.0  0.59993  0.22136  0.85048  1.0000
  C   C1507     1.0  0.58557  0.20880  0.85761  1.0000
  H   H1777     1.0  0.64291  0.19661  0.89579  1.0000
  H   H1778     1.0  0.64529  0.20895  0.91684  1.0000
  H   H1779     1.0  0.62429  0.19643  0.91663  1.0000
  H   H1780     1.0  0.64944  0.23970  0.89868  1.0000
  H   H1781     1.0  0.63304  0.25103  0.88136  1.0000
  H   H1782     1.0  0.64942  0.22917  0.87617  1.0000
  H   H1783     1.0  0.60075  0.22621  0.92142  1.0000
  H   H1784     1.0  0.62151  0.23842  0.92405  1.0000
  H   H1785     1.0  0.60457  0.24885  0.90642  1.0000
  H   H1786     1.0  0.59413  0.20036  0.90556  1.0000
  H   H1787     1.0  0.62330  0.23626  0.85663  1.0000
  H   H1788     1.0  0.57226  0.19186  0.88303  1.0000
  H   H1789     1.0  0.60127  0.22728  0.83501  1.0000
  H   H1790     1.0  0.57586  0.20479  0.84774  1.0000
  H   H1791     1.0  0.82886  0.30313  0.97275  1.0000
  H   H1792     1.0  0.83338  0.26722  0.80235  1.0000
  C   C1508     1.0  0.51557  0.25900  0.84799  1.0000
  H   H1793     1.0  0.69638  0.24342  0.98125  1.0000
  C   C1509     1.0  0.51688  0.05186  0.89289  1.0000
  H   H1794     1.0  0.51820  0.12397  0.92304  1.0000
  Fe  Fe204     1.0  0.50017  0.05609  0.80292  1.0000
  H   H1795     1.0  0.68657  0.22205  0.77486  1.0000
  H   H1796     1.0  0.52394  0.25498  0.86109  1.0000
  H   H1797     1.0  0.54500  0.27159  0.79131  1.0000
  C   C1510     1.0  0.72965  0.31507  0.92827  1.0000
  H   H1798     1.0  0.84370  0.30985  0.79093  1.0000
  C   C1511     1.0  0.74792  0.32080  0.93153  1.0000
  H   H1799     1.0  0.50654  0.24669  0.84758  1.0000
  C   C1512     1.0  0.73925  0.27365  0.95872  1.0000
  C   C1513     1.0  0.78607  0.26867  0.98766  1.0000
  H   H1800     1.0  0.70150  0.24092  0.77654  1.0000
  H   H1801     1.0  0.84698  0.17972  0.78029  1.0000
  C   C1514     1.0  0.76842  0.27715  0.81903  1.0000
  H   H1802     1.0  0.58907  0.09492  0.85424  1.0000
  N   N103      1.0  0.52478  0.10513  0.94950  1.0000
  H   H1803     1.0  0.86989  0.16420  0.77635  1.0000
  C   C1515     1.0  0.51952  0.27725  0.77578  1.0000
  S   S409      1.0  0.52569  0.17150  0.91260  1.0000
  H   H1804     1.0  0.70357  0.11211  0.97573  1.0000
  C   C1516     1.0  0.51049  0.03510  0.88735  1.0000
  H   H1805     1.0  0.68195  0.26618  0.75686  1.0000
  C   C1517     1.0  0.67855  0.25450  0.74833  1.0000
  H   H1806     1.0  0.74118  0.22514  0.92764  1.0000
  C   C1518     1.0  0.73492  0.25844  0.94871  1.0000
  C   C1519     1.0  0.83145  0.30659  0.80271  1.0000
  C   C1520     1.0  0.56176  0.14745  0.96241  1.0000
  C   C1521     1.0  0.56937  0.19767  0.94273  1.0000
  C   C1522     1.0  0.80014  0.29099  0.81048  1.0000
  H   H1807     1.0  0.79615  0.26022  0.97697  1.0000
  S   S410      1.0  0.52328  0.21494  0.88542  1.0000
  C   C1523     1.0  0.96708  0.32733  0.93390  1.0000
  H   H1808     1.0  0.57898  0.09154  0.82216  1.0000
  H   H1809     1.0  0.80969  0.30320  0.83551  1.0000
  H   H1810     1.0  0.53124  0.05100  0.89821  1.0000
  H   H1811     1.0  0.75487  0.27871  0.84870  1.0000
  C   C1524     1.0  0.58256  0.12551  0.88306  1.0000
  H   H1812     1.0  0.98697  0.29024  0.97599  1.0000
  C   C1525     1.0  0.54255  0.15345  0.95799  1.0000
  C   C1526     1.0  0.87599  0.31666  0.75833  1.0000
  Fe  Fe205     1.0  0.50460  0.09120  0.82451  1.0000
  H   H1813     1.0  0.84056  0.27950  0.77828  1.0000
  C   C1527     1.0  0.80941  0.30745  0.77801  1.0000
  C   C1528     1.0  0.52906  0.27232  0.79290  1.0000
  H   H1814     1.0  0.55312  0.27989  0.81960  1.0000
  C   C1529     1.0  0.85535  0.16890  0.77064  1.0000
  H   H1815     1.0  0.72029  0.21788  0.91836  1.0000
  H   H1816     1.0  0.54842  0.23413  0.97011  1.0000
  H   H1817     1.0  0.58680  0.12548  0.89822  1.0000
  H   H1818     1.0  0.51599  0.14522  0.95013  1.0000
  H   H1819     1.0  0.57048  0.13755  0.88078  1.0000
  C   C1530     1.0  0.50491  0.06971  0.89131  1.0000
  H   H1820     1.0  0.54968  0.23833  0.84012  1.0000
  C   C1531     1.0  0.53241  0.08419  0.95456  1.0000
  H   H1821     1.0  0.51006  0.08285  0.89513  1.0000
  H   H1822     1.0  0.69544  0.08128  0.89791  1.0000
  C   C1532     1.0  0.51658  0.22036  0.75306  1.0000
  H   H1823     1.0  0.53305  0.23172  0.82423  1.0000
  C   C1533     1.0  0.71267  0.26706  0.98406  1.0000
  C   C1534     1.0  0.56901  0.12763  0.96313  1.0000
  C   C1535     1.0  0.54180  0.24360  0.82688  1.0000
  H   H1824     1.0  0.72797  0.05009  0.90986  1.0000
  H   H1825     1.0  0.59493  0.15942  0.86758  1.0000
  C   C1536     1.0  0.72858  0.30098  0.91517  1.0000
  H   H1826     1.0  0.62199  0.11408  0.88622  1.0000
  C   C1537     1.0  0.55845  0.16919  0.76051  1.0000
  H   H1827     1.0  0.59385  0.15705  0.83558  1.0000
  H   H1828     1.0  0.83861  0.29804  0.81527  1.0000
  C   C1538     1.0  0.72523  0.22944  0.92611  1.0000
  H   H1829     1.0  0.51332  0.09906  0.92324  1.0000
  C   C1539     1.0  0.69908  0.22973  0.76692  1.0000
  C   C1540     1.0  0.60686  0.14702  0.86915  1.0000
  H   H1830     1.0  0.53706  0.16898  0.95698  1.0000
  C   C1541     1.0  0.52755  0.13933  0.87200  1.0000
  H   H1831     1.0  0.57611  0.11158  0.88271  1.0000
  C   C1542     1.0  0.58111  0.12186  0.81089  1.0000
  H   H1832     1.0  0.52808  0.28002  0.76156  1.0000
  C   C1543     1.0  0.69241  0.23569  0.94196  1.0000
  H   H1833     1.0  0.50349  0.13357  0.78182  1.0000
  C   C1544     1.0  0.58542  0.14013  0.81493  1.0000
  Fe  Fe206     1.0  0.51834  0.20314  0.91769  1.0000
  H   H1834     1.0  0.72375  0.24343  0.91611  1.0000
  C   C1545     1.0  0.70533  0.11048  0.96006  1.0000
  C   C1546     1.0  0.71626  0.21214  0.95776  1.0000
  H   H1835     1.0  0.53464  0.08109  0.97048  1.0000
  H   H1836     1.0  0.59246  0.16886  0.98889  1.0000
  H   H1837     1.0  0.70732  0.14137  0.95162  1.0000
  H   H1838     1.0  0.58246  0.23129  0.97984  1.0000
  S   S411      1.0  0.68901  0.15200  0.99444  1.0000
  S   S412      1.0  0.53038  0.21506  0.94310  1.0000
  S   S413      1.0  0.55058  0.16888  0.85910  1.0000
  C   C1547     1.0  0.79856  0.29599  0.83018  1.0000
  C   C1548     1.0  0.70838  0.25161  0.97437  1.0000
  H   H1839     1.0  0.71151  0.20007  0.95053  1.0000
  H   H1840     1.0  0.53232  0.29219  0.83327  1.0000
  H   H1841     1.0  0.68779  0.22462  0.93337  1.0000
  H   H1842     1.0  0.82163  0.31200  0.76684  1.0000
  H   H1843     1.0  0.66466  0.24890  0.75583  1.0000
  H   H1844     1.0  0.56401  0.09868  0.95932  1.0000
  C   C1549     1.0  0.53052  0.13964  0.95423  1.0000
  H   H1845     1.0  0.75109  0.28237  0.95254  1.0000
  C   C1550     1.0  0.95488  0.32266  0.95129  1.0000
  C   C1551     1.0  0.53740  0.11928  0.95480  1.0000
  H   H1846     1.0  0.85849  0.20666  0.75823  1.0000
  H   H1847     1.0  0.77935  0.31647  0.92373  1.0000
  C   C1552     1.0  0.57883  0.22150  0.96993  1.0000
  S   S414      1.0  0.56723  0.19166  0.76392  1.0000
  H   H1848     1.0  0.80201  0.29357  0.95862  1.0000
  Fe  Fe207     1.0  0.52832  0.18305  0.88072  1.0000
  H   H1849     1.0  0.58405  0.12306  0.96641  1.0000
  C   C1553     1.0  0.63586  0.11926  0.99232  1.0000
  H   H1850     1.0  0.68223  0.23546  0.95581  1.0000
  C   C1554     1.0  0.82772  0.27679  0.78951  1.0000
  H   H1851     1.0  0.52940  0.20973  0.75698  1.0000
  H   H1852     1.0  0.67740  0.07670  0.91840  1.0000
  H   H1853     1.0  0.53020  0.14148  0.88672  1.0000
  C   C1555     1.0  0.78237  0.29152  0.84379  1.0000
  H   H1854     1.0  0.75671  0.26975  0.81484  1.0000
  C   C1556     1.0  0.58860  0.19577  0.94864  1.0000
  H   H1855     1.0  0.73053  0.07555  0.90222  1.0000
  H   H1856     1.0  0.56587  0.18848  0.93219  1.0000
  H   H1857     1.0  0.74163  0.31707  0.86737  1.0000
  H   H1858     1.0  0.71253  0.21890  0.76645  1.0000
  C   C1557     1.0  0.76517  0.31233  0.92138  1.0000
  C   C1558     1.0  0.63214  0.00457  0.98049  1.0000
  H   H1859     1.0  0.71620  0.32138  0.93614  1.0000
  H   H1860     1.0  0.78501  0.27646  0.79091  1.0000
  H   H1861     1.0  0.55343  0.24522  0.81417  1.0000
  S   S415      1.0  0.61445  0.10796  0.99151  1.0000
  H   H1862     1.0  0.68960  0.25048  0.93359  1.0000
  C   C1559     1.0  0.89371  0.30528  0.76217  1.0000
  H   H1863     1.0  0.54922  0.27396  0.84555  1.0000
  H   H1864     1.0  0.62242  0.01220  0.97006  1.0000
  C   C1560     1.0  0.78464  0.28123  0.80542  1.0000
  N   N104      1.0  0.52891  0.26225  0.82942  1.0000
  H   H1865     1.0  0.73201  0.20816  0.96036  1.0000
  C   C1561     1.0  0.99375  0.30492  0.94670  1.0000
  H   H1866     1.0  0.84699  0.15581  0.77262  1.0000
  C   C1562     1.0  0.76734  0.28221  0.83817  1.0000
  S   S416      1.0  0.60947  0.22603  0.75956  1.0000
  H   H1867     1.0  0.50099  0.16739  0.79123  1.0000
  H   H1868     1.0  0.74393  0.25620  0.93497  1.0000
  C   C1563     1.0  0.70753  0.12703  0.94647  1.0000
  S   S417      1.0  0.61887  0.20854  0.96506  1.0000
  H   H1869     1.0  0.86091  0.29724  0.98484  1.0000
  H   H1870     1.0  0.77716  0.30285  0.96667  1.0000
  H   H1871     1.0  0.88211  0.19297  0.75508  1.0000
  C   C1564     1.0  0.72801  0.27813  0.97620  1.0000
  H   H1872     1.0  0.50288  0.21458  0.76059  1.0000
  H   H1873     1.0  0.50495  0.10740  0.97618  1.0000
  C   C1565     1.0  0.50453  0.10805  0.95995  1.0000
  N   N105      1.0  0.79372  0.28746  0.98995  1.0000
  H   H1874     1.0  0.50491  0.12017  0.88224  1.0000
  Fe  Fe208     1.0  0.83297  0.24262  0.74850  1.0000
  H   H1875     1.0  0.82967  0.19531  0.75073  1.0000
  Fe  Fe209     1.0  0.63485  0.20580  0.99304  1.0000
  N   N106      1.0  0.85796  0.17754  0.74972  1.0000
  C   C1566     1.0  0.49904  0.27852  0.77688  1.0000
  H   H1876     1.0  0.98689  0.30653  0.89516  1.0000
  H   H1877     1.0  0.51753  0.18425  0.74731  1.0000
  H   H1878     1.0  0.54878  0.30693  0.74716  1.0000
  C   C1567     1.0  0.81395  0.28349  0.99606  1.0000
  H   H1879     1.0  0.67725  0.00575  0.99563  1.0000
  C   C1568     1.0  0.53224  0.18255  0.99655  1.0000
  N   N107      1.0  0.69497  0.23847  0.74671  1.0000
  H   H1880     1.0  0.84003  0.37843  0.00728  1.0000
  Fe  Fe210     1.0  0.82217  0.53086  0.06962  1.0000
  S   S418      1.0  0.79044  0.53056  0.06459  1.0000
  S   S419      1.0  0.84415  0.55124  0.05422  1.0000
  Fe  Fe211     1.0  0.82179  0.49387  0.09749  1.0000
  S   S420      1.0  0.79008  0.49001  0.09541  1.0000
  S   S421      1.0  0.84324  0.47455  0.11537  1.0000
  Fe  Fe212     1.0  0.79755  0.49780  0.06261  1.0000
  H   H1881     1.0  0.93872  0.62131  0.18181  1.0000
  Fe  Fe213     1.0  0.78513  0.52285  0.09763  1.0000
  S   S422      1.0  0.75809  0.53715  0.11551  1.0000
  S   S423      1.0  0.82967  0.49900  0.06485  1.0000
  S   S424      1.0  0.81624  0.52574  0.10258  1.0000
  C   C1569     1.0  0.95864  0.40507  0.09600  1.0000
  S   S425      1.0  0.75360  0.63440  0.20890  1.0000
  C   C1570     1.0  0.79680  0.35276  0.12235  1.0000
  S   S426      1.0  0.71286  0.61298  0.21615  1.0000
  Fe  Fe214     1.0  0.74554  0.60347  0.21008  1.0000
  S   S427      1.0  0.76510  0.58288  0.19000  1.0000
  Fe  Fe215     1.0  0.72145  0.64329  0.21779  1.0000
  C   C1571     1.0  0.74352  0.36454  0.15155  1.0000
  C   C1572     1.0  0.97874  0.64592  0.12939  1.0000
  S   S428      1.0  0.82724  0.40590  0.21871  1.0000
  Fe  Fe216     1.0  0.94498  0.49784  0.11715  1.0000
  S   S429      1.0  0.94722  0.50071  0.14873  1.0000
  S   S430      1.0  0.92145  0.51601  0.10132  1.0000
  Fe  Fe217     1.0  0.97977  0.46706  0.11425  1.0000
  S   S431      1.0  0.98525  0.46778  0.14608  1.0000
  C   C1573     1.0  0.94470  0.64493  0.20745  1.0000
  Fe  Fe218     1.0  0.95202  0.46773  0.15215  1.0000
  S   S432      1.0  0.93424  0.45134  0.17796  1.0000
  Fe  Fe219     1.0  0.97994  0.50115  0.13964  1.0000
  H   H1882     1.0  0.87925  0.37386  0.13201  1.0000
  S   S433      1.0  0.94736  0.46503  0.12090  1.0000
  S   S434      1.0  0.97691  0.50009  0.10749  1.0000
  C   C1574     1.0  0.98241  0.62537  0.13110  1.0000
  S   S435      1.0  0.79398  0.37421  0.22352  1.0000
  Fe  Fe220     1.0  0.83834  0.39486  0.18949  1.0000
  S   S436      1.0  0.80797  0.39683  0.17971  1.0000
  S   S437      1.0  0.86215  0.40529  0.16593  1.0000
  Fe  Fe221     1.0  0.79671  0.40528  0.21001  1.0000
  S   S438      1.0  0.77380  0.43181  0.21285  1.0000
  Fe  Fe222     1.0  0.80763  0.36572  0.19380  1.0000
  C   C1575     1.0  0.88714  0.35313  0.23878  1.0000
  S   S439      1.0  0.83884  0.36288  0.20140  1.0000
  C   C1576     1.0  0.69975  0.50002  0.05796  1.0000
  C   C1577     1.0  0.86148  0.43209  0.03917  1.0000
  C   C1578     1.0  0.88142  0.41891  0.16968  1.0000
  C   C1579     1.0  0.89426  0.42531  0.15328  1.0000
  C   C1580     1.0  0.91024  0.43554  0.15558  1.0000
  C   C1581     1.0  0.91370  0.43932  0.17437  1.0000
  C   C1582     1.0  0.90069  0.43309  0.19079  1.0000
  C   C1583     1.0  0.88451  0.42307  0.18845  1.0000
  H   H1883     1.0  0.89194  0.42216  0.13873  1.0000
  H   H1884     1.0  0.92014  0.44009  0.14285  1.0000
  H   H1885     1.0  0.90322  0.43599  0.20538  1.0000
  H   H1886     1.0  0.87462  0.41834  0.20114  1.0000
  C   C1584     1.0  0.98091  0.43016  0.08540  1.0000
  C   C1585     1.0  0.98236  0.42499  0.06605  1.0000
  C   C1586     1.0  0.97195  0.40991  0.06168  1.0000
  C   C1587     1.0  0.96027  0.39974  0.07673  1.0000
  C   C1588     1.0  0.96884  0.42027  0.10031  1.0000
  H   H1887     1.0  0.75460  0.39674  0.10193  1.0000
  H   H1888     1.0  0.97314  0.40600  0.04678  1.0000
  H   H1889     1.0  0.96783  0.42395  0.11531  1.0000
  C   C1589     1.0  0.79837  0.35475  0.14230  1.0000
  C   C1590     1.0  0.88713  0.33900  0.09070  1.0000
  H   H1890     1.0  0.80223  0.36837  0.14641  1.0000
  H   H1891     1.0  0.79942  0.36490  0.11112  1.0000
  C   C1591     1.0  0.71982  0.55122  0.23664  1.0000
  S   S440      1.0  0.87370  0.61557  0.09910  1.0000
  C   C1592     1.0  0.74931  0.42977  0.22401  1.0000
  C   C1593     1.0  0.88105  0.42378  0.03680  1.0000
  C   C1594     1.0  0.85761  0.62454  0.04307  1.0000
  C   C1595     1.0  0.78043  0.42698  0.03630  1.0000
  H   H1892     1.0  0.75456  0.51667  0.03935  1.0000
  Fe  Fe223     1.0  0.90251  0.62933  0.09378  1.0000
  C   C1596     1.0  0.70163  0.47232  0.03882  1.0000
  H   H1893     1.0  0.90654  0.60927  0.04026  1.0000
  C   C1597     1.0  0.86437  0.48703  0.11313  1.0000
  C   C1598     1.0  0.88002  0.47993  0.12427  1.0000
  C   C1599     1.0  0.89746  0.48917  0.12117  1.0000
  C   C1600     1.0  0.89923  0.50546  0.10690  1.0000
  C   C1601     1.0  0.88331  0.51300  0.09641  1.0000
  C   C1602     1.0  0.86598  0.50377  0.09949  1.0000
  H   H1894     1.0  0.87886  0.46710  0.13498  1.0000
  H   H1895     1.0  0.90942  0.48374  0.12992  1.0000
  H   H1896     1.0  0.88450  0.52571  0.08550  1.0000
  H   H1897     1.0  0.85422  0.50943  0.09067  1.0000
  C   C1603     1.0  0.76015  0.55016  0.13603  1.0000
  C   C1604     1.0  0.77816  0.54987  0.14376  1.0000
  C   C1605     1.0  0.77928  0.56002  0.16018  1.0000
  C   C1606     1.0  0.76250  0.57077  0.16907  1.0000
  C   C1607     1.0  0.74445  0.57114  0.16135  1.0000
  C   C1608     1.0  0.74329  0.56079  0.14500  1.0000
  H   H1898     1.0  0.79125  0.54177  0.13714  1.0000
  H   H1899     1.0  0.79330  0.55960  0.16601  1.0000
  H   H1900     1.0  0.73140  0.57934  0.16798  1.0000
  H   H1901     1.0  0.72926  0.56115  0.13920  1.0000
  H   H1902     1.0  0.72695  0.56713  0.20805  1.0000
  N   N108      1.0  0.89014  0.63477  0.02653  1.0000
  H   H1903     1.0  0.88567  0.41380  0.02562  1.0000
  C   C1609     1.0  0.86676  0.59611  0.08772  1.0000
  C   C1610     1.0  0.84777  0.59026  0.09310  1.0000
  C   C1611     1.0  0.84114  0.57562  0.08372  1.0000
  C   C1612     1.0  0.85330  0.56709  0.06849  1.0000
  C   C1613     1.0  0.87249  0.57257  0.06344  1.0000
  C   C1614     1.0  0.87936  0.58673  0.07332  1.0000
  H   H1904     1.0  0.82630  0.57158  0.08765  1.0000
  H   H1905     1.0  0.88200  0.56587  0.05177  1.0000
  H   H1906     1.0  0.89426  0.59050  0.06962  1.0000
  Fe  Fe224     1.0  0.94312  0.62903  0.10695  1.0000
  H   H1907     1.0  0.74143  0.46120  0.22159  1.0000
  H   H1908     1.0  0.77374  0.37857  0.17571  1.0000
  N   N109      1.0  0.90342  0.44762  0.07535  1.0000
  C   C1615     1.0  0.90411  0.46925  0.07220  1.0000
  C   C1616     1.0  0.89700  0.44182  0.09647  1.0000
  C   C1617     1.0  0.92391  0.43824  0.07110  1.0000
  C   C1618     1.0  0.88926  0.44193  0.06292  1.0000
  C   C1619     1.0  0.86914  0.45000  0.06503  1.0000
  C   C1620     1.0  0.89481  0.42849  0.04849  1.0000
  C   C1621     1.0  0.85553  0.44514  0.05328  1.0000
  C   C1622     1.0  0.78664  0.46145  0.02882  1.0000
  C   C1623     1.0  0.73285  0.51740  0.21805  1.0000
  H   H1909     1.0  0.88968  0.47751  0.07662  1.0000
  H   H1910     1.0  0.91493  0.47409  0.08102  1.0000
  H   H1911     1.0  0.90835  0.47429  0.05638  1.0000
  H   H1912     1.0  0.88202  0.44887  0.10121  1.0000
  H   H1913     1.0  0.90714  0.44617  0.10633  1.0000
  H   H1914     1.0  0.89655  0.42561  0.09948  1.0000
  H   H1915     1.0  0.93006  0.44241  0.05559  1.0000
  H   H1916     1.0  0.93416  0.44278  0.08074  1.0000
  H   H1917     1.0  0.92460  0.42192  0.07381  1.0000
  H   H1918     1.0  0.86378  0.46031  0.07570  1.0000
  H   H1919     1.0  0.90972  0.42154  0.04575  1.0000
  C   C1624     1.0  0.87655  0.38794  0.23753  1.0000
  C   C1625     1.0  0.99203  0.64434  0.18605  1.0000
  C   C1626     1.0  0.93294  0.39101  0.19536  1.0000
  N   N110      1.0  0.91343  0.56540  0.13156  1.0000
  C   C1627     1.0  0.93116  0.55220  0.13709  1.0000
  C   C1628     1.0  0.91634  0.57115  0.10996  1.0000
  C   C1629     1.0  0.91255  0.58331  0.14186  1.0000
  C   C1630     1.0  0.89472  0.55620  0.13644  1.0000
  C   C1631     1.0  0.87635  0.56743  0.13347  1.0000
  C   C1632     1.0  0.89413  0.53586  0.14311  1.0000
  C   C1633     1.0  0.85861  0.55885  0.13663  1.0000
  C   C1634     1.0  0.87627  0.52745  0.14632  1.0000
  C   C1635     1.0  0.85859  0.53886  0.14293  1.0000
  H   H1920     1.0  0.92969  0.54666  0.15308  1.0000
  H   H1921     1.0  0.93400  0.53941  0.12829  1.0000
  H   H1922     1.0  0.94486  0.55977  0.13414  1.0000
  H   H1923     1.0  0.90466  0.58265  0.10500  1.0000
  H   H1924     1.0  0.91590  0.55830  0.10164  1.0000
  H   H1925     1.0  0.93078  0.57708  0.10537  1.0000
  H   H1926     1.0  0.92682  0.58995  0.13915  1.0000
  H   H1927     1.0  0.90121  0.59513  0.13671  1.0000
  H   H1928     1.0  0.90914  0.57979  0.15808  1.0000
  H   H1929     1.0  0.87560  0.58285  0.12806  1.0000
  H   H1930     1.0  0.90733  0.52593  0.14515  1.0000
  H   H1931     1.0  0.84488  0.56768  0.13364  1.0000
  H   H1932     1.0  0.87624  0.51180  0.15068  1.0000
  H   H1933     1.0  0.84491  0.53212  0.14478  1.0000
  S   S441      1.0  0.94699  0.38070  0.07204  1.0000
  H   H1934     1.0  0.87651  0.65709  0.04519  1.0000
  N   N111      1.0  0.82261  0.36410  0.03220  1.0000
  S   S442      1.0  0.91281  0.63757  0.12121  1.0000
  H   H1935     1.0  0.75192  0.41156  0.13258  1.0000
  H   H1936     1.0  0.98280  0.63756  0.05233  1.0000
  H   H1937     1.0  0.90747  0.37654  0.10586  1.0000
  H   H1938     1.0  0.83797  0.59734  0.10433  1.0000
  C   C1636     1.0  0.71778  0.52839  0.07502  1.0000
  S   S443      1.0  0.79009  0.33235  0.09204  1.0000
  H   H1939     1.0  0.96492  0.60502  0.19309  1.0000
  H   H1940     1.0  0.70935  0.52066  0.08795  1.0000
  H   H1941     1.0  0.99169  0.43258  0.05447  1.0000
  N   N112      1.0  0.82797  0.47254  0.17673  1.0000
  C   C1637     1.0  0.83492  0.45390  0.16792  1.0000
  C   C1638     1.0  0.81377  0.46764  0.19426  1.0000
  C   C1639     1.0  0.81741  0.48611  0.16197  1.0000
  C   C1640     1.0  0.84415  0.48227  0.18261  1.0000
  C   C1641     1.0  0.83987  0.50016  0.19141  1.0000
  C   C1642     1.0  0.86439  0.47473  0.17952  1.0000
  C   C1643     1.0  0.85486  0.50968  0.19705  1.0000
  C   C1644     1.0  0.87926  0.48432  0.18530  1.0000
  H   H1942     1.0  0.85095  0.42856  0.02991  1.0000
  H   H1943     1.0  0.84246  0.44283  0.17853  1.0000
  H   H1944     1.0  0.82253  0.44691  0.16354  1.0000
  H   H1945     1.0  0.84523  0.45638  0.15427  1.0000
  H   H1946     1.0  0.80642  0.48090  0.20094  1.0000
  H   H1947     1.0  0.82127  0.45790  0.20595  1.0000
  H   H1948     1.0  0.80170  0.45975  0.19044  1.0000
  H   H1949     1.0  0.80905  0.49912  0.16837  1.0000
  H   H1950     1.0  0.82797  0.49176  0.14956  1.0000
  H   H1951     1.0  0.80657  0.47872  0.15544  1.0000
  H   H1952     1.0  0.82487  0.50695  0.19391  1.0000
  H   H1953     1.0  0.86921  0.46149  0.17254  1.0000
  C   C1645     1.0  0.72667  0.55276  0.21654  1.0000
  H   H1954     1.0  0.86669  0.38688  0.22606  1.0000
  C   C1646     1.0  0.78046  0.42492  0.01609  1.0000
  H   H1955     1.0  0.82178  0.32964  0.24266  1.0000
  H   H1956     1.0  0.82801  0.59248  0.03128  1.0000
  C   C1647     1.0  0.90003  0.35323  0.09090  1.0000
  H   H1957     1.0  0.88972  0.33007  0.07852  1.0000
  C   C1648     1.0  0.83372  0.37028  0.04719  1.0000
  C   C1649     1.0  0.82456  0.37569  0.06578  1.0000
  C   C1650     1.0  0.85438  0.37148  0.04318  1.0000
  C   C1651     1.0  0.83544  0.38230  0.07920  1.0000
  C   C1652     1.0  0.86509  0.37801  0.05674  1.0000
  C   C1653     1.0  0.85562  0.38354  0.07464  1.0000
  C   C1654     1.0  0.72063  0.50012  0.05506  1.0000
  C   C1655     1.0  0.72617  0.51568  0.23823  1.0000
  H   H1958     1.0  0.75444  0.36563  0.18907  1.0000
  C   C1656     1.0  0.78673  0.45934  0.00864  1.0000
  H   H1959     1.0  0.94593  0.39892  0.19365  1.0000
  C   C1657     1.0  0.89837  0.37264  0.19926  1.0000
  C   C1658     1.0  0.99324  0.65733  0.13300  1.0000
  H   H1960     1.0  0.73263  0.53325  0.03603  1.0000
  C   C1659     1.0  0.89729  0.36562  0.10581  1.0000
  H   H1961     1.0  0.96457  0.65305  0.12585  1.0000
  H   H1962     1.0  0.86238  0.36770  0.02933  1.0000
  H   H1963     1.0  0.82814  0.38660  0.09319  1.0000
  H   H1964     1.0  0.88080  0.37905  0.05321  1.0000
  H   H1965     1.0  0.86393  0.38889  0.08497  1.0000
  N   N113      1.0  0.74477  0.39273  0.17138  1.0000
  C   C1660     1.0  0.75882  0.38061  0.18396  1.0000
  C   C1661     1.0  0.74961  0.41341  0.16959  1.0000
  C   C1662     1.0  0.72449  0.39219  0.18157  1.0000
  C   C1663     1.0  0.74600  0.38465  0.15215  1.0000
  C   C1664     1.0  0.74985  0.39616  0.13368  1.0000
  C   C1665     1.0  0.92574  0.38620  0.17865  1.0000
  H   H1966     1.0  0.84640  0.34337  0.02097  1.0000
  C   C1666     1.0  0.86863  0.34964  0.12062  1.0000
  H   H1967     1.0  0.82976  0.33315  0.04078  1.0000
  H   H1968     1.0  0.55592  0.56017  0.24505  1.0000
  H   H1969     1.0  0.74387  0.34082  0.13360  1.0000
  H   H1970     1.0  0.99197  0.56206  0.08454  1.0000
  H   H1971     1.0  0.76489  0.41479  0.16239  1.0000
  H   H1972     1.0  0.74890  0.41890  0.18433  1.0000
  H   H1973     1.0  0.73895  0.42369  0.16127  1.0000
  H   H1974     1.0  0.72295  0.39844  0.19600  1.0000
  H   H1975     1.0  0.71344  0.40088  0.17242  1.0000
  C   C1667     1.0  0.80610  0.62580  0.19283  1.0000
  H   H1976     1.0  0.79849  0.35288  0.05193  1.0000
  C   C1668     1.0  0.85431  0.60101  0.01353  1.0000
  C   C1669     1.0  0.79468  0.33912  0.15689  1.0000
  H   H1977     1.0  0.73731  0.49363  0.08868  1.0000
  H   H1978     1.0  0.70638  0.45910  0.23527  1.0000
  H   H1979     1.0  0.94957  0.39732  0.10770  1.0000
  H   H1980     1.0  0.78336  0.44639  0.05821  1.0000
  C   C1670     1.0  0.74240  0.41142  0.22995  1.0000
  H   H1981     1.0  0.91594  0.64363  0.00776  1.0000
  H   H1982     1.0  0.80715  0.64422  0.21524  1.0000
  H   H1983     1.0  0.84032  0.45178  0.05496  1.0000
  H   H1984     1.0  0.76026  0.38744  0.19750  1.0000
  S   S444      1.0  0.93278  0.61760  0.08113  1.0000
  C   C1671     1.0  0.69049  0.48627  0.04989  1.0000
  H   H1985     1.0  0.82261  0.33897  0.01615  1.0000
  C   C1672     1.0  0.79180  0.33508  0.11697  1.0000
  S   S445      1.0  0.92057  0.36161  0.03402  1.0000
  H   H1986     1.0  0.88613  0.50910  0.19844  1.0000
  C   C1673     1.0  0.57873  0.53544  0.24576  1.0000
  H   H1987     1.0  0.94312  0.62962  0.21431  1.0000
  Fe  Fe225     1.0  0.75579  0.62785  0.24130  1.0000
  C   C1674     1.0  0.94265  0.63595  0.17492  1.0000
  C   C1675     1.0  0.83072  0.34405  0.02739  1.0000
  C   C1676     1.0  0.75140  0.38782  0.11586  1.0000
  C   C1677     1.0  0.99607  0.60323  0.19190  1.0000
  S   S446      1.0  0.96514  0.61086  0.12505  1.0000
  H   H1988     1.0  0.93314  0.39029  0.16411  1.0000
  H   H1989     1.0  0.83565  0.34038  0.09148  1.0000
  C   C1678     1.0  0.92306  0.38649  0.21414  1.0000
  H   H1990     1.0  0.85122  0.52335  0.20371  1.0000
  H   H1991     1.0  0.73770  0.50431  0.21070  1.0000
  H   H1992     1.0  0.69024  0.51037  0.06638  1.0000
  C   C1679     1.0  0.97231  0.64881  0.02439  1.0000
  H   H1993     1.0  0.67455  0.48642  0.05225  1.0000
  H   H1994     1.0  0.89346  0.62546  0.05723  1.0000
  H   H1995     1.0  0.83070  0.61357  0.05724  1.0000
  C   C1680     1.0  0.74505  0.50331  0.07680  1.0000
  H   H1996     1.0  0.79388  0.37842  0.04178  1.0000
  C   C1681     1.0  0.90852  0.37699  0.18060  1.0000
  C   C1682     1.0  0.72244  0.41027  0.23721  1.0000
  H   H1997     1.0  0.67633  0.65256  0.22790  1.0000
  H   H1998     1.0  0.85441  0.65861  0.20682  1.0000
  Fe  Fe226     1.0  0.94851  0.37179  0.04117  1.0000
  Fe  Fe227     1.0  0.82530  0.37383  0.23003  1.0000
  H   H1999     1.0  0.73867  0.53724  0.19170  1.0000
  N   N114      1.0  0.89401  0.37308  0.23623  1.0000
  H   H2000     1.0  0.81618  0.37406  0.00237  1.0000
  H   H2001     1.0  0.92832  0.64489  0.17271  1.0000
  H   H2002     1.0  0.79733  0.61573  0.20260  1.0000
  C   C1683     1.0  0.90550  0.37693  0.21668  1.0000
  C   C1684     1.0  0.84154  0.61360  0.04434  1.0000
  Fe  Fe228     1.0  0.93537  0.64847  0.06648  1.0000
  C   C1685     1.0  0.98682  0.64069  0.03662  1.0000
  H   H2003     1.0  0.87556  0.35189  0.22913  1.0000
  H   H2004     1.0  0.69441  0.46170  0.03261  1.0000
  H   H2005     1.0  0.91551  0.63216  0.04264  1.0000
  H   H2006     1.0  0.92925  0.39110  0.22633  1.0000
  H   H2007     1.0  0.88107  0.61055  0.99923  1.0000
  H   H2008     1.0  0.79321  0.35925  0.02689  1.0000
  N   N115      1.0  0.95468  0.64532  0.18704  1.0000
  C   C1686     1.0  0.73145  0.48573  0.04365  1.0000
  C   C1687     1.0  0.73624  0.44694  0.22614  1.0000
  H   H2009     1.0  0.72626  0.53862  0.08126  1.0000
  C   C1688     1.0  0.72208  0.47205  0.03571  1.0000
  H   H2010     1.0  0.82667  0.63257  0.14534  1.0000
  H   H2011     1.0  0.74069  0.35483  0.16496  1.0000
  H   H2012     1.0  0.75250  0.51349  0.08413  1.0000
  H   H2013     1.0  0.72027  0.37693  0.18476  1.0000
  H   H2014     1.0  0.95059  0.63405  0.16005  1.0000
  C   C1689     1.0  0.82451  0.37806  0.01397  1.0000
  C   C1690     1.0  0.73329  0.53590  0.20728  1.0000
  C   C1691     1.0  0.87451  0.50171  0.19409  1.0000
  C   C1692     1.0  0.87131  0.33638  0.10587  1.0000
  Fe  Fe229     1.0  0.92678  0.37900  0.00470  1.0000
  H   H2015     1.0  0.81859  0.39335  0.01695  1.0000
  H   H2016     1.0  0.88450  0.36657  0.19976  1.0000
  S   S447      1.0  0.77482  0.40220  0.00903  1.0000
  H   H2017     1.0  0.54919  0.65363  0.22621  1.0000
  C   C1693     1.0  0.78395  0.44118  0.00228  1.0000
  C   C1694     1.0  0.71637  0.44580  0.23393  1.0000
  C   C1695     1.0  0.82256  0.63533  0.16062  1.0000
  H   H2018     1.0  0.89962  0.34160  0.23576  1.0000
  C   C1696     1.0  0.88150  0.36399  0.12052  1.0000
  S   S448      1.0  0.74945  0.59634  0.24249  1.0000
  C   C1697     1.0  0.97730  0.61362  0.19105  1.0000
  S   S449      1.0  0.79576  0.34072  0.18217  1.0000
  Fe  Fe230     1.0  0.94024  0.33767  0.02023  1.0000
  H   H2019     1.0  0.80899  0.37503  0.07030  1.0000
  N   N116      1.0  0.73108  0.51426  0.06343  1.0000
  S   S450      1.0  0.78838  0.48532  0.03588  1.0000
  C   C1698     1.0  0.80117  0.36361  0.03862  1.0000
  H   H2020     1.0  0.70729  0.53776  0.06572  1.0000
  H   H2021     1.0  0.85675  0.34922  0.13247  1.0000
  C   C1699     1.0  0.81179  0.64224  0.19990  1.0000
  H   H2022     1.0  0.89462  0.47828  0.18278  1.0000
  H   H2023     1.0  0.75087  0.36142  0.10206  1.0000
  H   H2024     1.0  0.75695  0.49389  0.06884  1.0000
  C   C1700     1.0  0.74915  0.36797  0.11586  1.0000
  H   H2025     1.0  0.77757  0.41461  0.04718  1.0000
  S   S451      1.0  0.96831  0.34627  0.02954  1.0000
  C   C1701     1.0  0.90190  0.62500  0.04237  1.0000
  C   C1702     1.0  0.78372  0.44502  0.04263  1.0000
  H   H2026     1.0  0.99145  0.35500  0.08682  1.0000
  S   S452      1.0  0.94718  0.65430  0.03393  1.0000
  C   C1703     1.0  0.87252  0.62421  0.02679  1.0000
  C   C1704     1.0  0.74518  0.35638  0.13367  1.0000
  H   H2027     1.0  0.74948  0.53754  0.05282  1.0000
  H   H2028     1.0  0.74733  0.48493  0.04076  1.0000
  H   H2029     1.0  0.91234  0.35463  0.07945  1.0000
  H   H2030     1.0  0.85869  0.63249  0.05549  1.0000
  C   C1705     1.0  0.97471  0.63453  0.18762  1.0000
  C   C1706     1.0  0.74237  0.52591  0.04721  1.0000
  H   H2031     1.0  0.99605  0.58531  0.07098  1.0000
  S   S453      1.0  0.95275  0.39160  0.01296  1.0000
  H   H2032     1.0  0.90246  0.37407  0.16749  1.0000
  H   H2033     1.0  0.75238  0.39812  0.22891  1.0000
  C   C1707     1.0  0.83999  0.60171  0.02971  1.0000
  H   H2034     1.0  0.88096  0.40317  0.23539  1.0000
  S   S454      1.0  0.99059  0.52887  0.14899  1.0000
  C   C1708     1.0  0.88421  0.65562  0.03016  1.0000
  H   H2035     1.0  0.73082  0.46120  0.02709  1.0000
  H   H2036     1.0  0.80656  0.60978  0.16777  1.0000
  C   C1709     1.0  0.87035  0.61211  0.01195  1.0000
  Fe  Fe231     1.0  0.97071  0.36542  0.00028  1.0000
  H   H2037     1.0  0.85472  0.32941  0.07467  1.0000
  H   H2038     1.0  0.58625  0.54037  0.23156  1.0000
  S   S455      1.0  0.99508  0.44815  0.09093  1.0000
  C   C1710     1.0  0.70932  0.42742  0.23923  1.0000
  H   H2039     1.0  0.89963  0.35510  0.00110  1.0000
  C   C1711     1.0  0.81134  0.62241  0.17320  1.0000
  H   H2040     1.0  0.83394  0.33105  0.12658  1.0000
  C   C1712     1.0  0.90323  0.63493  0.00760  1.0000
  C   C1713     1.0  0.97791  0.65297  0.00401  1.0000
  C   C1714     1.0  0.82833  0.65187  0.16753  1.0000
  H   H2041     1.0  0.83265  0.65838  0.22417  1.0000
  C   C1715     1.0  0.82293  0.65592  0.18745  1.0000
  H   H2042     1.0  0.71451  0.56476  0.24299  1.0000
  H   H2043     1.0  0.92964  0.65315  0.20787  1.0000
  H   H2044     1.0  0.78883  0.47192  0.99779  1.0000
  H   H2045     1.0  0.83689  0.66128  0.15694  1.0000
  H   H2046     1.0  0.72608  0.50089  0.24560  1.0000
  H   H2047     1.0  0.71713  0.39601  0.24139  1.0000
  H   H2048     1.0  0.90999  0.61986  0.00480  1.0000
  H   H2049     1.0  0.95326  0.65181  0.21707  1.0000
  S   S456      1.0  0.90404  0.65956  0.07746  1.0000
  S   S457      1.0  0.94771  0.65911  0.09157  1.0000
  H   H2050     1.0  0.85319  0.59135  0.00245  1.0000
  S   S458      1.0  0.60817  0.50435  0.24631  1.0000
  H   H2051     1.0  0.99172  0.66016  0.18343  1.0000
  C   C1716     1.0  0.66217  0.39706  0.29299  1.0000
  S   S459      1.0  0.52293  0.63853  0.38415  1.0000
  Fe  Fe232     1.0  0.62496  0.58863  0.40234  1.0000
  S   S460      1.0  0.65549  0.57983  0.41132  1.0000
  S   S461      1.0  0.61090  0.61962  0.40531  1.0000
  Fe  Fe233     1.0  0.62372  0.54988  0.38726  1.0000
  S   S462      1.0  0.65395  0.53795  0.39491  1.0000
  S   S463      1.0  0.60919  0.52957  0.37222  1.0000
  Fe  Fe234     1.0  0.64444  0.55065  0.42345  1.0000
  S   S464      1.0  0.65223  0.53500  0.45331  1.0000
  Fe  Fe235     1.0  0.66214  0.56779  0.38188  1.0000
  S   S465      1.0  0.69095  0.57225  0.36253  1.0000
  S   S466      1.0  0.61326  0.56053  0.41673  1.0000
  S   S467      1.0  0.63242  0.57878  0.37212  1.0000
  H   H2052     1.0  0.69168  0.63495  0.29228  1.0000
  H   H2053     1.0  0.67288  0.61916  0.31685  1.0000
  H   H2054     1.0  0.70596  0.55090  0.42607  1.0000
  Fe  Fe236     1.0  0.65800  0.47865  0.29206  1.0000
  H   H2055     1.0  0.66106  0.61151  0.35158  1.0000
  S   S468      1.0  0.67391  0.49734  0.30795  1.0000
  Fe  Fe237     1.0  0.63108  0.44650  0.29704  1.0000
  S   S469      1.0  0.63055  0.44743  0.26421  1.0000
  S   S470      1.0  0.61518  0.42369  0.31757  1.0000
  Fe  Fe238     1.0  0.66347  0.44855  0.26246  1.0000
  Fe  Fe239     1.0  0.62734  0.48059  0.26380  1.0000
  C   C1717     1.0  0.71611  0.51125  0.28005  1.0000
  S   S471      1.0  0.66392  0.44590  0.29533  1.0000
  S   S472      1.0  0.62497  0.47939  0.29667  1.0000
  C   C1718     1.0  0.69171  0.53829  0.27256  1.0000
  S   S473      1.0  0.66134  0.37658  0.38654  1.0000
  C   C1719     1.0  0.60775  0.38074  0.45218  1.0000
  H   H2056     1.0  0.60786  0.53825  0.46307  1.0000
  H   H2057     1.0  0.55946  0.33455  0.46123  1.0000
  H   H2058     1.0  0.65446  0.40342  0.30629  1.0000
  N   N117      1.0  0.65466  0.37836  0.29020  1.0000
  C   C1720     1.0  0.65817  0.36247  0.30643  1.0000
  H   H2059     1.0  0.73679  0.50640  0.40892  1.0000
  H   H2060     1.0  0.66311  0.38459  0.25888  1.0000
  C   C1721     1.0  0.69898  0.51160  0.40286  1.0000
  H   H2061     1.0  0.64021  0.63858  0.28100  1.0000
  H   H2062     1.0  0.66922  0.37990  0.32679  1.0000
  S   S474      1.0  0.52460  0.65145  0.29401  1.0000
  H   H2063     1.0  0.62041  0.42855  0.44956  1.0000
  H   H2064     1.0  0.67311  0.35343  0.35307  1.0000
  H   H2065     1.0  0.65560  0.51222  0.49099  1.0000
  H   H2066     1.0  0.63702  0.46811  0.44610  1.0000
  H   H2067     1.0  0.73185  0.50500  0.27807  1.0000
  S   S475      1.0  0.63796  0.34253  0.43143  1.0000
  C   C1722     1.0  0.63436  0.42235  0.44143  1.0000
  H   H2068     1.0  0.66929  0.39838  0.44097  1.0000
  H   H2069     1.0  0.65951  0.40857  0.28043  1.0000
  H   H2070     1.0  0.87998  0.34930  0.25402  1.0000
  H   H2071     1.0  0.74026  0.54003  0.27701  1.0000
  C   C1723     1.0  0.57632  0.51159  0.27464  1.0000
  C   C1724     1.0  0.55892  0.52264  0.28206  1.0000
  C   C1725     1.0  0.55147  0.54031  0.27157  1.0000
  C   C1726     1.0  0.50137  0.54994  0.33569  1.0000
  H   H2072     1.0  0.70980  0.52961  0.37612  1.0000
  H   H2073     1.0  0.68063  0.36809  0.27192  1.0000
  H   H2074     1.0  0.71176  0.51102  0.29625  1.0000
  S   S476      1.0  0.69315  0.59438  0.26933  1.0000
  H   H2075     1.0  0.51549  0.34402  0.48579  1.0000
  H   H2076     1.0  0.86751  0.38599  0.25211  1.0000
  H   H2077     1.0  0.60857  0.37837  0.46791  1.0000
  H   H2078     1.0  0.84294  0.33890  0.29687  1.0000
  C   C1727     1.0  0.62735  0.41120  0.33750  1.0000
  C   C1728     1.0  0.64365  0.41835  0.34351  1.0000
  C   C1729     1.0  0.65377  0.40766  0.35870  1.0000
  C   C1730     1.0  0.64777  0.38970  0.36794  1.0000
  C   C1731     1.0  0.63140  0.38256  0.36206  1.0000
  C   C1732     1.0  0.62116  0.39336  0.34695  1.0000
  H   H2079     1.0  0.64840  0.43220  0.33653  1.0000
  H   H2080     1.0  0.66639  0.41329  0.36321  1.0000
  H   H2081     1.0  0.62671  0.36870  0.36906  1.0000
  H   H2082     1.0  0.60857  0.38773  0.34237  1.0000
  C   C1733     1.0  0.64855  0.51009  0.46160  1.0000
  C   C1734     1.0  0.64325  0.49752  0.44905  1.0000
  C   C1735     1.0  0.64094  0.47770  0.45602  1.0000
  C   C1736     1.0  0.83258  0.33668  0.26885  1.0000
  C   C1737     1.0  0.60101  0.52514  0.46937  1.0000
  C   C1738     1.0  0.65134  0.50264  0.48122  1.0000
  H   H2083     1.0  0.64103  0.50303  0.43392  1.0000
  H   H2084     1.0  0.62666  0.36984  0.28455  1.0000
  H   H2085     1.0  0.73739  0.52796  0.42124  1.0000
  C   C1739     1.0  0.64876  0.48288  0.48829  1.0000
  C   C1740     1.0  0.62826  0.51934  0.35602  1.0000
  C   C1741     1.0  0.64444  0.52982  0.34908  1.0000
  C   C1742     1.0  0.65890  0.52272  0.33477  1.0000
  C   C1743     1.0  0.65747  0.50482  0.32776  1.0000
  C   C1744     1.0  0.64211  0.49361  0.33574  1.0000
  C   C1745     1.0  0.62724  0.50107  0.34955  1.0000
  H   H2086     1.0  0.64539  0.54389  0.35403  1.0000
  H   H2087     1.0  0.67083  0.53137  0.32876  1.0000
  H   H2088     1.0  0.64167  0.47918  0.33127  1.0000
  H   H2089     1.0  0.61502  0.49267  0.35523  1.0000
  C   C1746     1.0  0.69145  0.57818  0.33658  1.0000
  C   C1747     1.0  0.70836  0.58526  0.32572  1.0000
  C   C1748     1.0  0.70916  0.59030  0.30511  1.0000
  C   C1749     1.0  0.69313  0.58798  0.29513  1.0000
  C   C1750     1.0  0.67635  0.58059  0.30592  1.0000
  C   C1751     1.0  0.67542  0.57589  0.32655  1.0000
  H   H2090     1.0  0.72084  0.58707  0.33334  1.0000
  H   H2091     1.0  0.72219  0.59595  0.29698  1.0000
  H   H2092     1.0  0.66390  0.57866  0.29831  1.0000
  H   H2093     1.0  0.66235  0.57041  0.33469  1.0000
  H   H2094     1.0  0.65768  0.39850  0.41918  1.0000
  H   H2095     1.0  0.70074  0.55064  0.40114  1.0000
  C   C1752     1.0  0.68105  0.49314  0.37580  1.0000
  C   C1753     1.0  0.59325  0.37165  0.44512  1.0000
  C   C1754     1.0  0.78565  0.66075  0.25342  1.0000
  C   C1755     1.0  0.57875  0.65288  0.34642  1.0000
  H   H2096     1.0  0.73293  0.53071  0.39606  1.0000
  H   H2097     1.0  0.63366  0.42710  0.42543  1.0000
  H   H2098     1.0  0.67394  0.48636  0.36547  1.0000
  C   C1756     1.0  0.54662  0.63303  0.39205  1.0000
  C   C1757     1.0  0.55668  0.61429  0.39002  1.0000
  C   C1758     1.0  0.57635  0.60995  0.39428  1.0000
  C   C1759     1.0  0.58599  0.62435  0.40076  1.0000
  C   C1760     1.0  0.57581  0.64299  0.40320  1.0000
  C   C1761     1.0  0.55611  0.64730  0.39898  1.0000
  H   H2099     1.0  0.54923  0.60314  0.38502  1.0000
  H   H2100     1.0  0.58406  0.59550  0.39252  1.0000
  H   H2101     1.0  0.58318  0.65410  0.40842  1.0000
  H   H2102     1.0  0.89696  0.36995  0.26754  1.0000
  H   H2103     1.0  0.58183  0.49804  0.28290  1.0000
  H   H2104     1.0  0.67835  0.39512  0.29407  1.0000
  H   H2105     1.0  0.51811  0.35346  0.46018  1.0000
  H   H2106     1.0  0.58293  0.65288  0.30402  1.0000
  H   H2107     1.0  0.72127  0.56003  0.27397  1.0000
  C   C1762     1.0  0.60186  0.51830  0.48934  1.0000
  H   H2108     1.0  0.64689  0.33985  0.29251  1.0000
  S   S477      1.0  0.78293  0.63563  0.25306  1.0000
  C   C1763     1.0  0.66222  0.62983  0.32366  1.0000
  H   H2109     1.0  0.68318  0.54321  0.42133  1.0000
  H   H2110     1.0  0.58392  0.36247  0.45526  1.0000
  C   C1764     1.0  0.66790  0.35050  0.33950  1.0000
  S   S478      1.0  0.72431  0.63900  0.25027  1.0000
  C   C1765     1.0  0.68489  0.65043  0.28946  1.0000
  C   C1766     1.0  0.65658  0.63766  0.28007  1.0000
  C   C1767     1.0  0.70156  0.51741  0.38219  1.0000
  C   C1768     1.0  0.65652  0.39329  0.43521  1.0000
  Fe  Fe240     1.0  0.51227  0.62585  0.28535  1.0000
  H   H2111     1.0  0.64664  0.42944  0.44590  1.0000
  C   C1769     1.0  0.63312  0.38252  0.28885  1.0000
  H   H2112     1.0  0.59181  0.52009  0.44173  1.0000
  H   H2113     1.0  0.62512  0.38607  0.30332  1.0000
  C   C1770     1.0  0.62105  0.39180  0.43906  1.0000
  N   N118      1.0  0.59984  0.55275  0.30803  1.0000
  C   C1771     1.0  0.61893  0.55644  0.31420  1.0000
  C   C1772     1.0  0.59433  0.53356  0.31813  1.0000
  C   C1773     1.0  0.60311  0.55100  0.28649  1.0000
  C   C1774     1.0  0.58429  0.56864  0.31354  1.0000
  C   C1775     1.0  0.57274  0.58029  0.29960  1.0000
  C   C1776     1.0  0.58017  0.57273  0.33353  1.0000
  C   C1777     1.0  0.55834  0.59531  0.30538  1.0000
  C   C1778     1.0  0.56573  0.58776  0.33911  1.0000
  C   C1779     1.0  0.55483  0.59904  0.32507  1.0000
  H   H2114     1.0  0.61831  0.55641  0.33045  1.0000
  H   H2115     1.0  0.63100  0.54485  0.31002  1.0000
  H   H2116     1.0  0.62339  0.57094  0.30729  1.0000
  H   H2117     1.0  0.59303  0.53307  0.33448  1.0000
  H   H2118     1.0  0.60553  0.52113  0.31417  1.0000
  H   H2119     1.0  0.57989  0.53041  0.31409  1.0000
  H   H2120     1.0  0.60785  0.56473  0.27790  1.0000
  H   H2121     1.0  0.61467  0.53874  0.28285  1.0000
  H   H2122     1.0  0.58956  0.54756  0.28094  1.0000
  H   H2123     1.0  0.57427  0.57791  0.28419  1.0000
  H   H2124     1.0  0.58795  0.56415  0.34508  1.0000
  H   H2125     1.0  0.54961  0.60392  0.29455  1.0000
  H   H2126     1.0  0.56284  0.59049  0.35448  1.0000
  H   H2127     1.0  0.54343  0.61051  0.32950  1.0000
  C   C1780     1.0  0.70581  0.51266  0.43742  1.0000
  C   C1781     1.0  0.68676  0.49624  0.40941  1.0000
  C   C1782     1.0  0.67796  0.48724  0.39599  1.0000
  H   H2128     1.0  0.68999  0.51356  0.44358  1.0000
  H   H2129     1.0  0.71210  0.49693  0.43877  1.0000
  H   H2130     1.0  0.71322  0.52037  0.44733  1.0000
  H   H2131     1.0  0.68336  0.49119  0.42484  1.0000
  H   H2132     1.0  0.66836  0.47586  0.40130  1.0000
  C   C1783     1.0  0.59127  0.37360  0.42500  1.0000
  N   N119      1.0  0.63739  0.40063  0.44579  1.0000
  N   N120      1.0  0.70823  0.52180  0.41660  1.0000
  C   C1784     1.0  0.64360  0.47026  0.47568  1.0000
  H   H2133     1.0  0.65863  0.37690  0.43666  1.0000
  C   C1785     1.0  0.58629  0.51787  0.25637  1.0000
  N   N121      1.0  0.66296  0.65210  0.29171  1.0000
  C   C1786     1.0  0.58398  0.49105  0.48525  1.0000
  C   C1787     1.0  0.69922  0.54252  0.41621  1.0000
  S   S479      1.0  0.66042  0.48172  0.25900  1.0000
  H   H2134     1.0  0.69485  0.51302  0.35324  1.0000
  S   S480      1.0  0.83600  0.36133  0.25954  1.0000
  C   C1788     1.0  0.66455  0.37232  0.27107  1.0000
  H   H2135     1.0  0.65820  0.35980  0.26634  1.0000
  H   H2136     1.0  0.57641  0.49001  0.45577  1.0000
  S   S481      1.0  0.52421  0.61265  0.25767  1.0000
  C   C1789     1.0  0.56153  0.54672  0.25339  1.0000
  C   C1790     1.0  0.66558  0.36568  0.32414  1.0000
  H   H2137     1.0  0.59152  0.65849  0.35158  1.0000
  S   S482      1.0  0.50453  0.59781  0.30292  1.0000
  H   H2138     1.0  0.58044  0.36596  0.41957  1.0000
  C   C1791     1.0  0.65549  0.64778  0.31280  1.0000
  S   S483      1.0  0.64156  0.44485  0.48321  1.0000
  H   H2139     1.0  0.60208  0.38637  0.39615  1.0000
  H   H2140     1.0  0.78217  0.33799  0.31861  1.0000
  C   C1792     1.0  0.60357  0.38493  0.41183  1.0000
  H   H2141     1.0  0.71959  0.54332  0.29570  1.0000
  S   S484      1.0  0.52967  0.55364  0.28203  1.0000
  H   H2142     1.0  0.69091  0.65567  0.27418  1.0000
  C   C1793     1.0  0.65553  0.62530  0.34358  1.0000
  H   H2143     1.0  0.55120  0.51744  0.29606  1.0000
  H   H2144     1.0  0.63694  0.63502  0.36888  1.0000
  C   C1794     1.0  0.69286  0.50816  0.36892  1.0000
  H   H2145     1.0  0.58446  0.64163  0.33627  1.0000
  C   C1795     1.0  0.59202  0.51488  0.45730  1.0000
  C   C1796     1.0  0.61825  0.39393  0.41870  1.0000
  H   H2146     1.0  0.62958  0.39543  0.27786  1.0000
  H   H2147     1.0  0.66201  0.62224  0.28530  1.0000
  H   H2148     1.0  0.62773  0.40214  0.40781  1.0000
  C   C1797     1.0  0.63906  0.39598  0.46730  1.0000
  H   H2149     1.0  0.62558  0.40193  0.47631  1.0000
  H   H2150     1.0  0.64177  0.37979  0.47152  1.0000
  H   H2151     1.0  0.65153  0.40274  0.47185  1.0000
  C   C1798     1.0  0.72974  0.52167  0.41042  1.0000
  Fe  Fe241     1.0  0.65383  0.34671  0.40114  1.0000
  H   H2152     1.0  0.57094  0.64481  0.35949  1.0000
  Fe  Fe242     1.0  0.51411  0.58449  0.27429  1.0000
  N   N122      1.0  0.71309  0.53147  0.26969  1.0000
  H   H2153     1.0  0.70675  0.50113  0.27492  1.0000
  H   H2154     1.0  0.91948  0.36431  0.25208  1.0000
  C   C1799     1.0  0.65321  0.34323  0.30521  1.0000
  C   C1800     1.0  0.61613  0.33815  0.48717  1.0000
  H   H2155     1.0  0.76957  0.33279  0.29870  1.0000
  H   H2156     1.0  0.60154  0.33906  0.48241  1.0000
  H   H2157     1.0  0.81624  0.65493  0.25869  1.0000
  H   H2158     1.0  0.68604  0.53757  0.28853  1.0000
  C   C1801     1.0  0.72405  0.54421  0.27947  1.0000
  H   H2159     1.0  0.90883  0.38956  0.25384  1.0000
  H   H2160     1.0  0.66245  0.64003  0.26418  1.0000
  C   C1802     1.0  0.58345  0.49791  0.46523  1.0000
  H   H2161     1.0  0.68295  0.52898  0.26555  1.0000
  C   C1803     1.0  0.64199  0.63855  0.35335  1.0000
  H   H2162     1.0  0.68837  0.55378  0.26610  1.0000
  C   C1804     1.0  0.66309  0.33176  0.33773  1.0000
  H   H2163     1.0  0.55269  0.64913  0.32175  1.0000
  C   C1805     1.0  0.90543  0.37427  0.25306  1.0000
  C   C1806     1.0  0.54827  0.66086  0.33165  1.0000
  H   H2164     1.0  0.54195  0.65461  0.25224  1.0000
  H   H2165     1.0  0.54837  0.66168  0.40094  1.0000
  H   H2166     1.0  0.53922  0.65405  0.34473  1.0000
  C   C1807     1.0  0.64154  0.66096  0.32316  1.0000
  H   H2167     1.0  0.49972  0.56557  0.33891  1.0000
  H   H2168     1.0  0.51294  0.54884  0.32287  1.0000
  Fe  Fe243     1.0  0.71756  0.60815  0.24855  1.0000
  H   H2169     1.0  0.50734  0.54035  0.34835  1.0000
  C   C1808     1.0  0.50718  0.34900  0.47276  1.0000
  C   C1809     1.0  0.63513  0.65639  0.34320  1.0000
  H   H2170     1.0  0.49848  0.52174  0.31429  1.0000
  H   H2171     1.0  0.69047  0.65930  0.29972  1.0000
  H   H2172     1.0  0.70621  0.33141  0.32670  1.0000
  H   H2173     1.0  0.57688  0.47799  0.49072  1.0000
  C   C1810     1.0  0.71981  0.53265  0.24826  1.0000
  C   C1811     1.0  0.83737  0.32933  0.28793  1.0000
  H   H2174     1.0  0.52477  0.32955  0.43711  1.0000
  S   S485      1.0  0.68406  0.42512  0.24708  1.0000
  H   H2175     1.0  0.61519  0.46877  0.51206  1.0000
  Fe  Fe244     1.0  0.51592  0.41077  0.66437  1.0000
  C   C1812     1.0  0.60089  0.47193  0.52120  1.0000
  S   S486      1.0  0.54712  0.41660  0.65239  1.0000
  C   C1813     1.0  0.67465  0.35831  0.56981  1.0000
  H   H2176     1.0  0.62245  0.50207  0.52184  1.0000
  C   C1814     1.0  0.59086  0.37832  0.68958  1.0000
  C   C1815     1.0  0.50622  0.41770  0.58899  1.0000
  C   C1816     1.0  0.55616  0.38160  0.70116  1.0000
  C   C1817     1.0  0.56969  0.35482  0.68220  1.0000
  H   H2177     1.0  0.63735  0.35611  0.59790  1.0000
  C   C1818     1.0  0.61955  0.34929  0.50189  1.0000
  S   S487      1.0  0.51453  0.37876  0.67422  1.0000
  Fe  Fe245     1.0  0.64280  0.39853  0.55028  1.0000
  S   S488      1.0  0.61154  0.39092  0.55630  1.0000
  S   S489      1.0  0.66248  0.38220  0.57278  1.0000
  Fe  Fe246     1.0  0.60300  0.42317  0.54892  1.0000
  S   S490      1.0  0.57539  0.44026  0.56206  1.0000
  S   S491      1.0  0.63404  0.43158  0.54533  1.0000
  Fe  Fe247     1.0  0.61415  0.38932  0.52383  1.0000
  S   S492      1.0  0.60064  0.36621  0.51133  1.0000
  H   H2178     1.0  0.59092  0.34456  0.71423  1.0000
  C   C1819     1.0  0.56687  0.36330  0.66271  1.0000
  H   H2179     1.0  0.55395  0.42025  0.53671  1.0000
  C   C1820     1.0  0.56214  0.35216  0.64860  1.0000
  H   H2180     1.0  0.59503  0.38680  0.70098  1.0000
  Fe  Fe248     1.0  0.50151  0.33305  0.53779  1.0000
  C   C1821     1.0  0.55987  0.33226  0.65345  1.0000
  C   C1822     1.0  0.50779  0.41209  0.54922  1.0000
  C   C1823     1.0  0.52784  0.35889  0.61334  1.0000
  C   C1824     1.0  0.51147  0.36396  0.62668  1.0000
  H   H2181     1.0  0.53814  0.36952  0.60799  1.0000
  H   H2182     1.0  0.52465  0.37955  0.53141  1.0000
  H   H2183     1.0  0.60127  0.33604  0.54183  1.0000
  C   C1825     1.0  0.53033  0.34043  0.60641  1.0000
  S   S493      1.0  0.64587  0.39503  0.51787  1.0000
  H   H2184     1.0  0.58143  0.36554  0.72699  1.0000
  S   S494      1.0  0.50027  0.42063  0.69295  1.0000
  C   C1826     1.0  0.67758  0.35106  0.55141  1.0000
  S   S495      1.0  0.60272  0.42071  0.51675  1.0000
  H   H2185     1.0  0.50938  0.37846  0.63158  1.0000
  C   C1827     1.0  0.63830  0.34739  0.50846  1.0000
  H   H2186     1.0  0.55281  0.39182  0.68786  1.0000
  C   C1828     1.0  0.56723  0.43284  0.58694  1.0000
  C   C1829     1.0  0.57933  0.41986  0.59880  1.0000
  C   C1830     1.0  0.57280  0.41463  0.61876  1.0000
  C   C1831     1.0  0.55395  0.42191  0.62685  1.0000
  C   C1832     1.0  0.54162  0.43444  0.61485  1.0000
  C   C1833     1.0  0.54835  0.44006  0.59499  1.0000
  H   H2187     1.0  0.59398  0.41436  0.59279  1.0000
  H   H2188     1.0  0.58252  0.40518  0.62804  1.0000
  H   H2189     1.0  0.52725  0.44045  0.62110  1.0000
  H   H2190     1.0  0.53892  0.45013  0.58590  1.0000
  H   H2191     1.0  0.60946  0.52684  0.49759  1.0000
  H   H2192     1.0  0.55977  0.35921  0.63397  1.0000
  C   C1834     1.0  0.57367  0.49611  0.52933  1.0000
  H   H2193     1.0  0.95706  0.38362  0.72111  1.0000
  H   H2194     1.0  0.60296  0.46626  0.53682  1.0000
  H   H2195     1.0  0.60170  0.51913  0.53007  1.0000
  H   H2196     1.0  0.56369  0.39897  0.52436  1.0000
  H   H2197     1.0  0.67219  0.36001  0.53869  1.0000
  C   C1835     1.0  0.96871  0.38319  0.73119  1.0000
  C   C1836     1.0  0.57803  0.35587  0.71623  1.0000
  Fe  Fe249     1.0  0.63426  0.42721  0.51316  1.0000
  N   N123      1.0  0.54176  0.39358  0.54921  1.0000
  C   C1837     1.0  0.55794  0.38683  0.56183  1.0000
  C   C1838     1.0  0.53581  0.37589  0.54215  1.0000
  C   C1839     1.0  0.55003  0.40641  0.53199  1.0000
  C   C1840     1.0  0.51531  0.33522  0.70885  1.0000
  H   H2198     1.0  0.52929  0.36604  0.55474  1.0000
  H   H2199     1.0  0.94571  0.35396  0.73767  1.0000
  H   H2200     1.0  0.58067  0.33454  0.60996  1.0000
  C   C1841     1.0  0.62845  0.34417  0.60340  1.0000
  H   H2201     1.0  0.97100  0.34396  0.73875  1.0000
  H   H2202     1.0  0.57077  0.37875  0.55359  1.0000
  H   H2203     1.0  0.53471  0.40215  0.58888  1.0000
  H   H2204     1.0  0.55308  0.37645  0.57471  1.0000
  H   H2205     1.0  0.53957  0.41057  0.52065  1.0000
  H   H2206     1.0  0.54868  0.36726  0.53454  1.0000
  S   S496      1.0  0.50668  0.36829  0.72901  1.0000
  H   H2207     1.0  0.50560  0.41988  0.60445  1.0000
  H   H2208     1.0  0.56780  0.51197  0.52822  1.0000
  C   C1842     1.0  0.51795  0.34413  0.72546  1.0000
  C   C1843     1.0  0.59655  0.33206  0.61018  1.0000
  H   H2209     1.0  0.50755  0.41004  0.53388  1.0000
  C   C1844     1.0  0.52294  0.40736  0.57980  1.0000
  C   C1845     1.0  0.68199  0.34651  0.58614  1.0000
  H   H2210     1.0  0.54280  0.37390  0.70615  1.0000
  H   H2211     1.0  0.55805  0.39090  0.71284  1.0000
  H   H2212     1.0  0.60397  0.36817  0.68478  1.0000
  C   C1846     1.0  0.60707  0.50329  0.52933  1.0000
  H   H2213     1.0  0.56358  0.39945  0.56725  1.0000
  N   N124      1.0  0.59391  0.49329  0.51904  1.0000
  H   H2214     1.0  0.64080  0.35508  0.52057  1.0000
  H   H2215     1.0  0.67998  0.35211  0.60040  1.0000
  H   H2216     1.0  0.59017  0.46281  0.51692  1.0000
  H   H2217     1.0  0.50618  0.34296  0.69799  1.0000
  N   N125      1.0  0.57369  0.36727  0.69712  1.0000
  H   H2218     1.0  0.56770  0.37882  0.65835  1.0000
  H   H2219     1.0  0.60783  0.49669  0.54492  1.0000
  C   C1847     1.0  0.52429  0.40435  0.55952  1.0000
  H   H2220     1.0  0.56506  0.34848  0.72351  1.0000
  H   H2221     1.0  0.58773  0.38944  0.67682  1.0000
  H   H2222     1.0  0.56319  0.48812  0.52300  1.0000
  S   S497      1.0  0.54831  0.33535  0.58691  1.0000
  H   H2223     1.0  0.65131  0.47727  0.50330  1.0000
  H   H2224     1.0  0.60123  0.36140  0.59698  1.0000
  H   H2225     1.0  0.98284  0.37652  0.72377  1.0000
  H   H2226     1.0  0.57327  0.49041  0.54531  1.0000
  C   C1848     1.0  0.56772  0.33434  0.68658  1.0000
  H   H2227     1.0  0.97046  0.39880  0.73261  1.0000
  C   C1849     1.0  0.60808  0.34720  0.60288  1.0000
  C   C1850     1.0  0.52980  0.33362  0.73944  1.0000
  C   C1851     1.0  0.50032  0.33192  0.62649  1.0000
  C   C1852     1.0  0.65406  0.33586  0.49900  1.0000
  C   C1853     1.0  0.68833  0.33257  0.54922  1.0000
  H   H2228     1.0  0.57640  0.33040  0.54430  1.0000
  H   H2229     1.0  0.66878  0.33545  0.50330  1.0000
  C   C1854     1.0  0.59353  0.50083  0.49788  1.0000
  S   S498      1.0  0.49785  0.32999  0.57069  1.0000
  C   C1855     1.0  0.87123  0.43830  0.88378  1.0000
  Fe  Fe250     1.0  0.89908  0.39936  0.83174  1.0000
  S   S499      1.0  0.91116  0.39910  0.79961  1.0000
  S   S500      1.0  0.86924  0.41633  0.83862  1.0000
  Fe  Fe251     1.0  0.93606  0.37715  0.84610  1.0000
  S   S501      1.0  0.95043  0.37456  0.81540  1.0000
  N   N126      1.0  0.98695  0.53048  0.88035  1.0000
  Fe  Fe252     1.0  0.93950  0.40657  0.80937  1.0000
  H   H2230     1.0  0.87141  0.44776  0.86990  1.0000
  Fe  Fe253     1.0  0.92097  0.36712  0.80855  1.0000
  S   S502      1.0  0.92647  0.40943  0.84050  1.0000
  S   S503      1.0  0.90748  0.36714  0.84023  1.0000
  Fe  Fe254     1.0  0.78146  0.38925  0.97924  1.0000
  S   S504      1.0  0.81041  0.39273  0.96109  1.0000
  C   C1856     1.0  0.74744  0.34432  0.87696  1.0000
  Fe  Fe255     1.0  0.77242  0.35655  0.95405  1.0000
  S   S505      1.0  0.80149  0.35717  0.93529  1.0000
  H   H2231     1.0  0.94766  0.39753  0.76319  1.0000
  Fe  Fe256     1.0  0.81422  0.35968  0.96335  1.0000
  S   S506      1.0  0.84152  0.34124  0.97263  1.0000
  Fe  Fe257     1.0  0.79515  0.38997  0.93460  1.0000
  S   S507      1.0  0.79723  0.40958  0.90579  1.0000
  S   S508      1.0  0.78586  0.35597  0.98256  1.0000
  S   S509      1.0  0.76524  0.38957  0.95232  1.0000
  H   H2232     1.0  0.95482  0.55407  0.89544  1.0000
  H   H2233     1.0  0.92597  0.40771  0.88663  1.0000
  H   H2234     1.0  0.92023  0.55456  0.89004  1.0000
  H   H2235     1.0  0.96999  0.50809  0.85615  1.0000
  H   H2236     1.0  0.74335  0.33907  0.89220  1.0000
  H   H2237     1.0  0.53190  0.34033  0.75240  1.0000
  N   N127      1.0  0.96347  0.37191  0.75059  1.0000
  H   H2238     1.0  0.87583  0.33322  0.99403  1.0000
  H   H2239     1.0  0.88241  0.35720  0.78061  1.0000
  C   C1857     1.0  0.95115  0.54378  0.88610  1.0000
  C   C1858     1.0  0.85383  0.42668  0.91483  1.0000
  H   H2240     1.0  0.93264  0.38348  0.75191  1.0000
  H   H2241     1.0  0.89886  0.42270  0.87527  1.0000
  H   H2242     1.0  0.91609  0.37412  0.93010  1.0000
  H   H2243     1.0  0.85846  0.34439  0.76224  1.0000
  C   C1859     1.0  0.98320  0.35200  0.84665  1.0000
  C   C1860     1.0  0.87478  0.34847  0.98771  1.0000
  H   H2244     1.0  0.97184  0.34519  0.84118  1.0000
  H   H2245     1.0  0.91034  0.53238  0.86806  1.0000
  C   C1861     1.0  0.75190  0.33728  0.84293  1.0000
  C   C1862     1.0  0.84969  0.41228  0.85747  1.0000
  C   C1863     1.0  0.85059  0.39704  0.87309  1.0000
  C   C1864     1.0  0.83464  0.39574  0.88825  1.0000
  C   C1865     1.0  0.81782  0.40960  0.88758  1.0000
  C   C1866     1.0  0.81697  0.42439  0.87174  1.0000
  C   C1867     1.0  0.83275  0.42576  0.85690  1.0000
  H   H2246     1.0  0.86358  0.38652  0.87357  1.0000
  H   H2247     1.0  0.83541  0.38421  0.90043  1.0000
  H   H2248     1.0  0.80410  0.43513  0.87105  1.0000
  H   H2249     1.0  0.83191  0.43756  0.84495  1.0000
  C   C1868     1.0  0.86957  0.41223  0.91829  1.0000
  H   H2250     1.0  0.86764  0.40226  0.93154  1.0000
  C   C1869     1.0  0.90284  0.38491  0.92800  1.0000
  C   C1870     1.0  0.85985  0.35589  0.97574  1.0000
  C   C1871     1.0  0.85895  0.37544  0.96728  1.0000
  H   H2251     1.0  0.87049  0.40340  0.96605  1.0000
  C   C1872     1.0  0.96285  0.45503  0.81708  1.0000
  C   C1873     1.0  0.74653  0.33154  0.86283  1.0000
  H   H2252     1.0  0.84857  0.38078  0.95684  1.0000
  H   H2253     1.0  0.93560  0.50948  0.85124  1.0000
  H   H2254     1.0  0.99208  0.55189  0.85521  1.0000
  H   H2255     1.0  0.94127  0.37425  0.77517  1.0000
  S   S510      1.0  0.94457  0.35443  0.99000  1.0000
  C   C1874     1.0  0.90231  0.37974  0.89405  1.0000
  C   C1875     1.0  0.88816  0.36091  0.99185  1.0000
  C   C1876     1.0  0.98946  0.47642  0.81455  1.0000
  C   C1877     1.0  0.98916  0.52826  0.90181  1.0000
  C   C1878     1.0  0.93131  0.54431  0.88297  1.0000
  C   C1879     1.0  0.93992  0.51893  0.86117  1.0000
  H   H2256     1.0  0.91456  0.36762  0.89540  1.0000
  H   H2257     1.0  0.98959  0.38111  0.88147  1.0000
  C   C1880     1.0  0.92269  0.40294  0.90263  1.0000
  H   H2258     1.0  0.98893  0.35533  0.91056  1.0000
  C   C1881     1.0  0.87175  0.38806  0.97203  1.0000
  H   H2259     1.0  0.98466  0.42009  0.84122  1.0000
  H   H2260     1.0  0.90242  0.39576  0.93889  1.0000
  C   C1882     1.0  0.99398  0.54940  0.87127  1.0000
  C   C1883     1.0  0.75930  0.36869  0.85116  1.0000
  C   C1884     1.0  0.90352  0.33150  0.77914  1.0000
  H   H2261     1.0  0.78513  0.36679  0.89011  1.0000
  C   C1885     1.0  0.92571  0.53187  0.87057  1.0000
  H   H2262     1.0  0.93525  0.39170  0.90616  1.0000
  H   H2263     1.0  0.78389  0.43997  0.98671  1.0000
  H   H2264     1.0  0.98591  0.56223  0.87824  1.0000
  H   H2265     1.0  0.77379  0.39706  0.87055  1.0000
  C   C1886     1.0  0.88564  0.34272  0.77561  1.0000
  H   H2266     1.0  0.94856  0.45111  0.82379  1.0000
  N   N128      1.0  0.90334  0.39482  0.90744  1.0000
  S   S511      1.0  0.92184  0.34043  0.79114  1.0000
  H   H2267     1.0  0.84216  0.45043  0.89467  1.0000
  C   C1887     1.0  0.88698  0.42384  0.88705  1.0000
  N   N129      1.0  0.75457  0.37657  0.88691  1.0000
  C   C1888     1.0  0.75874  0.39686  0.87873  1.0000
  C   C1889     1.0  0.73562  0.37825  0.89994  1.0000
  C   C1890     1.0  0.77051  0.36816  0.89916  1.0000
  C   C1891     1.0  0.75358  0.36341  0.87158  1.0000
  C   C1892     1.0  0.95979  0.51823  0.86424  1.0000
  H   H2268     1.0  0.90339  0.38612  0.87831  1.0000
  C   C1893     1.0  0.88683  0.41054  0.90460  1.0000
  H   H2269     1.0  0.88998  0.37624  0.93200  1.0000
  S   S512      1.0  0.74843  0.33769  0.94914  1.0000
  C   C1894     1.0  0.88638  0.38083  0.98428  1.0000
  H   H2270     1.0  0.74755  0.40394  0.86888  1.0000
  H   H2271     1.0  0.75866  0.40656  0.89064  1.0000
  H   H2272     1.0  0.72290  0.38279  0.89114  1.0000
  H   H2273     1.0  0.73547  0.38923  0.91065  1.0000
  H   H2274     1.0  0.73285  0.36424  0.90927  1.0000
  H   H2275     1.0  0.96104  0.33826  0.92290  1.0000
  H   H2276     1.0  0.77171  0.37770  0.91083  1.0000
  H   H2277     1.0  0.76791  0.35335  0.90680  1.0000
  H   H2278     1.0  0.96285  0.47892  0.83473  1.0000
  S   S513      1.0  0.95361  0.36807  0.87207  1.0000
  C   C1895     1.0  0.75835  0.35577  0.83711  1.0000
  C   C1896     1.0  0.97099  0.47087  0.82322  1.0000
  C   C1897     1.0  0.97283  0.44480  0.80177  1.0000
  H   H2279     1.0  0.88809  0.37311  0.89726  1.0000
  C   C1898     1.0  0.95833  0.35244  0.74675  1.0000
  C   C1899     1.0  0.97994  0.37053  0.76300  1.0000
  H   H2280     1.0  0.92331  0.41568  0.91100  1.0000
  H   H2281     1.0  0.76459  0.38270  0.84565  1.0000
  C   C1900     1.0  0.99330  0.37183  0.86964  1.0000
  C   C1901     1.0  0.85468  0.43972  0.89763  1.0000
  C   C1902     1.0  0.98935  0.35227  0.77112  1.0000
  C   C1903     1.0  0.99131  0.45035  0.79307  1.0000
  C   C1904     1.0  0.96600  0.53051  0.87706  1.0000
  H   H2282     1.0  0.84059  0.42738  0.92522  1.0000
  C   C1905     1.0  0.97837  0.36362  0.86222  1.0000
  S   S514      1.0  0.96233  0.42582  0.79237  1.0000
  S   S515      1.0  0.99722  0.37535  0.97955  1.0000
  H   H2283     1.0  0.76262  0.36014  0.82160  1.0000
  H   H2284     1.0  0.96685  0.65927  0.99440  1.0000
  H   H2285     1.0  0.98027  0.40232  0.76215  1.0000
  H   H2286     1.0  0.97636  0.33177  0.89358  1.0000
  C   C1906     1.0  0.87206  0.33538  0.76517  1.0000
  H   H2287     1.0  0.98180  0.54105  0.90928  1.0000
  C   C1907     1.0  0.98687  0.38790  0.76752  1.0000
  H   H2288     1.0  0.98499  0.33825  0.76881  1.0000
  S   S516      1.0  0.90245  0.39680  0.98969  1.0000
  C   C1908     1.0  0.94554  0.38232  0.76056  1.0000
  H   H2289     1.0  0.95350  0.34346  0.76074  1.0000
  H   H2290     1.0  0.93987  0.32972  0.95330  1.0000
  H   H2291     1.0  0.99519  0.49962  0.87721  1.0000
  H   H2292     1.0  0.98293  0.51476  0.90940  1.0000
  H   H2293     1.0  0.89509  0.64162  0.99491  1.0000
  Fe  Fe258     1.0  0.62139  0.93961  0.09109  1.0000
  S   S517      1.0  0.64940  0.94905  0.07441  1.0000
  C   C1909     1.0  0.67485  0.69985  0.20635  1.0000
  Fe  Fe259     1.0  0.62483  0.90083  0.07343  1.0000
  S   S518      1.0  0.65359  0.90713  0.05581  1.0000
  S   S519      1.0  0.61414  0.87076  0.07480  1.0000
  Fe  Fe260     1.0  0.66110  0.91763  0.08373  1.0000
  S   S520      1.0  0.68864  0.90766  0.09928  1.0000
  Fe  Fe261     1.0  0.63861  0.93800  0.04859  1.0000
  H   H2294     1.0  0.62627  0.84614  0.02640  1.0000
  S   S521      1.0  0.63341  0.90913  0.10148  1.0000
  S   S522      1.0  0.60939  0.93072  0.06503  1.0000
  H   H2295     1.0  0.81318  0.69894  0.20855  1.0000
  C   C1910     1.0  0.74657  0.91570  0.14175  1.0000
  H   H2296     1.0  0.57417  0.88828  0.11314  1.0000
  Fe  Fe262     1.0  0.52027  0.83037  0.05203  1.0000
  S   S523      1.0  0.52417  0.79961  0.04318  1.0000
  S   S524      1.0  0.53599  0.85709  0.04011  1.0000
  H   H2297     1.0  0.71104  0.71426  0.21742  1.0000
  H   H2298     1.0  0.71077  0.96492  0.12437  1.0000
  Fe  Fe263     1.0  0.51668  0.79032  0.07590  1.0000
  S   S525      1.0  0.53102  0.76581  0.09674  1.0000
  C   C1911     1.0  0.71457  0.74471  0.21916  1.0000
  S   S526      1.0  0.51558  0.82075  0.08436  1.0000
  H   H2299     1.0  0.74670  0.70405  0.21233  1.0000
  S   S527      1.0  0.72561  0.85999  0.19978  1.0000
  H   H2300     1.0  0.64160  0.87111  0.03480  1.0000
  H   H2301     1.0  0.59213  0.91745  0.19128  1.0000
  Fe  Fe264     1.0  0.70944  0.88773  0.21021  1.0000
  S   S528      1.0  0.68515  0.90471  0.19297  1.0000
  S   S529      1.0  0.53825  0.96290  0.17212  1.0000
  H   H2302     1.0  0.84448  0.68035  0.21816  1.0000
  C   C1912     1.0  0.61939  0.90273  0.02077  1.0000
  N   N130      1.0  0.54719  0.97307  0.10185  1.0000
  H   H2303     1.0  0.61435  0.92678  0.16331  1.0000
  Fe  Fe265     1.0  0.86421  0.72629  0.22335  1.0000
  S   S530      1.0  0.88219  0.69957  0.21086  1.0000
  H   H2304     1.0  0.52025  0.80827  0.13582  1.0000
  H   H2305     1.0  0.85664  0.80024  0.23583  1.0000
  H   H2306     1.0  0.69883  0.74904  0.22173  1.0000
  S   S531      1.0  0.61588  0.75866  0.20277  1.0000
  N   N131      1.0  0.62736  0.88576  0.00976  1.0000
  S   S532      1.0  0.57480  0.73839  0.21522  1.0000
  Fe  Fe266     1.0  0.60584  0.73290  0.22361  1.0000
  S   S533      1.0  0.61744  0.70072  0.22957  1.0000
  Fe  Fe267     1.0  0.58403  0.76571  0.19674  1.0000
  S   S534      1.0  0.57716  0.78329  0.16731  1.0000
  H   H2307     1.0  0.57238  0.82863  0.15478  1.0000
  C   C1913     1.0  0.50117  0.88831  0.10848  1.0000
  C   C1914     1.0  0.72905  0.94470  0.15635  1.0000
  S   S535      1.0  0.90527  0.69517  0.11835  1.0000
  H   H2308     1.0  0.49922  0.82487  0.13005  1.0000
  C   C1915     1.0  0.72797  0.75866  0.21847  1.0000
  S   S536      1.0  0.51557  0.90728  0.11025  1.0000
  H   H2309     1.0  0.75479  0.78234  0.18624  1.0000
  C   C1916     1.0  0.85592  0.80987  0.22176  1.0000
  H   H2310     1.0  0.87138  0.83690  0.19580  1.0000
  H   H2311     1.0  0.53440  0.71773  0.16216  1.0000
  H   H2312     1.0  0.57437  0.69564  0.20459  1.0000
  H   H2313     1.0  0.64904  0.72121  0.20718  1.0000
  C   C1917     1.0  0.64263  0.69330  0.22292  1.0000
  C   C1918     1.0  0.68268  0.68050  0.21222  1.0000
  H   H2314     1.0  0.60025  0.82545  0.02592  1.0000
  H   H2315     1.0  0.89773  0.66748  0.18848  1.0000
  H   H2316     1.0  0.51040  0.88711  0.07756  1.0000
  H   H2317     1.0  0.57228  0.88562  0.13976  1.0000
  H   H2318     1.0  0.99040  0.67323  0.13158  1.0000
  H   H2319     1.0  0.50612  0.70764  0.18559  1.0000
  C   C1919     1.0  0.88798  0.69854  0.18506  1.0000
  C   C1920     1.0  0.89570  0.68049  0.17807  1.0000
  C   C1921     1.0  0.90069  0.67917  0.15767  1.0000
  C   C1922     1.0  0.89826  0.69595  0.14407  1.0000
  C   C1923     1.0  0.89031  0.71392  0.15108  1.0000
  C   C1924     1.0  0.88507  0.71520  0.17144  1.0000
  C   C1925     1.0  0.65040  0.67391  0.22874  1.0000
  C   C1926     1.0  0.52593  0.77424  0.18942  1.0000
  H   H2320     1.0  0.88832  0.72698  0.14069  1.0000
  H   H2321     1.0  0.87909  0.72918  0.17659  1.0000
  H   H2322     1.0  0.50079  0.86770  0.01573  1.0000
  C   C1927     1.0  0.69380  0.95300  0.15973  1.0000
  C   C1928     1.0  0.63681  0.83469  0.13498  1.0000
  C   C1929     1.0  0.59153  0.93240  0.19611  1.0000
  H   H2323     1.0  0.59190  0.85218  0.13569  1.0000
  Fe  Fe268     1.0  0.56932  0.75581  0.24134  1.0000
  H   H2324     1.0  0.55081  0.89232  0.12687  1.0000
  H   H2325     1.0  0.62896  0.94656  0.16243  1.0000
  C   C1930     1.0  0.54323  0.69251  0.21532  1.0000
  H   H2326     1.0  0.80359  0.80092  0.21808  1.0000
  H   H2327     1.0  0.84345  0.69956  0.18677  1.0000
  C   C1931     1.0  0.51514  0.75892  0.19808  1.0000
  H   H2328     1.0  0.66740  0.97594  0.01708  1.0000
  N   N132      1.0  0.76258  0.76843  0.21452  1.0000
  H   H2329     1.0  0.83099  0.69253  0.16771  1.0000
  H   H2330     1.0  0.60653  0.91155  0.01446  1.0000
  C   C1932     1.0  0.52260  0.85817  0.17090  1.0000
  Fe  Fe269     1.0  0.71908  0.84670  0.23100  1.0000
  C   C1933     1.0  0.54400  0.77065  0.11627  1.0000
  C   C1934     1.0  0.55192  0.78849  0.11592  1.0000
  C   C1935     1.0  0.56208  0.79192  0.13161  1.0000
  C   C1936     1.0  0.56447  0.77765  0.14790  1.0000
  C   C1937     1.0  0.55656  0.75977  0.14831  1.0000
  C   C1938     1.0  0.54646  0.75628  0.13251  1.0000
  H   H2331     1.0  0.55048  0.79954  0.10340  1.0000
  H   H2332     1.0  0.56822  0.80568  0.13103  1.0000
  H   H2333     1.0  0.55821  0.74868  0.16076  1.0000
  H   H2334     1.0  0.54047  0.74239  0.13283  1.0000
  H   H2335     1.0  0.58215  0.83524  0.12197  1.0000
  H   H2336     1.0  0.59069  0.85724  0.10968  1.0000
  C   C1939     1.0  0.65493  0.70630  0.21184  1.0000
  H   H2337     1.0  0.67012  0.96949  0.12715  1.0000
  H   H2338     1.0  0.64678  0.95097  0.11422  1.0000
  C   C1940     1.0  0.68697  0.90558  0.12550  1.0000
  C   C1941     1.0  0.67006  0.91324  0.13678  1.0000
  C   C1942     1.0  0.66951  0.91230  0.15744  1.0000
  C   C1943     1.0  0.68584  0.90370  0.16716  1.0000
  C   C1944     1.0  0.70253  0.89548  0.15599  1.0000
  C   C1945     1.0  0.70307  0.89642  0.13527  1.0000
  H   H2339     1.0  0.65750  0.92021  0.12958  1.0000
  H   H2340     1.0  0.65653  0.91865  0.16585  1.0000
  H   H2341     1.0  0.71526  0.88883  0.16322  1.0000
  H   H2342     1.0  0.71615  0.89025  0.12673  1.0000
  C   C1946     1.0  0.59166  0.86754  0.06619  1.0000
  C   C1947     1.0  0.57973  0.88338  0.05753  1.0000
  C   C1948     1.0  0.56245  0.88007  0.04991  1.0000
  C   C1949     1.0  0.55665  0.86102  0.05149  1.0000
  C   C1950     1.0  0.56807  0.84530  0.06099  1.0000
  C   C1951     1.0  0.58568  0.84852  0.06807  1.0000
  H   H2343     1.0  0.58388  0.89816  0.05646  1.0000
  H   H2344     1.0  0.55360  0.89228  0.04266  1.0000
  H   H2345     1.0  0.56374  0.83055  0.06216  1.0000
  H   H2346     1.0  0.59479  0.83619  0.07481  1.0000
  C   C1952     1.0  0.71412  0.97312  0.13633  1.0000
  H   H2347     1.0  0.84524  0.83987  0.19553  1.0000
  C   C1953     1.0  0.74156  0.71941  0.21379  1.0000
  C   C1954     1.0  0.56041  0.96997  0.08345  1.0000
  H   H2348     1.0  0.64115  0.93302  0.19473  1.0000
  H   H2349     1.0  0.68418  0.70982  0.19734  1.0000
  H   H2350     1.0  0.52181  0.83706  0.19670  1.0000
  N   N133      1.0  0.54602  0.68276  0.23543  1.0000
  C   C1955     1.0  0.58269  0.85100  0.12369  1.0000
  H   H2351     1.0  0.62982  0.82531  0.12705  1.0000
  H   H2352     1.0  0.57659  0.97473  0.17241  1.0000
  H   H2353     1.0  0.53604  0.86648  0.11273  1.0000
  N   N134      1.0  0.56262  0.86156  0.12739  1.0000
  C   C1956     1.0  0.55127  0.85897  0.11099  1.0000
  C   C1957     1.0  0.56507  0.88280  0.12685  1.0000
  H   H2354     1.0  0.55815  0.86540  0.09651  1.0000
  H   H2355     1.0  0.90650  0.66526  0.15241  1.0000
  C   C1958     1.0  0.55171  0.85448  0.14641  1.0000
  C   C1959     1.0  0.55871  0.83749  0.15867  1.0000
  H   H2356     1.0  0.55003  0.84315  0.10999  1.0000
  C   C1960     1.0  0.64123  0.96355  0.12191  1.0000
  C   C1961     1.0  0.65443  0.97374  0.12973  1.0000
  H   H2357     1.0  0.52822  0.79875  0.16779  1.0000
  Fe  Fe270     1.0  0.60720  0.77598  0.22875  1.0000
  H   H2358     1.0  0.61179  0.80511  0.14871  1.0000
  Fe  Fe271     1.0  0.91628  0.66703  0.10431  1.0000
  N   N135      1.0  0.82818  0.67357  0.19523  1.0000
  C   C1962     1.0  0.64815  0.84424  0.16420  1.0000
  C   C1963     1.0  0.55919  0.69806  0.20132  1.0000
  C   C1964     1.0  0.56700  0.98802  0.16928  1.0000
  S   S537      1.0  0.63312  0.95377  0.01804  1.0000
  H   H2359     1.0  0.72800  0.98103  0.16945  1.0000
  H   H2360     1.0  0.60929  0.80609  0.19123  1.0000
  C   C1965     1.0  0.65350  0.86409  0.13276  1.0000
  H   H2361     1.0  0.76785  0.79702  0.19908  1.0000
  H   H2362     1.0  0.76913  0.89883  0.15790  1.0000
  C   C1966     1.0  0.53318  0.86443  0.15298  1.0000
  H   H2363     1.0  0.52672  0.87722  0.14431  1.0000
  C   C1967     1.0  0.73207  0.93185  0.14130  1.0000
  C   C1968     1.0  0.63906  0.83044  0.15549  1.0000
  S   S538      1.0  0.73641  0.89921  0.21876  1.0000
  C   C1969     1.0  0.62518  0.79870  0.15588  1.0000
  H   H2364     1.0  0.65947  0.87666  0.12398  1.0000
  C   C1970     1.0  0.67215  0.82803  0.23039  1.0000
  H   H2365     1.0  0.60313  0.82769  0.17477  1.0000
  H   H2366     1.0  0.64986  0.84238  0.17981  1.0000
  C   C1971     1.0  0.64521  0.87614  0.01881  1.0000
  S   S539      1.0  0.71055  0.81549  0.23771  1.0000
  H   H2367     1.0  0.51129  0.69183  0.21851  1.0000
  H   H2368     1.0  0.52446  0.66230  0.23489  1.0000
  H   H2369     1.0  0.62076  0.78524  0.16528  1.0000
  H   H2370     1.0  0.64226  0.85427  0.10821  1.0000
  H   H2371     1.0  0.63697  0.79364  0.14442  1.0000
  S   S540      1.0  0.57564  0.78371  0.22224  1.0000
  S   S541      1.0  0.78132  0.86894  0.19235  1.0000
  C   C1972     1.0  0.61542  0.81900  0.18219  1.0000
  C   C1973     1.0  0.64828  0.80193  0.17849  1.0000
  H   H2372     1.0  0.56830  0.71139  0.17203  1.0000
  H   H2373     1.0  0.84273  0.80669  0.21544  1.0000
  C   C1974     1.0  0.81810  0.82355  0.17269  1.0000
  H   H2374     1.0  0.80843  0.85344  0.16193  1.0000
  H   H2375     1.0  0.61997  0.82813  0.19283  1.0000
  N   N136      1.0  0.63209  0.81278  0.16765  1.0000
  C   C1975     1.0  0.85727  0.84205  0.20438  1.0000
  C   C1976     1.0  0.79410  0.84532  0.19095  1.0000
  H   H2376     1.0  0.56511  0.95148  0.11948  1.0000
  C   C1977     1.0  0.64636  0.80609  0.23246  1.0000
  N   N137      1.0  0.85484  0.83104  0.22440  1.0000
  H   H2377     1.0  0.54511  0.94192  0.11068  1.0000
  C   C1978     1.0  0.61439  0.94157  0.16828  1.0000
  C   C1979     1.0  0.62670  0.97203  0.19029  1.0000
  C   C1980     1.0  0.87171  0.83399  0.23496  1.0000
  S   S542      1.0  0.83414  0.73397  0.21339  1.0000
  H   H2378     1.0  0.66158  0.79797  0.16818  1.0000
  H   H2379     1.0  0.72280  0.93373  0.12939  1.0000
  Fe  Fe272     1.0  0.75186  0.87010  0.21058  1.0000
  C   C1981     1.0  0.79246  0.83029  0.20665  1.0000
  H   H2380     1.0  0.62388  0.92751  0.21578  1.0000
  C   C1982     1.0  0.65548  0.86064  0.15289  1.0000
  C   C1983     1.0  0.54800  0.83134  0.17659  1.0000
  S   S543      1.0  0.87098  0.75783  0.22004  1.0000
  C   C1984     1.0  0.66025  0.78992  0.23651  1.0000
  C   C1985     1.0  0.59386  0.98984  0.21209  1.0000
  C   C1986     1.0  0.84041  0.66742  0.21180  1.0000
  H   H2381     1.0  0.82790  0.82101  0.15944  1.0000
  C   C1987     1.0  0.80705  0.84190  0.17408  1.0000
  C   C1988     1.0  0.53003  0.84172  0.18273  1.0000
  C   C1989     1.0  0.81692  0.80868  0.18847  1.0000
  H   H2382     1.0  0.82405  0.86064  0.21459  1.0000
  H   H2383     1.0  0.60298  0.95167  0.16075  1.0000
  H   H2384     1.0  0.64376  0.78811  0.18711  1.0000
  S   S544      1.0  0.70773  0.67298  0.20499  1.0000
  C   C1990     1.0  0.75666  0.78627  0.20112  1.0000
  Fe  Fe273     1.0  0.51055  0.94950  0.16619  1.0000
  H   H2385     1.0  0.64172  0.83769  0.22631  1.0000
  H   H2386     1.0  0.65284  0.81046  0.18959  1.0000
  H   H2387     1.0  0.80112  0.67727  0.21485  1.0000
  C   C1991     1.0  0.61009  0.96130  0.19585  1.0000
  C   C1992     1.0  0.75510  0.73322  0.21311  1.0000
  C   C1993     1.0  0.51805  0.96281  0.08814  1.0000
  C   C1994     1.0  0.49821  0.96548  0.08457  1.0000
  C   C1995     1.0  0.80425  0.81213  0.20562  1.0000
  S   S545      1.0  0.51642  0.91652  0.16523  1.0000
  C   C1996     1.0  0.64393  0.85132  0.12389  1.0000
  C   C1997     1.0  0.67043  0.66756  0.22356  1.0000
  C   C1998     1.0  0.74867  0.75343  0.21504  1.0000
  H   H2388     1.0  0.74838  0.90594  0.13023  1.0000
  H   H2389     1.0  0.61467  0.89770  0.03645  1.0000
  H   H2390     1.0  0.66294  0.87066  0.15973  1.0000
  C   C1999     1.0  0.68597  0.81197  0.23497  1.0000
  H   H2391     1.0  0.72901  0.97817  0.13218  1.0000
  H   H2392     1.0  0.79329  0.77303  0.20612  1.0000
  H   H2393     1.0  0.52658  0.94926  0.08437  1.0000
  C   C2000     1.0  0.51894  0.78745  0.17397  1.0000
  H   H2394     1.0  0.73970  0.94864  0.18445  1.0000
  S   S546      1.0  0.74705  0.85428  0.24088  1.0000
  H   H2395     1.0  0.50319  0.77958  0.12881  1.0000
  C   C2001     1.0  0.62099  0.96981  0.12392  1.0000
  C   C2002     1.0  0.55394  0.98945  0.11068  1.0000
  H   H2396     1.0  0.55828  0.95622  0.07739  1.0000
  H   H2397     1.0  0.59824  0.99043  0.13623  1.0000
  C   C2003     1.0  0.52640  0.97680  0.09733  1.0000
  H   H2398     1.0  0.85383  0.67879  0.17452  1.0000
  C   C2004     1.0  0.62628  0.92805  0.19939  1.0000
  H   H2399     1.0  0.76456  0.92035  0.18460  1.0000
  C   C2005     1.0  0.80989  0.68549  0.20260  1.0000
  H   H2400     1.0  0.72201  0.77354  0.22091  1.0000
  N   N138      1.0  0.71303  0.96121  0.15596  1.0000
  S   S547      1.0  0.60445  0.95806  0.11314  1.0000
  C   C2006     1.0  0.52405  0.69621  0.20899  1.0000
  H   H2401     1.0  0.86915  0.80489  0.21181  1.0000
  C   C2007     1.0  0.54958  0.95512  0.11610  1.0000
  H   H2402     1.0  0.58025  0.96397  0.21191  1.0000
  S   S548      1.0  0.62115  0.80360  0.23180  1.0000
  C   C2008     1.0  0.54699  0.98673  0.16768  1.0000
  H   H2403     1.0  0.71063  0.96747  0.18632  1.0000
  C   C2009     1.0  0.52094  0.70524  0.19008  1.0000
  C   C2010     1.0  0.75824  0.91166  0.15731  1.0000
  H   H2404     1.0  0.97769  0.69875  0.02820  1.0000
  Fe  Fe274     1.0  0.83975  0.76536  0.21266  1.0000
  C   C2011     1.0  0.59879  0.84042  0.01876  1.0000
  C   C2012     1.0  0.72137  0.72514  0.21676  1.0000
  C   C2013     1.0  0.59370  0.97072  0.20719  1.0000
  H   H2405     1.0  0.70186  0.98758  0.16970  1.0000
  S   S549      1.0  0.70130  0.87385  0.24123  1.0000
  H   H2406     1.0  0.78271  0.83292  0.21986  1.0000
  C   C2014     1.0  0.75560  0.92386  0.17238  1.0000
  H   H2407     1.0  0.77052  0.72759  0.21142  1.0000
  H   H2408     1.0  0.57894  0.94149  0.18936  1.0000
  N   N139      1.0  0.61040  0.94119  0.19008  1.0000
  S   S550      1.0  0.83203  0.78632  0.18615  1.0000
  H   H2409     1.0  0.93976  0.67377  0.17698  1.0000
  H   H2410     1.0  0.58795  0.93072  0.21245  1.0000
  C   C2015     1.0  0.95492  0.66629  0.17861  1.0000
  C   C2016     1.0  0.55592  0.70719  0.18244  1.0000
  H   H2411     1.0  0.50795  0.82444  0.15356  1.0000
  H   H2412     1.0  0.69156  0.94410  0.14787  1.0000
  C   C2017     1.0  0.71355  0.97486  0.17106  1.0000
  C   C2018     1.0  0.65740  0.98396  0.00713  1.0000
  H   H2413     1.0  0.54061  0.95725  0.13045  1.0000
  H   H2414     1.0  0.96333  0.66755  0.16368  1.0000
  H   H2415     1.0  0.52073  0.74867  0.20994  1.0000
  H   H2416     1.0  0.68121  0.96478  0.16060  1.0000
  H   H2417     1.0  0.96871  0.69182  0.06411  1.0000
  H   H2418     1.0  0.55368  0.81839  0.18575  1.0000
  H   H2419     1.0  0.78962  0.74933  0.21812  1.0000
  H   H2420     1.0  0.57626  0.96862  0.08597  1.0000
  H   H2421     1.0  0.67660  0.84277  0.22798  1.0000
  H   H2422     1.0  0.50861  0.86627  0.17571  1.0000
  C   C2019     1.0  0.61185  0.87246  0.01011  1.0000
  H   H2423     1.0  0.88613  0.83006  0.22627  1.0000
  H   H2424     1.0  0.62710  0.91271  0.19549  1.0000
  H   H2425     1.0  0.65666  0.88647  0.01811  1.0000
  H   H2426     1.0  0.85743  0.85809  0.20513  1.0000
  C   C2020     1.0  0.62698  0.99537  0.14299  1.0000
  C   C2021     1.0  0.82207  0.85270  0.22916  1.0000
  H   H2427     1.0  0.69275  0.94327  0.17394  1.0000
  H   H2428     1.0  0.74267  0.79460  0.20690  1.0000
  C   C2022     1.0  0.63947  0.97680  0.00556  1.0000
  H   H2429     1.0  0.55791  0.98252  0.07184  1.0000
  C   C2023     1.0  0.83954  0.68661  0.18032  1.0000
  H   H2430     1.0  0.65221  0.86335  0.01108  1.0000
  C   C2024     1.0  0.74122  0.94013  0.17205  1.0000
  H   H2431     1.0  0.70307  0.98642  0.13612  1.0000
  C   C2025     1.0  0.61387  0.98559  0.13464  1.0000
  H   H2432     1.0  0.63064  0.91311  0.02066  1.0000
  H   H2433     1.0  0.77289  0.78504  0.23518  1.0000
  H   H2434     1.0  0.96138  0.67512  0.18825  1.0000
  C   C2026     1.0  0.76227  0.77413  0.23470  1.0000
  C   C2027     1.0  0.78327  0.76128  0.20755  1.0000
  H   H2435     1.0  0.63974  0.96592  0.18169  1.0000
  H   H2436     1.0  0.78432  0.75594  0.19275  1.0000
  C   C2028     1.0  0.61368  0.85258  0.01892  1.0000
  C   C2029     1.0  0.65241  0.82510  0.22938  1.0000
  C   C2030     1.0  0.53684  0.71081  0.17685  1.0000
  C   C2031     1.0  0.62671  0.99110  0.19533  1.0000
  H   H2437     1.0  0.80012  0.69011  0.19066  1.0000
  Fe  Fe275     1.0  0.82375  0.73591  0.24529  1.0000
  H   H2438     1.0  0.89729  0.66405  0.02914  1.0000
  C   C2032     1.0  0.64729  0.98988  0.14005  1.0000
  H   H2439     1.0  0.53999  0.77574  0.19451  1.0000
  C   C2033     1.0  0.67996  0.79291  0.23802  1.0000
  Fe  Fe276     1.0  0.50295  0.92211  0.13687  1.0000
  H   H2440     1.0  0.56962  0.98621  0.11386  1.0000
  C   C2034     1.0  0.50080  0.78559  0.16665  1.0000
  H   H2441     1.0  0.65570  0.77522  0.23907  1.0000
  H   H2442     1.0  0.87104  0.84956  0.23807  1.0000
  H   H2443     1.0  0.69048  0.78044  0.24189  1.0000
  C   C2035     1.0  0.57924  0.86709  0.00164  1.0000
  H   H2444     1.0  0.62699  0.98907  0.04505  1.0000
  H   H2445     1.0  0.62576  0.98758  0.08142  1.0000
  C   C2036     1.0  0.51370  0.99377  0.10243  1.0000
  H   H2446     1.0  0.50376  0.89967  0.02560  1.0000
  H   H2447     1.0  0.54533  0.99187  0.12516  1.0000
  H   H2448     1.0  0.57700  0.67209  0.23039  1.0000
  C   C2037     1.0  0.83603  0.83719  0.23617  1.0000
  C   C2038     1.0  0.50569  0.81489  0.14224  1.0000
  H   H2449     1.0  0.79389  0.86973  0.23486  1.0000
  C   C2039     1.0  0.54018  0.66249  0.23728  1.0000
  H   H2450     1.0  0.74740  0.78089  0.24034  1.0000
  S   S551      1.0  0.82702  0.76819  0.24379  1.0000
  C   C2040     1.0  0.80449  0.85813  0.24073  1.0000
  C   C2041     1.0  0.50119  0.88121  0.09031  1.0000
  S   S552      1.0  0.49916  0.95479  0.13644  1.0000
  H   H2451     1.0  0.87424  0.66317  0.01927  1.0000
  H   H2452     1.0  0.99294  0.67486  0.08543  1.0000
  C   C2042     1.0  0.98368  0.68764  0.05780  1.0000
  H   H2453     1.0  0.76631  0.76106  0.24531  1.0000
  H   H2454     1.0  0.64088  0.66372  0.23710  1.0000
  C   C2043     1.0  0.58163  0.84764  0.01014  1.0000
  H   H2455     1.0  0.56982  0.83836  0.01069  1.0000
  C   C2044     1.0  0.98874  0.69169  0.03756  1.0000
  C   C2045     1.0  0.59410  0.87935  0.00155  1.0000
  C   C2046     1.0  0.56672  0.68127  0.24029  1.0000
  H   H2456     1.0  0.57204  0.69609  0.23928  1.0000
  C   C2047     1.0  0.99766  0.67784  0.06984  1.0000
  H   H2457     1.0  0.49775  0.88007  0.04450  1.0000
  Fe  Fe277     1.0  0.89960  0.83792  0.39581  1.0000
  S   S553      1.0  0.91140  0.80604  0.39886  1.0000
  S   S554      1.0  0.87401  0.84574  0.41823  1.0000
  Fe  Fe278     1.0  0.93273  0.84786  0.36466  1.0000
  S   S555      1.0  0.94678  0.81660  0.36525  1.0000
  S   S556      1.0  0.94779  0.87187  0.34570  1.0000
  Fe  Fe279     1.0  0.91551  0.80922  0.36553  1.0000
  S   S557      1.0  0.90510  0.78438  0.35124  1.0000
  Fe  Fe280     1.0  0.94126  0.81667  0.39833  1.0000
  S   S558      1.0  0.96308  0.80283  0.42021  1.0000
  S   S559      1.0  0.90185  0.84075  0.36265  1.0000
  S   S560      1.0  0.92894  0.84835  0.39754  1.0000
  Fe  Fe281     1.0  0.83171  0.95831  0.35241  1.0000
  S   S561      1.0  0.80795  0.98168  0.34344  1.0000
  S   S562      1.0  0.86323  0.95959  0.33977  1.0000
  Fe  Fe282     1.0  0.80367  0.93530  0.37988  1.0000
  S   S563      1.0  0.77735  0.95714  0.37329  1.0000
  S   S564      1.0  0.80059  0.90830  0.40161  1.0000
  Fe  Fe283     1.0  0.79032  0.95636  0.34143  1.0000
  S   S565      1.0  0.77586  0.95636  0.31281  1.0000
  Fe  Fe284     1.0  0.79752  0.98032  0.37606  1.0000
  C   C2048     1.0  0.59565  0.69774  0.28452  1.0000
  S   S566      1.0  0.81529  0.93322  0.34821  1.0000
  S   S567      1.0  0.82263  0.95822  0.38494  1.0000
  H   H2458     1.0  0.84187  0.82624  0.39889  1.0000
  S   S568      1.0  0.73405  0.88985  0.28008  1.0000
  H   H2459     1.0  0.66213  0.67505  0.26715  1.0000
  C   C2049     1.0  0.90226  0.93304  0.37670  1.0000
  S   S569      1.0  0.86968  0.78087  0.26941  1.0000
  H   H2460     1.0  0.98156  0.90149  0.36754  1.0000
  H   H2461     1.0  0.80157  0.98213  0.26946  1.0000
  C   C2050     1.0  0.81687  0.87462  0.34386  1.0000
  H   H2462     1.0  0.98014  0.86149  0.44680  1.0000
  C   C2051     1.0  0.98250  0.84562  0.44722  1.0000
  S   S570      1.0  0.54150  0.74895  0.26116  1.0000
  C   C2052     1.0  0.97257  0.83609  0.43492  1.0000
  Fe  Fe285     1.0  0.50924  0.71336  0.37148  1.0000
  H   H2463     1.0  0.56814  0.67425  0.25562  1.0000
  S   S571      1.0  0.53107  0.73392  0.35526  1.0000
  H   H2464     1.0  0.71377  0.83215  0.32368  1.0000
  C   C2053     1.0  0.58768  0.70874  0.29987  1.0000
  N   N140      1.0  0.90105  0.91507  0.36721  1.0000
  C   C2054     1.0  0.96352  0.97339  0.35272  1.0000
  H   H2465     1.0  0.50997  0.69243  0.29401  1.0000
  S   S572      1.0  0.51387  0.69417  0.40013  1.0000
  H   H2466     1.0  0.69377  0.85087  0.33002  1.0000
  C   C2055     1.0  0.58431  0.66843  0.30349  1.0000
  C   C2056     1.0  0.83053  0.86305  0.33225  1.0000
  H   H2467     1.0  0.88465  0.98891  0.27895  1.0000
  H   H2468     1.0  0.51751  0.69368  0.24961  1.0000
  C   C2057     1.0  0.99556  0.83486  0.45993  1.0000
  S   S573      1.0  0.50509  0.68806  0.35558  1.0000
  H   H2469     1.0  0.65322  0.80775  0.27534  1.0000
  H   H2470     1.0  0.85029  0.80390  0.34241  1.0000
  H   H2471     1.0  0.96280  0.84465  0.42509  1.0000
  C   C2058     1.0  0.97832  0.96044  0.36119  1.0000
  H   H2472     1.0  0.81522  0.81153  0.38752  1.0000
  H   H2473     1.0  0.60286  0.70491  0.27107  1.0000
  H   H2474     1.0  0.83463  0.86838  0.31694  1.0000
  C   C2059     1.0  0.54047  0.74337  0.28720  1.0000
  C   C2060     1.0  0.52634  0.73136  0.29691  1.0000
  C   C2061     1.0  0.52373  0.72794  0.31764  1.0000
  C   C2062     1.0  0.53498  0.73681  0.32902  1.0000
  C   C2063     1.0  0.54940  0.74859  0.31933  1.0000
  C   C2064     1.0  0.55223  0.75177  0.29850  1.0000
  H   H2475     1.0  0.51706  0.72492  0.28842  1.0000
  H   H2476     1.0  0.51241  0.71909  0.32479  1.0000
  H   H2477     1.0  0.55817  0.75556  0.32799  1.0000
  H   H2478     1.0  0.56302  0.76126  0.29125  1.0000
  H   H2479     1.0  0.92789  0.89905  0.37714  1.0000
  C   C2065     1.0  0.97276  0.86806  0.35003  1.0000
  H   H2480     1.0  0.90188  0.97242  0.33579  1.0000
  C   C2066     1.0  0.79371  0.94804  0.43485  1.0000
  H   H2481     1.0  0.86003  0.80643  0.39293  1.0000
  C   C2067     1.0  0.92344  0.79662  0.46458  1.0000
  C   C2068     1.0  0.98838  0.80478  0.44811  1.0000
  H   H2482     1.0  0.93683  0.96137  0.38722  1.0000
  C   C2069     1.0  0.85221  0.82052  0.38663  1.0000
  C   C2070     1.0  0.76152  0.96617  0.43192  1.0000
  C   C2071     1.0  0.81158  0.86791  0.36354  1.0000
  C   C2072     1.0  0.87190  0.97950  0.34831  1.0000
  C   C2073     1.0  0.80025  0.84838  0.25950  1.0000
  H   H2483     1.0  0.57204  0.70923  0.32833  1.0000
  H   H2484     1.0  0.92357  0.78738  0.47906  1.0000
  H   H2485     1.0  0.87386  0.97097  0.39829  1.0000
  C   C2074     1.0  0.88052  0.91042  0.36694  1.0000
  H   H2486     1.0  0.50395  0.78334  0.29007  1.0000
  Fe  Fe286     1.0  0.72998  0.88276  0.24892  1.0000
  C   C2075     1.0  0.76547  0.93700  0.30370  1.0000
  C   C2076     1.0  0.76028  0.92012  0.31585  1.0000
  C   C2077     1.0  0.75094  0.90582  0.30829  1.0000
  C   C2078     1.0  0.74697  0.90791  0.28840  1.0000
  C   C2079     1.0  0.75262  0.92454  0.27612  1.0000
  C   C2080     1.0  0.76161  0.93903  0.28378  1.0000
  H   H2487     1.0  0.76298  0.91832  0.33121  1.0000
  H   H2488     1.0  0.74661  0.89312  0.31801  1.0000
  H   H2489     1.0  0.74963  0.92650  0.26084  1.0000
  H   H2490     1.0  0.76548  0.95199  0.27420  1.0000
  H   H2491     1.0  0.84945  0.83654  0.33040  1.0000
  C   C2081     1.0  0.92091  0.93941  0.37814  1.0000
  H   H2492     1.0  0.97846  0.91470  0.38887  1.0000
  C   C2082     1.0  0.80407  0.66620  0.25630  1.0000
  H   H2493     1.0  0.62495  0.66681  0.35105  1.0000
  H   H2494     1.0  0.96711  0.85115  0.37829  1.0000
  C   C2083     1.0  0.88529  0.94478  0.38456  1.0000
  C   C2084     1.0  0.89555  0.78372  0.32825  1.0000
  C   C2085     1.0  0.88978  0.76590  0.32389  1.0000
  C   C2086     1.0  0.88185  0.76467  0.30605  1.0000
  C   C2087     1.0  0.87952  0.78132  0.29229  1.0000
  C   C2088     1.0  0.88509  0.79921  0.29675  1.0000
  C   C2089     1.0  0.89307  0.80043  0.31456  1.0000
  H   H2495     1.0  0.89160  0.75287  0.33434  1.0000
  H   H2496     1.0  0.87767  0.75080  0.30291  1.0000
  H   H2497     1.0  0.88344  0.81219  0.28623  1.0000
  H   H2498     1.0  0.89748  0.81423  0.31760  1.0000
  C   C2090     1.0  0.85402  0.86325  0.41253  1.0000
  C   C2091     1.0  0.83807  0.86575  0.42705  1.0000
  C   C2092     1.0  0.82185  0.87956  0.42338  1.0000
  C   C2093     1.0  0.82161  0.89143  0.40534  1.0000
  C   C2094     1.0  0.83756  0.88899  0.39066  1.0000
  C   C2095     1.0  0.85361  0.87457  0.39414  1.0000
  H   H2499     1.0  0.83819  0.85693  0.44123  1.0000
  H   H2500     1.0  0.80952  0.88122  0.43470  1.0000
  H   H2501     1.0  0.83721  0.89780  0.37650  1.0000
  H   H2502     1.0  0.86563  0.87217  0.38271  1.0000
  C   C2096     1.0  0.81420  0.98853  0.27309  1.0000
  H   H2503     1.0  0.93832  0.79442  0.45615  1.0000
  C   C2097     1.0  0.94803  0.81541  0.48556  1.0000
  N   N141      1.0  0.56545  0.66918  0.33730  1.0000
  H   H2504     1.0  0.50203  0.74325  0.26261  1.0000
  H   H2505     1.0  0.95188  0.79995  0.48403  1.0000
  C   C2098     1.0  0.97046  0.93472  0.34319  1.0000
  C   C2099     1.0  0.97540  0.81558  0.43532  1.0000
  C   C2100     1.0  0.95602  0.94793  0.33451  1.0000
  C   C2101     1.0  0.88703  0.96191  0.39300  1.0000
  C   C2102     1.0  0.81994  0.84964  0.37171  1.0000
  H   H2506     1.0  0.81023  0.82542  0.28136  1.0000
  C   C2103     1.0  0.50355  0.66341  0.30631  1.0000
  C   C2104     1.0  0.99467  0.98942  0.31441  1.0000
  C   C2105     1.0  0.49968  0.68388  0.30348  1.0000
  C   C2106     1.0  0.85898  0.99244  0.35929  1.0000
  C   C2107     1.0  0.76987  0.67536  0.25074  1.0000
  H   H2507     1.0  0.71573  0.85760  0.31541  1.0000
  H   H2508     1.0  0.84430  0.98392  0.30922  1.0000
  C   C2108     1.0  0.79818  0.96168  0.44660  1.0000
  C   C2109     1.0  0.81359  0.83313  0.26682  1.0000
  H   H2509     1.0  0.72607  0.97930  0.45229  1.0000
  H   H2510     1.0  0.88687  0.81258  0.47077  1.0000
  H   H2511     1.0  0.63953  0.67413  0.28275  1.0000
  H   H2512     1.0  0.75806  0.99235  0.29066  1.0000
  C   C2110     1.0  0.65585  0.67215  0.28288  1.0000
  C   C2111     1.0  0.73321  0.98907  0.46039  1.0000
  H   H2513     1.0  0.90584  0.89587  0.39382  1.0000
  H   H2514     1.0  0.86292  0.79266  0.36277  1.0000
  H   H2515     1.0  0.91313  0.79061  0.45608  1.0000
  Fe  Fe287     1.0  0.50752  0.66941  0.38432  1.0000
  C   C2112     1.0  0.91641  0.82846  0.44704  1.0000
  H   H2516     1.0  0.50714  0.77835  0.25803  1.0000
  H   H2517     1.0  0.68332  0.81996  0.33430  1.0000
  C   C2113     1.0  0.98240  0.94069  0.35647  1.0000
  H   H2518     1.0  0.66001  0.79565  0.33708  1.0000
  H   H2519     1.0  0.93442  0.93124  0.37250  1.0000
  C   C2114     1.0  0.80686  0.68615  0.25612  1.0000
  H   H2520     1.0  0.75559  0.67130  0.24860  1.0000
  C   C2115     1.0  0.92246  0.95660  0.38656  1.0000
  H   H2521     1.0  0.87168  0.92231  0.35834  1.0000
  C   C2116     1.0  0.83124  0.82761  0.25539  1.0000
  H   H2522     1.0  0.81041  0.88887  0.33765  1.0000
  H   H2523     1.0  0.90879  0.90453  0.33858  1.0000
  N   N142      1.0  0.91756  0.81777  0.46706  1.0000
  H   H2524     1.0  0.67654  0.83230  0.27155  1.0000
  C   C2117     1.0  0.94120  0.85555  0.49006  1.0000
  C   C2118     1.0  0.91014  0.91749  0.34643  1.0000
  C   C2119     1.0  0.83895  0.84469  0.34024  1.0000
  N   N143      1.0  0.84217  0.81794  0.36928  1.0000
  C   C2120     1.0  0.97807  0.85762  0.36773  1.0000
  S   S574      1.0  0.79361  0.72575  0.25484  1.0000
  C   C2121     1.0  0.83383  0.83739  0.36030  1.0000
  S   S575      1.0  0.59996  0.74965  0.25027  1.0000
  C   C2122     1.0  0.98933  0.90973  0.37661  1.0000
  H   H2525     1.0  0.98342  0.88369  0.32238  1.0000
  C   C2123     1.0  0.89758  0.81941  0.47810  1.0000
  C   C2124     1.0  0.98736  0.87596  0.33630  1.0000
  H   H2526     1.0  0.58864  0.72450  0.29825  1.0000
  S   S576      1.0  0.85356  0.72630  0.25599  1.0000
  C   C2125     1.0  0.93138  0.82653  0.47761  1.0000
  H   H2527     1.0  0.86341  0.83111  0.38251  1.0000
  C   C2126     1.0  0.55786  0.68244  0.35270  1.0000
  H   H2528     1.0  0.90995  0.84404  0.44730  1.0000
  H   H2529     1.0  0.88009  0.89681  0.35981  1.0000
  H   H2530     1.0  0.90672  0.98152  0.39988  1.0000
  H   H2531     1.0  0.87043  0.94145  0.38382  1.0000
  H   H2532     1.0  0.87659  0.98653  0.30490  1.0000
  H   H2533     1.0  0.81554  0.84529  0.38715  1.0000
  H   H2534     1.0  0.97249  0.91987  0.33905  1.0000
  C   C2127     1.0  0.57806  0.69971  0.31716  1.0000
  H   H2535     1.0  0.54716  0.69467  0.34704  1.0000
  H   H2536     1.0  0.72042  0.82380  0.28855  1.0000
  C   C2128     1.0  0.89181  0.98255  0.34403  1.0000
  H   H2537     1.0  0.92621  0.91879  0.34535  1.0000
  H   H2538     1.0  0.91587  0.85622  0.47483  1.0000
  C   C2129     1.0  0.77243  0.69523  0.25143  1.0000
  H   H2539     1.0  0.80116  0.87711  0.37264  1.0000
  H   H2540     1.0  0.94776  0.94334  0.32368  1.0000
  H   H2541     1.0  0.91060  0.88398  0.37152  1.0000
  C   C2130     1.0  0.82605  0.80531  0.37589  1.0000
  C   C2131     1.0  0.95258  0.96722  0.33925  1.0000
  C   C2132     1.0  0.90554  0.96790  0.39386  1.0000
  C   C2133     1.0  0.85683  0.80718  0.35558  1.0000
  C   C2134     1.0  0.96071  0.82423  0.49545  1.0000
  C   C2135     1.0  0.92827  0.84686  0.48034  1.0000
  H   H2542     1.0  0.83187  0.79035  0.38225  1.0000
  H   H2543     1.0  0.90691  0.82164  0.43832  1.0000
  H   H2544     1.0  0.70793  0.83897  0.26991  1.0000
  H   H2545     1.0  0.54969  0.67454  0.36570  1.0000
  H   H2546     1.0  0.86979  0.81552  0.35052  1.0000
  H   H2547     1.0  0.60013  0.66918  0.27422  1.0000
  H   H2548     1.0  0.90295  0.93085  0.33811  1.0000
  H   H2549     1.0  0.72422  0.84942  0.28290  1.0000
  H   H2550     1.0  0.87291  0.90813  0.38217  1.0000
  H   H2551     1.0  0.81782  0.80346  0.36331  1.0000
  H   H2552     1.0  0.89788  0.81202  0.49345  1.0000
  C   C2136     1.0  0.91181  0.89783  0.37795  1.0000
  C   C2137     1.0  0.99762  0.85584  0.37215  1.0000
  N   N144      1.0  0.69640  0.84392  0.29989  1.0000
  C   C2138     1.0  0.68596  0.86334  0.29331  1.0000
  C   C2139     1.0  0.70523  0.84611  0.31814  1.0000
  C   C2140     1.0  0.71292  0.83881  0.28471  1.0000
  C   C2141     1.0  0.68241  0.82877  0.30248  1.0000
  C   C2142     1.0  0.67722  0.81789  0.32101  1.0000
  C   C2143     1.0  0.67332  0.82466  0.28611  1.0000
  C   C2144     1.0  0.66379  0.80382  0.32284  1.0000
  C   C2145     1.0  0.65993  0.81059  0.28812  1.0000
  C   C2146     1.0  0.65517  0.80018  0.30644  1.0000
  H   H2553     1.0  0.67352  0.86774  0.30442  1.0000
  H   H2554     1.0  0.69604  0.87517  0.29090  1.0000
  H   H2555     1.0  0.67964  0.86333  0.27916  1.0000
  H   H2556     1.0  0.73766  0.98024  0.47419  1.0000
  C   C2147     1.0  0.78438  0.97763  0.45111  1.0000
  H   H2557     1.0  0.77201  0.93953  0.41848  1.0000
  H   H2558     1.0  0.87201  0.82450  0.24933  1.0000
  H   H2559     1.0  0.81251  0.95998  0.45211  1.0000
  C   C2148     1.0  0.77539  0.95024  0.42760  1.0000
  H   H2560     1.0  0.74756  0.96715  0.42591  1.0000
  H   H2561     1.0  0.81632  0.96954  0.30016  1.0000
  H   H2562     1.0  0.80445  0.93574  0.43127  1.0000
  H   H2563     1.0  0.98673  0.96647  0.37087  1.0000
  H   H2564     1.0  0.56995  0.68883  0.35832  1.0000
  H   H2565     1.0  0.53609  0.68749  0.26579  1.0000
  H   H2566     1.0  0.66035  0.68376  0.29085  1.0000
  C   C2149     1.0  0.79095  0.70071  0.25395  1.0000
  C   C2150     1.0  0.57604  0.67919  0.31948  1.0000
  H   H2567     1.0  0.64476  0.78929  0.30790  1.0000
  H   H2568     1.0  0.63552  0.67497  0.31622  1.0000
  Fe  Fe288     1.0  0.85799  0.75881  0.25195  1.0000
  H   H2569     1.0  0.93131  0.82839  0.43865  1.0000
  C   C2151     1.0  0.76563  0.98049  0.44369  1.0000
  H   H2570     1.0  0.82112  0.69020  0.25834  1.0000
  H   H2571     1.0  0.94182  0.97763  0.33203  1.0000
  H   H2572     1.0  0.76000  0.70638  0.25011  1.0000
  H   H2573     1.0  0.89138  0.83499  0.47908  1.0000
  H   H2574     1.0  0.50565  0.77752  0.32537  1.0000
  H   H2575     1.0  0.84356  0.99024  0.36256  1.0000
  C   C2152     1.0  0.59407  0.67760  0.28635  1.0000
  H   H2576     1.0  0.84109  0.81563  0.26169  1.0000
  H   H2577     1.0  0.93877  0.87115  0.49169  1.0000
  H   H2578     1.0  0.99066  0.78890  0.44856  1.0000
  C   C2153     1.0  0.82252  0.98144  0.29043  1.0000
  H   H2579     1.0  0.78894  0.98767  0.46017  1.0000
  H   H2580     1.0  0.78650  0.85260  0.26828  1.0000
  H   H2581     1.0  0.53832  0.67253  0.32393  1.0000
  C   C2154     1.0  0.83864  0.98971  0.29541  1.0000
  H   H2582     1.0  0.96108  0.98862  0.35589  1.0000
  H   H2583     1.0  0.53668  0.70955  0.24882  1.0000
  C   C2155     1.0  0.53352  0.69389  0.25046  1.0000
  C   C2156     1.0  0.95743  0.84426  0.49753  1.0000
  C   C2157     1.0  0.97263  0.99087  0.62905  1.0000
  H   H2584     1.0  0.97575  0.98197  0.64274  1.0000
  H   H2585     1.0  0.97362  0.81564  0.50100  1.0000
  H   H2586     1.0  0.96774  0.85107  0.50466  1.0000
  C   C2158     1.0  0.98561  0.98858  0.61208  1.0000
  C   C2159     1.0  0.63379  0.89330  0.98906  1.0000
  H   H2587     1.0  0.62175  0.90263  0.98182  1.0000
  H   H2588     1.0  0.63906  0.88097  0.97999  1.0000
  H   H2589     1.0  0.61300  0.98189  0.99081  1.0000
  C   C2160     1.0  0.62683  0.98733  0.99229  1.0000
  H   H2590     1.0  0.64601  0.90280  0.98826  1.0000
  H   H2591     1.0  0.59143  0.89439  0.99500  1.0000
  H   H2592     1.0  0.56555  0.87278  0.99557  1.0000
