data_image0
_chemical_formula_structural       FeC3FeS2FeS2FeS2FeSFeS3FeS2HSHCFeC8H4CSCH2C2H2C7H6SNCH7C3H3CH4CHNC7NH12SNHC8HCH2CHCHCH4FeH3C2SCH3CHCH2SC2HCHCH3FeH3FeS2HNHFeS2FeS2FeSFeS3FeS2C4HCH2C6H6CH2C4HC6H4FeCH2CHCHNHC2HCHCHNC4HCHC3HCH3CHC2SH3FeCHCHCHCH3C2SH3S3H5C3H2CHCH2CNH4CHC3HCH2CH4C2H5CH5CHCHCHSCH2C2H5CFeSFeS2FeSFeS3HNS2CH2FeS2FeS2FeS2FeSFeS3H2C2FeS2HCHC6H4C2H2C7H4CH2C4NH3C6H4CH2C6H3C3H5CHCFeHCH3C2H4CH5CH2NC9H14CH2FeHSFeSHCHNH4C2H4SC4H2C2H2NH4C4HC3HSH2NHC2H3NH2SC3H2CH2CH3CHC4H8C4H2CSFeHC2HC3HSCHSFeS2FeS2FeSFeS2FeS2HFeS2FeS2FeSFeS3HFeCSFeS2CH2C6H5C2H2C6H4C6H3C2H3C6SH3C7H2NC9H13NC3H12C2H3C2FeH3CH2C2H2CH3SCH4SH2CH3C2HNC2HFe2H3SHFeC2HNCHSH3SH2SCHCNC4H3C3HC4HCHCH2CH5CH5CHCHCNC3H2CH2NH2CH8CNCH2FeS2FeS2FeSFeS3HFeS2FeS2FeSFeS3HCSC2HCHC2HC6H4C6H4C2H2C2HC2H3CH2CH3C4HCNC4FeCH2C2H5CHCH5CHCH4CH2NCHC2HCHCHCNC4H3C3H4CHCHCHC4NC2HC2H4CH4SCH3C3HC2H3NH5CH3CH2CH2CHC2HFeS2FeS2FeSFeS3HFeS2FeS2FeSFeS3FeHSHCH2C2HC6H4C6H4C2H2NCHC6H2C4HC4HSHNH2CH8C2HCH4NC2H4C4H3CH2CH2CHNC5H3C2HCHCH3C2HCH8CH2CH3C3H4C2H2C2HCNC2HC3H3CFeS2FeSNFeCH2C2HCHCH2S2HCH2CH2CHC7H2CHC5H5CH4CHCHFeS2FeSHC4HC4NHCH4C2SHCH5CH5CFeCHCH3CH2C4H2FeS2HFeS2HCHS2FeS2FeS2CFeS2FeS2FeSFeS3C5H4SCHCHC7H5CHC3HFeH3C6H4C7H3CNC2HCHC3H7SH2FeHNCNCHNC6HCHCFeCH12NC9H16CHSH3SC4HCHCHNCH3CH3C2H2FeS2FeS2CS2HC2HFeS2FeS2FeSFeS3HSHFeSC7H4C7H5FeSHC7H3C8H4C6H3CH2NCFeH2CHCH2CH4CHC3HCH3CSHC2SHCSH3C4H3FeSCHFeCHCNC9H13CH5NH3NCH2FeHCSHC2HFeH2CSH6C3HC2HCSFeSCFeS2HCHC2HS2H2CH2C6H4C3H4CHCH2CNFeHFeNCHC7H2CH2CH2CH2CH5CHCSH4CHCNCHC2HCHCHCHC3SCHC2H5FeH6FeHCH2FeS2FeCSHCH5C2FeC6H4C2H2SH2SCHCSCHC5H3CNC2H5NSCHC2H4SHCH2CH3C2SH2S2CH2CHFeS2HC2HCHC3SC6H5CHSCNC3H9NCH3CNH6CHCH4C2H2C2HSH2CNC2HC3SHCH5C2H2FeC3FeSHCFeHCH5C2FeS2H3CSFeS2H4NHSHCHCHC6H4C2HC3H5C2HCH3SHFeH4CHC3H5C2HCHCNCHC3HSHCHC2HFeH2CH2NC5NFeS2FeS2FeSFeS3FeCSH6S2FeS2FeSCH2NC6H4FeHC3HC3HC7H3SCHC6H4C6H4NC9H18C3HCSHC4H3SFeHC5H3CH3C3SH2SH6CHCHCH3CSCH2C4H4CHC3HC3FeHSCHSHFeS2FeS2FeSFeS3H2FeSCFeHSFeS2FeC7H4SNC6H2CH2CH3C6H3SCHNHC4HC6H4NC9H12C2HC3HCH2SHCHCSC3HCSCHCH2CHC2HCHCHC2H5NC9H16C2HCHC2H5CH2CSH3C5H2C2HC2HFeC3H2CHSC3HCH2C2H2NH3CH4SCH3CH3C2HC3H2FeCH2SH3CNHC5SH3CHCH4C2HCH3CH3CFe2S2FeS2FeSFeS3HSHFeS2FeS2FeS2FeSFeCS2HC8H5CHCH2C7H4C3HC6H4NC4HCH12CH3FeHCH6CNCS2HCHCHC2H3CH2CSHC2NHC2H4C2H3CSH7CHCHCH2C3HC2H4NHFeS2FeS2FeSFeS3HSCFeSCFeS2FeS2FeSFeS3CH2C8H5CH3C3HFeHC6H4CNHCHC8H5NC2H6SH3CH3C2HCH2CH2NC9H8CHC2SH5SHNH3CHCH2CHC2HNHC2HCHCH2FeNC2H2CH2CHCHCHSH4SH2S2HFeS2FeS2FeSFeS3HS2FeS2FeS2FeSFeSFeS4CHCHC6H4C4H5C3HC7H6C2HNH5C6H5SCHC3H3CSH2CNC8HCH3CFeH2CHCH2CH3C3H5NHC4HC3H3CH3CHC3H2C2H3CH2C2HCHCHC2NHCHFeCH2C3HCH4CHCH5C3FeH3CHC2HNH4S2CFeHCH2CH2C2H2CS2FeCHCSHFeS2FeS2FeSFeS3FeS2FeSFeSFeS3FeCSFeS2C6H4C2HC6H3SCHNHC6H4CH2CHCH3CSHC6H5CH2CNC2H2CHNC9H13CNC9H14NC9H14C2H2CH3CH6CHC2SC2SH2FeHNCH5FeSHC3H2NH4SH3CH2CSCSH2CSHCFeS2FeS2FeSFeS3C2NH2C6H5SHC6H4NCHFeHFeH2C3H4CSHCHCHC2HC3H3N2C6HC2H8CH5CSH2CNHCHC3H5CHCHC2H2CH3C3H2CH2CHCHCHC4H4CHCHCHCHCH2CH2CH3C2HFeSH2C2FeSCFeS2FeS2FeSFeS3HCH3C6H4C2HC6H4CHCHCHCHCH2CHCHCH2NCHC2H2CH8CH2CH2CHCHC2H4CHC2H2C2NHC2H3CH3CHCHCHNHCSH3CH4CHC4H3CHCS
_chemical_formula_sum              "Fe192 C1440 S384 H1728 N96"
_cell_length_a       57.9723
_cell_length_b       57.8466
_cell_length_c       84.8743
_cell_angle_alpha    90.9642
_cell_angle_beta     90.983
_cell_angle_gamma    117.572

_space_group_name_H-M_alt    "P 1"
_space_group_IT_number       1

loop_
  _space_group_symop_operation_xyz
  'x, y, z'

loop_
  _atom_site_type_symbol
  _atom_site_label
  _atom_site_symmetry_multiplicity
  _atom_site_fract_x
  _atom_site_fract_y
  _atom_site_fract_z
  _atom_site_occupancy
  Fe  Fe1       1.0  0.20447  0.00399  0.18053  1.0000
  C   C1        1.0  0.24631  0.23841  0.22520  1.0000
  C   C2        1.0  0.33995  0.05074  0.99471  1.0000
  C   C3        1.0  0.11396  0.21954  0.23525  1.0000
  Fe  Fe2       1.0  0.20380  0.03143  0.14990  1.0000
  S   S1        1.0  0.19877  0.06577  0.14060  1.0000
  S   S2        1.0  0.23592  0.02867  0.16383  1.0000
  Fe  Fe3       1.0  0.23498  0.26266  0.14696  1.0000
  S   S3        1.0  0.21098  0.21949  0.14131  1.0000
  S   S4        1.0  0.24254  0.28989  0.12592  1.0000
  Fe  Fe4       1.0  0.22965  0.25254  0.18303  1.0000
  S   S5        1.0  0.20560  0.20944  0.17940  1.0000
  S   S6        1.0  0.23314  0.27073  0.20744  1.0000
  Fe  Fe5       1.0  0.23409  0.21323  0.16084  1.0000
  S   S7        1.0  0.25328  0.18655  0.16071  1.0000
  Fe  Fe6       1.0  0.18469  0.21977  0.16045  1.0000
  S   S8        1.0  0.14058  0.19846  0.15891  1.0000
  S   S9        1.0  0.26003  0.25655  0.16550  1.0000
  S   S10       1.0  0.20705  0.26273  0.16509  1.0000
  Fe  Fe7       1.0  0.03158  0.24560  0.16045  1.0000
  S   S11       1.0  0.01946  0.27735  0.16292  1.0000
  S   S12       1.0  0.07533  0.26135  0.16325  1.0000
  H   H1        1.0  0.30404  0.98675  0.00162  1.0000
  S   S13       1.0  0.98779  0.27748  0.11912  1.0000
  H   H2        1.0  0.23905  0.17216  0.20504  1.0000
  C   C4        1.0  0.17394  0.05756  0.20303  1.0000
  Fe  Fe8       1.0  0.99401  0.25839  0.14139  1.0000
  C   C5        1.0  0.20933  0.17221  0.10467  1.0000
  C   C6        1.0  0.21279  0.15057  0.10818  1.0000
  C   C7        1.0  0.12245  0.21605  0.15946  1.0000
  C   C8        1.0  0.13476  0.24315  0.16179  1.0000
  C   C9        1.0  0.11995  0.25660  0.16291  1.0000
  C   C10       1.0  0.09269  0.24319  0.16155  1.0000
  C   C11       1.0  0.08026  0.21610  0.15915  1.0000
  C   C12       1.0  0.09513  0.20256  0.15817  1.0000
  H   H3        1.0  0.15563  0.25374  0.16287  1.0000
  H   H4        1.0  0.12964  0.27755  0.16483  1.0000
  H   H5        1.0  0.05924  0.20559  0.15810  1.0000
  H   H6        1.0  0.08544  0.18159  0.15641  1.0000
  C   C13       1.0  0.01014  0.30572  0.10902  1.0000
  S   S14       1.0  0.17317  0.00848  0.16704  1.0000
  C   C14       1.0  0.20149  0.12736  0.23124  1.0000
  H   H7        1.0  0.17047  0.21492  0.20077  1.0000
  H   H8        1.0  0.39411  0.03304  0.00203  1.0000
  C   C15       1.0  0.00992  0.25765  0.22003  1.0000
  C   C16       1.0  0.23757  0.25726  0.22513  1.0000
  H   H9        1.0  0.18884  0.01929  0.23814  1.0000
  H   H10       1.0  0.25036  0.23149  0.21419  1.0000
  C   C17       1.0  0.29334  0.00684  0.04356  1.0000
  C   C18       1.0  0.21412  0.09917  0.14660  1.0000
  C   C19       1.0  0.20094  0.11404  0.14402  1.0000
  C   C20       1.0  0.21232  0.14063  0.14870  1.0000
  C   C21       1.0  0.23744  0.15285  0.15546  1.0000
  C   C22       1.0  0.25073  0.13805  0.15787  1.0000
  C   C23       1.0  0.23906  0.11130  0.15360  1.0000
  H   H11       1.0  0.18166  0.10487  0.13854  1.0000
  H   H12       1.0  0.20192  0.15181  0.14670  1.0000
  H   H13       1.0  0.27023  0.14737  0.16303  1.0000
  H   H14       1.0  0.24956  0.10018  0.15544  1.0000
  H   H15       1.0  0.18314  0.05323  0.21342  1.0000
  H   H16       1.0  0.15226  0.19332  0.21601  1.0000
  S   S15       1.0  0.00082  0.21791  0.17629  1.0000
  N   N1        1.0  0.15016  0.22952  0.21577  1.0000
  C   C24       1.0  0.20897  0.00334  0.22404  1.0000
  H   H17       1.0  0.04145  0.26281  0.23598  1.0000
  H   H18       1.0  0.34386  0.02339  0.04983  1.0000
  H   H19       1.0  0.30350  0.02706  0.04858  1.0000
  H   H20       1.0  0.22541  0.07578  0.20087  1.0000
  H   H21       1.0  0.17645  0.26090  0.20154  1.0000
  H   H22       1.0  0.20171  0.30015  0.13998  1.0000
  H   H23       1.0  0.15823  0.26973  0.21528  1.0000
  C   C25       1.0  0.34519  0.06096  0.01008  1.0000
  C   C26       1.0  0.23695  0.15401  0.11371  1.0000
  C   C27       1.0  0.12935  0.22105  0.20327  1.0000
  H   H24       1.0  0.18288  0.22176  0.22037  1.0000
  H   H25       1.0  0.13739  0.22253  0.19130  1.0000
  H   H26       1.0  0.98454  0.20434  0.10708  1.0000
  C   C28       1.0  0.21790  0.15162  0.22520  1.0000
  H   H27       1.0  0.02116  0.26024  0.20956  1.0000
  H   H28       1.0  0.23936  0.13710  0.11683  1.0000
  H   H29       1.0  0.18349  0.30542  0.15516  1.0000
  H   H30       1.0  0.19662  0.13107  0.10691  1.0000
  C   C29       1.0  0.32022  0.01704  0.02052  1.0000
  H   H31       1.0  0.22400  0.16923  0.23244  1.0000
  N   N2        1.0  0.27717  0.22800  0.11498  1.0000
  C   C30       1.0  0.29927  0.23047  0.10535  1.0000
  C   C31       1.0  0.27112  0.24947  0.11073  1.0000
  C   C32       1.0  0.28552  0.23197  0.13184  1.0000
  C   C33       1.0  0.25488  0.20163  0.11244  1.0000
  C   C34       1.0  0.25766  0.17909  0.11593  1.0000
  C   C35       1.0  0.23000  0.19742  0.10667  1.0000
  C   C36       1.0  0.16822  0.25747  0.21355  1.0000
  N   N3        1.0  0.31081  0.99994  0.03425  1.0000
  H   H32       1.0  0.20915  0.06167  0.18238  1.0000
  H   H33       1.0  0.29327  0.22613  0.09267  1.0000
  H   H34       1.0  0.31593  0.25052  0.10635  1.0000
  H   H35       1.0  0.30694  0.21693  0.10906  1.0000
  H   H36       1.0  0.26545  0.24835  0.09803  1.0000
  H   H37       1.0  0.28808  0.26909  0.11292  1.0000
  H   H38       1.0  0.25516  0.24924  0.11793  1.0000
  H   H39       1.0  0.29266  0.21812  0.13582  1.0000
  H   H40       1.0  0.30144  0.25200  0.13450  1.0000
  H   H41       1.0  0.26896  0.22888  0.13941  1.0000
  H   H42       1.0  0.27572  0.18068  0.12076  1.0000
  H   H43       1.0  0.22579  0.21325  0.10387  1.0000
  S   S16       1.0  0.20100  0.01406  0.20631  1.0000
  N   N4        1.0  0.19232  0.08211  0.19557  1.0000
  H   H44       1.0  0.17249  0.06814  0.17291  1.0000
  C   C37       1.0  0.17880  0.08512  0.18135  1.0000
  C   C38       1.0  0.22635  0.15326  0.20980  1.0000
  C   C39       1.0  0.20122  0.10562  0.20603  1.0000
  C   C40       1.0  0.21829  0.13067  0.20037  1.0000
  C   C41       1.0  0.19323  0.10461  0.22188  1.0000
  C   C42       1.0  0.33326  0.00344  0.04450  1.0000
  C   C43       1.0  0.02140  0.25913  0.23503  1.0000
  C   C44       1.0  0.22344  0.98960  0.22437  1.0000
  H   H45       1.0  0.15590  0.05822  0.20665  1.0000
  C   C45       1.0  0.38033  0.01654  0.99493  1.0000
  H   H46       1.0  0.19037  0.16945  0.10059  1.0000
  H   H47       1.0  0.16133  0.08727  0.18451  1.0000
  C   C46       1.0  0.00206  0.31235  0.09477  1.0000
  H   H48       1.0  0.19146  0.10254  0.17467  1.0000
  C   C47       1.0  0.21507  0.07885  0.19058  1.0000
  H   H49       1.0  0.11933  0.23347  0.20321  1.0000
  C   C48       1.0  0.14025  0.22610  0.23198  1.0000
  H   H50       1.0  0.22539  0.13310  0.18849  1.0000
  H   H51       1.0  0.18039  0.08653  0.22727  1.0000
  H   H52       1.0  0.27650  0.00504  0.03618  1.0000
  H   H53       1.0  0.11468  0.20028  0.20449  1.0000
  Fe  Fe9       1.0  0.98705  0.24826  0.17733  1.0000
  H   H54       1.0  0.36837  0.99028  0.01454  1.0000
  H   H55       1.0  0.16774  0.04041  0.19476  1.0000
  H   H56       1.0  0.22940  0.09594  0.18424  1.0000
  C   C49       1.0  0.16449  0.21418  0.21321  1.0000
  C   C50       1.0  0.19533  0.31434  0.14468  1.0000
  S   S17       1.0  0.00747  0.22779  0.13832  1.0000
  C   C51       1.0  0.33537  0.04445  0.02283  1.0000
  H   H57       1.0  0.23979  0.31766  0.09878  1.0000
  H   H58       1.0  0.18510  0.26489  0.22204  1.0000
  H   H59       1.0  0.28542  0.99378  0.05377  1.0000
  C   C52       1.0  0.36564  0.99231  0.00211  1.0000
  H   H60       1.0  0.35718  0.08177  0.01211  1.0000
  C   C53       1.0  0.32463  0.02405  0.99201  1.0000
  H   H61       1.0  0.32698  0.98997  0.05458  1.0000
  H   H62       1.0  0.34000  0.05328  0.03453  1.0000
  S   S18       1.0  0.19472  0.99568  0.13462  1.0000
  C   C54       1.0  0.31498  0.00731  0.00465  1.0000
  C   C55       1.0  0.98435  0.25395  0.21868  1.0000
  H   H63       1.0  0.09970  0.21668  0.22606  1.0000
  C   C56       1.0  0.20016  0.00878  0.23829  1.0000
  H   H64       1.0  0.98268  0.29993  0.09000  1.0000
  C   C57       1.0  0.26743  0.31576  0.11539  1.0000
  H   H65       1.0  0.34743  0.99950  0.03775  1.0000
  H   H66       1.0  0.18214  0.31600  0.13560  1.0000
  H   H67       1.0  0.04180  0.31749  0.12597  1.0000
  Fe  Fe10      1.0  0.22433  0.99075  0.14966  1.0000
  H   H68       1.0  0.23433  0.31941  0.19923  1.0000
  H   H69       1.0  0.29988  0.31943  0.12981  1.0000
  H   H70       1.0  0.24657  0.99001  0.10813  1.0000
  Fe  Fe11      1.0  0.22008  0.02768  0.31773  1.0000
  S   S19       1.0  0.24729  0.01026  0.31347  1.0000
  S   S20       1.0  0.23900  0.07227  0.31942  1.0000
  H   H71       1.0  0.15845  0.29539  0.38412  1.0000
  N   N5        1.0  0.33541  0.00293  0.40646  1.0000
  H   H72       1.0  0.29441  0.00638  0.42002  1.0000
  Fe  Fe12      1.0  0.23649  0.24420  0.33039  1.0000
  S   S21       1.0  0.19368  0.21632  0.33234  1.0000
  S   S22       1.0  0.25550  0.26181  0.35476  1.0000
  Fe  Fe13      1.0  0.23431  0.22979  0.29471  1.0000
  S   S23       1.0  0.19170  0.20196  0.29477  1.0000
  S   S24       1.0  0.25379  0.22801  0.27199  1.0000
  Fe  Fe14      1.0  0.18846  0.23273  0.30963  1.0000
  S   S25       1.0  0.15960  0.24810  0.30453  1.0000
  Fe  Fe15      1.0  0.20119  0.18804  0.31733  1.0000
  S   S26       1.0  0.18241  0.14431  0.32176  1.0000
  S   S27       1.0  0.23084  0.26210  0.30814  1.0000
  S   S28       1.0  0.24413  0.21445  0.31677  1.0000
  Fe  Fe16      1.0  0.01616  0.21036  0.31476  1.0000
  S   S29       1.0  0.03198  0.25336  0.31213  1.0000
  S   S30       1.0  0.04014  0.19020  0.32147  1.0000
  C   C58       1.0  0.24760  0.18881  0.37889  1.0000
  C   C59       1.0  0.98142  0.25169  0.24743  1.0000
  C   C60       1.0  0.23392  0.10145  0.35818  1.0000
  C   C61       1.0  0.15732  0.23030  0.24516  1.0000
  H   H73       1.0  0.19767  0.09166  0.28418  1.0000
  C   C62       1.0  0.27202  0.20065  0.35520  1.0000
  H   H74       1.0  0.25105  0.20940  0.38028  1.0000
  H   H75       1.0  0.27391  0.22077  0.35561  1.0000
  C   C63       1.0  0.12627  0.23083  0.30876  1.0000
  C   C64       1.0  0.10958  0.24089  0.30375  1.0000
  C   C65       1.0  0.08302  0.22815  0.30722  1.0000
  C   C66       1.0  0.07302  0.20548  0.31599  1.0000
  C   C67       1.0  0.08964  0.19526  0.32090  1.0000
  C   C68       1.0  0.11619  0.20782  0.31722  1.0000
  H   H76       1.0  0.11722  0.25859  0.29709  1.0000
  H   H77       1.0  0.07037  0.23599  0.30314  1.0000
  H   H78       1.0  0.08202  0.17770  0.32767  1.0000
  H   H79       1.0  0.12890  0.19988  0.32109  1.0000
  H   H80       1.0  0.98749  0.10666  0.33146  1.0000
  H   H81       1.0  0.26180  0.09923  0.29107  1.0000
  C   C69       1.0  0.22558  0.15386  0.27238  1.0000
  H   H82       1.0  0.14505  0.25019  0.34127  1.0000
  H   H83       1.0  0.19198  0.13048  0.28578  1.0000
  C   C70       1.0  0.24616  0.23849  0.25406  1.0000
  C   C71       1.0  0.27378  0.01349  0.38378  1.0000
  C   C72       1.0  0.23644  0.25655  0.25392  1.0000
  C   C73       1.0  0.14847  0.22736  0.26058  1.0000
  H   H84       1.0  0.23285  0.26383  0.26495  1.0000
  C   C74       1.0  0.22266  0.09178  0.31935  1.0000
  C   C75       1.0  0.19582  0.08108  0.32137  1.0000
  C   C76       1.0  0.18383  0.09744  0.32203  1.0000
  C   C77       1.0  0.19844  0.12458  0.32051  1.0000
  C   C78       1.0  0.22522  0.13523  0.31817  1.0000
  C   C79       1.0  0.23723  0.11889  0.31762  1.0000
  H   H85       1.0  0.18435  0.06027  0.32275  1.0000
  H   H86       1.0  0.16311  0.08902  0.32382  1.0000
  H   H87       1.0  0.23670  0.15603  0.31686  1.0000
  H   H88       1.0  0.25800  0.12739  0.31605  1.0000
  Fe  Fe17      1.0  0.00502  0.24252  0.29066  1.0000
  C   C80       1.0  0.08282  0.28895  0.34069  1.0000
  H   H89       1.0  0.21520  0.06527  0.28922  1.0000
  H   H90       1.0  0.22248  0.04569  0.27606  1.0000
  C   C81       1.0  0.10616  0.27369  0.35799  1.0000
  H   H91       1.0  0.08530  0.21193  0.25304  1.0000
  C   C82       1.0  0.31490  0.00733  0.39850  1.0000
  H   H92       1.0  0.41373  0.25570  0.47392  1.0000
  N   N6        1.0  0.24727  0.18136  0.36208  1.0000
  H   H93       1.0  0.20660  0.17255  0.35911  1.0000
  C   C83       1.0  0.13871  0.26021  0.34975  1.0000
  C   C84       1.0  0.26281  0.14763  0.35575  1.0000
  H   H94       1.0  0.27303  0.19580  0.34255  1.0000
  C   C85       1.0  0.25045  0.13252  0.26321  1.0000
  H   H95       1.0  0.26650  0.28108  0.38692  1.0000
  C   C86       1.0  0.99285  0.11593  0.31979  1.0000
  H   H96       1.0  0.17229  0.27164  0.36509  1.0000
  N   N7        1.0  0.23850  0.08605  0.26967  1.0000
  C   C87       1.0  0.26298  0.09286  0.27877  1.0000
  C   C88       1.0  0.21767  0.06223  0.27652  1.0000
  C   C89       1.0  0.24154  0.07918  0.25316  1.0000
  C   C90       1.0  0.23308  0.10871  0.27014  1.0000
  H   H97       1.0  0.36536  0.02137  0.38944  1.0000
  C   C91       1.0  0.21160  0.10850  0.27815  1.0000
  H   H98       1.0  0.19043  0.30886  0.33541  1.0000
  C   C92       1.0  0.20803  0.13080  0.27918  1.0000
  C   C93       1.0  0.29487  0.00844  0.40738  1.0000
  C   C94       1.0  0.25101  0.22941  0.23964  1.0000
  H   H99       1.0  0.07207  0.27572  0.37942  1.0000
  C   C95       1.0  0.31349  0.00961  0.38188  1.0000
  H   H100      1.0  0.33658  0.02336  0.42834  1.0000
  H   H101      1.0  0.32726  0.00818  0.37404  1.0000
  H   H102      1.0  0.19767  0.00366  0.26348  1.0000
  C   C96       1.0  0.98058  0.13300  0.29745  1.0000
  H   H103      1.0  0.28017  0.10897  0.27347  1.0000
  C   C97       1.0  0.15409  0.27235  0.36313  1.0000
  C   C98       1.0  0.35509  0.00259  0.39557  1.0000
  S   S31       1.0  0.02329  0.25985  0.26739  1.0000
  H   H104      1.0  0.26048  0.17294  0.25931  1.0000
  H   H105      1.0  0.26713  0.07592  0.27961  1.0000
  H   H106      1.0  0.98120  0.20167  0.25071  1.0000
  Fe  Fe18      1.0  0.99780  0.24931  0.32611  1.0000
  C   C99       1.0  0.20530  0.00014  0.25270  1.0000
  H   H107      1.0  0.11582  0.21828  0.27534  1.0000
  C   C100      1.0  0.00730  0.25631  0.24881  1.0000
  H   H108      1.0  0.25921  0.01161  0.40705  1.0000
  C   C101      1.0  0.27612  0.29780  0.37956  1.0000
  H   H109      1.0  0.25874  0.09479  0.24756  1.0000
  C   C102      1.0  0.05978  0.24684  0.35233  1.0000
  H   H110      1.0  0.05877  0.23427  0.36235  1.0000
  H   H111      1.0  0.37022  0.99926  0.40194  1.0000
  H   H112      1.0  0.22303  0.17126  0.27355  1.0000
  C   C103      1.0  0.27376  0.29420  0.36302  1.0000
  C   C104      1.0  0.36043  0.01391  0.47564  1.0000
  S   S32       1.0  0.00288  0.27238  0.34954  1.0000
  H   H113      1.0  0.28936  0.20194  0.36176  1.0000
  H   H114      1.0  0.35389  0.02355  0.46720  1.0000
  H   H115      1.0  0.04036  0.24631  0.35090  1.0000
  S   S33       1.0  0.19956  0.99945  0.33674  1.0000
  S   S34       1.0  0.98313  0.20608  0.32988  1.0000
  S   S35       1.0  0.19093  0.00354  0.29868  1.0000
  H   H116      1.0  0.00844  0.29243  0.38136  1.0000
  H   H117      1.0  0.35817  0.04331  0.41356  1.0000
  H   H118      1.0  0.44331  0.26552  0.48536  1.0000
  H   H119      1.0  0.22881  0.17631  0.38452  1.0000
  H   H120      1.0  0.34602  0.98635  0.38660  1.0000
  C   C105      1.0  0.14623  0.28568  0.37382  1.0000
  C   C106      1.0  0.34945  0.02360  0.41872  1.0000
  C   C107      1.0  0.24669  0.15471  0.26435  1.0000
  H   H121      1.0  0.25767  0.01497  0.37804  1.0000
  H   H122      1.0  0.19866  0.05573  0.27016  1.0000
  C   C108      1.0  0.11516  0.26091  0.34716  1.0000
  H   H123      1.0  0.20326  0.13634  0.36908  1.0000
  C   C109      1.0  0.02192  0.30456  0.35793  1.0000
  H   H124      1.0  0.26753  0.13442  0.25725  1.0000
  H   H125      1.0  0.05356  0.28416  0.36595  1.0000
  C   C110      1.0  0.21446  0.10714  0.36345  1.0000
  N   N8        1.0  0.08099  0.27389  0.35498  1.0000
  H   H126      1.0  0.06216  0.23740  0.34141  1.0000
  H   H127      1.0  0.23008  0.08133  0.35653  1.0000
  H   H128      1.0  0.08631  0.27982  0.32994  1.0000
  H   H129      1.0  0.26325  0.18699  0.38569  1.0000
  C   C111      1.0  0.12269  0.28653  0.37133  1.0000
  H   H130      1.0  0.99883  0.10412  0.31197  1.0000
  C   C112      1.0  0.21903  0.13304  0.36494  1.0000
  C   C113      1.0  0.12252  0.22045  0.26335  1.0000
  C   C114      1.0  0.27462  0.01141  0.40008  1.0000
  H   H131      1.0  0.22387  0.17654  0.34131  1.0000
  C   C115      1.0  0.29328  0.01282  0.37475  1.0000
  H   H132      1.0  0.27289  0.11694  0.35001  1.0000
  H   H133      1.0  0.29203  0.01365  0.36201  1.0000
  C   C116      1.0  0.25809  0.12164  0.35447  1.0000
  H   H134      1.0  0.36535  0.02094  0.42467  1.0000
  H   H135      1.0  0.11786  0.29729  0.38003  1.0000
  H   H136      1.0  0.10404  0.25135  0.33657  1.0000
  H   H137      1.0  0.16187  0.23075  0.27050  1.0000
  C   C117      1.0  0.24317  0.15411  0.36081  1.0000
  C   C118      1.0  0.22583  0.18373  0.35371  1.0000
  H   H138      1.0  0.06449  0.29033  0.33836  1.0000
  H   H139      1.0  0.19554  0.09133  0.36607  1.0000
  H   H140      1.0  0.28179  0.16218  0.35237  1.0000
  H   H141      1.0  0.22922  0.20432  0.35355  1.0000
  H   H142      1.0  0.22401  0.07519  0.24575  1.0000
  C   C119      1.0  0.10536  0.21674  0.25074  1.0000
  H   H143      1.0  0.25884  0.21569  0.23967  1.0000
  H   H144      1.0  0.24439  0.06137  0.25249  1.0000
  H   H145      1.0  0.28513  0.31384  0.34103  1.0000
  H   H146      1.0  0.01063  0.13494  0.32196  1.0000
  H   H147      1.0  0.08662  0.30702  0.36981  1.0000
  C   C120      1.0  0.35829  0.98919  0.47172  1.0000
  H   H148      1.0  0.98384  0.15476  0.32671  1.0000
  C   C121      1.0  0.02101  0.30863  0.37429  1.0000
  H   H149      1.0  0.17775  0.23620  0.24370  1.0000
  C   C122      1.0  0.23262  0.26622  0.23954  1.0000
  H   H150      1.0  0.22610  0.28097  0.23963  1.0000
  S   S36       1.0  0.99193  0.19976  0.29254  1.0000
  C   C123      1.0  0.42544  0.26797  0.48421  1.0000
  H   H151      1.0  0.43209  0.28880  0.48132  1.0000
  H   H152      1.0  0.19492  0.12624  0.24322  1.0000
  C   C124      1.0  0.07321  0.28577  0.36818  1.0000
  C   C125      1.0  0.28651  0.31613  0.35375  1.0000
  H   H153      1.0  0.99932  0.15127  0.29922  1.0000
  H   H154      1.0  0.98385  0.12032  0.28872  1.0000
  H   H155      1.0  0.22889  0.30719  0.34733  1.0000
  H   H156      1.0  0.37553  0.25765  0.48656  1.0000
  H   H157      1.0  0.09898  0.30921  0.34194  1.0000
  C   C126      1.0  0.21995  0.98658  0.25309  1.0000
  Fe  Fe19      1.0  0.45377  0.10197  0.55430  1.0000
  S   S37       1.0  0.43445  0.10527  0.53163  1.0000
  Fe  Fe20      1.0  0.40058  0.07872  0.57184  1.0000
  S   S38       1.0  0.37872  0.07982  0.54999  1.0000
  S   S39       1.0  0.38397  0.06538  0.59665  1.0000
  Fe  Fe21      1.0  0.40263  0.06472  0.53646  1.0000
  S   S40       1.0  0.38900  0.02673  0.52138  1.0000
  Fe  Fe22      1.0  0.41230  0.12048  0.54694  1.0000
  S   S41       1.0  0.40044  0.15306  0.54232  1.0000
  S   S42       1.0  0.42273  0.06128  0.55872  1.0000
  S   S43       1.0  0.43337  0.11962  0.56924  1.0000
  H   H158      1.0  0.44452  0.09053  0.59794  1.0000
  N   N9        1.0  0.41000  0.26084  0.49873  1.0000
  S   S44       1.0  0.45178  0.27836  0.54989  1.0000
  S   S45       1.0  0.00450  0.28047  0.63021  1.0000
  C   C127      1.0  0.17500  0.27271  0.70549  1.0000
  H   H159      1.0  0.18078  0.27698  0.69297  1.0000
  H   H160      1.0  0.44441  0.27372  0.51399  1.0000
  Fe  Fe23      1.0  0.22584  0.03079  0.67235  1.0000
  S   S46       1.0  0.23407  0.06978  0.68333  1.0000
  S   S47       1.0  0.26031  0.02291  0.67288  1.0000
  Fe  Fe24      1.0  0.20364  0.23108  0.65258  1.0000
  S   S48       1.0  0.24616  0.25896  0.65720  1.0000
  S   S49       1.0  0.17315  0.24436  0.64627  1.0000
  Fe  Fe25      1.0  0.21302  0.18361  0.65581  1.0000
  S   S50       1.0  0.25577  0.20748  0.66148  1.0000
  S   S51       1.0  0.19006  0.14002  0.65140  1.0000
  Fe  Fe26      1.0  0.24295  0.23158  0.67676  1.0000
  S   S52       1.0  0.25889  0.25039  0.70096  1.0000
  Fe  Fe27      1.0  0.25604  0.23296  0.64146  1.0000
  S   S53       1.0  0.28263  0.23803  0.62038  1.0000
  S   S54       1.0  0.20013  0.20531  0.67276  1.0000
  S   S55       1.0  0.21355  0.20749  0.63520  1.0000
  H   H161      1.0  0.41613  0.27146  0.52337  1.0000
  H   H162      1.0  0.99077  0.18047  0.70872  1.0000
  C   C128      1.0  0.18168  0.25357  0.73009  1.0000
  C   C129      1.0  0.08548  0.14087  0.65132  1.0000
  Fe  Fe28      1.0  0.02604  0.22062  0.66400  1.0000
  S   S56       1.0  0.06004  0.21356  0.67265  1.0000
  S   S57       1.0  0.02076  0.25536  0.67180  1.0000
  H   H163      1.0  0.47656  0.11334  0.60481  1.0000
  C   C130      1.0  0.00234  0.25736  0.72614  1.0000
  H   H164      1.0  0.01219  0.26789  0.71586  1.0000
  C   C131      1.0  0.14212  0.23623  0.65417  1.0000
  C   C132      1.0  0.12584  0.24473  0.64646  1.0000
  C   C133      1.0  0.10083  0.23831  0.65201  1.0000
  C   C134      1.0  0.09176  0.22323  0.66539  1.0000
  C   C135      1.0  0.10818  0.21499  0.67324  1.0000
  C   C136      1.0  0.13323  0.22151  0.66772  1.0000
  H   H165      1.0  0.13258  0.25632  0.63605  1.0000
  H   H166      1.0  0.08852  0.24489  0.64587  1.0000
  H   H167      1.0  0.10136  0.20326  0.68356  1.0000
  H   H168      1.0  0.14557  0.21507  0.67392  1.0000
  C   C137      1.0  0.25055  0.23402  0.71904  1.0000
  C   C138      1.0  0.23445  0.20712  0.71960  1.0000
  H   H169      1.0  0.47459  0.08313  0.62616  1.0000
  H   H170      1.0  0.22732  0.19567  0.70875  1.0000
  C   C139      1.0  0.21203  0.09465  0.72639  1.0000
  C   C140      1.0  0.22156  0.08892  0.67429  1.0000
  C   C141      1.0  0.20165  0.07834  0.66274  1.0000
  C   C142      1.0  0.19195  0.09415  0.65586  1.0000
  C   C143      1.0  0.20238  0.12063  0.66034  1.0000
  C   C144      1.0  0.22247  0.13122  0.67176  1.0000
  C   C145      1.0  0.23190  0.11534  0.67880  1.0000
  H   H171      1.0  0.19347  0.05793  0.65928  1.0000
  H   H172      1.0  0.17637  0.08589  0.64704  1.0000
  H   H173      1.0  0.23056  0.15159  0.67529  1.0000
  H   H174      1.0  0.24734  0.12363  0.68771  1.0000
  C   C146      1.0  0.46231  0.06699  0.61769  1.0000
  H   H175      1.0  0.28753  0.02924  0.59333  1.0000
  H   H176      1.0  0.03028  0.16095  0.71239  1.0000
  C   C147      1.0  0.32510  0.28805  0.61861  1.0000
  C   C148      1.0  0.30996  0.26362  0.61126  1.0000
  C   C149      1.0  0.31708  0.25884  0.59621  1.0000
  C   C150      1.0  0.33872  0.27819  0.58855  1.0000
  N   N10       1.0  0.03014  0.19730  0.71841  1.0000
  H   H177      1.0  0.00625  0.29996  0.59902  1.0000
  H   H178      1.0  0.30545  0.24015  0.59032  1.0000
  H   H179      1.0  0.02845  0.22031  0.69909  1.0000
  C   C151      1.0  0.35162  0.05238  0.60426  1.0000
  C   C152      1.0  0.32947  0.04557  0.59458  1.0000
  C   C153      1.0  0.30434  0.03464  0.60108  1.0000
  C   C154      1.0  0.30073  0.03037  0.61738  1.0000
  C   C155      1.0  0.32291  0.03759  0.62712  1.0000
  C   C156      1.0  0.34804  0.04836  0.62060  1.0000
  H   H180      1.0  0.33166  0.04841  0.58202  1.0000
  H   H181      1.0  0.15369  0.25927  0.70521  1.0000
  H   H182      1.0  0.32073  0.03447  0.63965  1.0000
  H   H183      1.0  0.36486  0.05344  0.62829  1.0000
  C   C157      1.0  0.37858  0.01373  0.50178  1.0000
  H   H184      1.0  0.47330  0.24247  0.55155  1.0000
  H   H185      1.0  0.22213  0.02840  0.72736  1.0000
  C   C158      1.0  0.41508  0.18785  0.54522  1.0000
  C   C159      1.0  0.39927  0.20040  0.54407  1.0000
  C   C160      1.0  0.40998  0.22789  0.54541  1.0000
  C   C161      1.0  0.43679  0.24340  0.54812  1.0000
  C   C162      1.0  0.45255  0.23084  0.54946  1.0000
  C   C163      1.0  0.44185  0.20335  0.54802  1.0000
  H   H186      1.0  0.37855  0.18874  0.54195  1.0000
  H   H187      1.0  0.39740  0.23692  0.54427  1.0000
  H   H188      1.0  0.16989  0.98653  0.60181  1.0000
  C   C164      1.0  0.37264  0.20985  0.58784  1.0000
  C   C165      1.0  0.36967  0.18476  0.58482  1.0000
  C   C166      1.0  0.39145  0.18077  0.58327  1.0000
  H   H189      1.0  0.35514  0.21204  0.58847  1.0000
  H   H190      1.0  0.35039  0.16835  0.58327  1.0000
  H   H191      1.0  0.39673  0.28956  0.49428  1.0000
  H   H192      1.0  0.37737  0.26512  0.50756  1.0000
  H   H193      1.0  0.46168  0.05551  0.57829  1.0000
  C   C167      1.0  0.40986  0.19603  0.50615  1.0000
  H   H194      1.0  0.99466  0.16570  0.72643  1.0000
  C   C168      1.0  0.04352  0.20181  0.73405  1.0000
  Fe  Fe29      1.0  0.99815  0.24936  0.64853  1.0000
  H   H195      1.0  0.14772  0.18655  0.65359  1.0000
  C   C169      1.0  0.42689  0.27662  0.51218  1.0000
  H   H196      1.0  0.39192  0.28508  0.57836  1.0000
  H   H197      1.0  0.05960  0.23278  0.70891  1.0000
  H   H198      1.0  0.15654  0.27243  0.73263  1.0000
  C   C170      1.0  0.25684  0.00369  0.72471  1.0000
  C   C171      1.0  0.21775  0.28025  0.71389  1.0000
  H   H199      1.0  0.34327  0.27439  0.57680  1.0000
  H   H200      1.0  0.09178  0.12773  0.65649  1.0000
  H   H201      1.0  0.31907  0.98876  0.50212  1.0000
  H   H202      1.0  0.26669  0.01503  0.71467  1.0000
  C   C172      1.0  0.39036  0.26522  0.57723  1.0000
  H   H203      1.0  0.37183  0.04500  0.49338  1.0000
  H   H204      1.0  0.23019  0.27233  0.71923  1.0000
  H   H205      1.0  0.32002  0.29215  0.63016  1.0000
  H   H206      1.0  0.43985  0.28114  0.58420  1.0000
  H   H207      1.0  0.47065  0.10145  0.58456  1.0000
  C   C173      1.0  0.06749  0.17429  0.63918  1.0000
  H   H208      1.0  0.39048  0.25266  0.61614  1.0000
  H   H209      1.0  0.19021  0.24255  0.69142  1.0000
  N   N11       1.0  0.28506  0.10363  0.64300  1.0000
  C   C174      1.0  0.30604  0.10443  0.63287  1.0000
  C   C175      1.0  0.29432  0.10766  0.65971  1.0000
  C   C176      1.0  0.26291  0.07694  0.64128  1.0000
  C   C177      1.0  0.27819  0.12446  0.63867  1.0000
  C   C178      1.0  0.29760  0.15098  0.63893  1.0000
  C   C179      1.0  0.25233  0.11938  0.63459  1.0000
  C   C180      1.0  0.29153  0.17105  0.63517  1.0000
  C   C181      1.0  0.24653  0.13962  0.63084  1.0000
  C   C182      1.0  0.26605  0.16536  0.63111  1.0000
  H   H210      1.0  0.32462  0.12262  0.63472  1.0000
  H   H211      1.0  0.31056  0.08800  0.63525  1.0000
  H   H212      1.0  0.30024  0.10281  0.62016  1.0000
  H   H213      1.0  0.31254  0.12619  0.66174  1.0000
  H   H214      1.0  0.29824  0.09157  0.66379  1.0000
  H   H215      1.0  0.27944  0.10836  0.66758  1.0000
  H   H216      1.0  0.25494  0.07247  0.62895  1.0000
  H   H217      1.0  0.26885  0.06172  0.64427  1.0000
  H   H218      1.0  0.24702  0.07423  0.64939  1.0000
  H   H219      1.0  0.31755  0.15644  0.64228  1.0000
  H   H220      1.0  0.23607  0.10003  0.63448  1.0000
  H   H221      1.0  0.30649  0.19125  0.63556  1.0000
  H   H222      1.0  0.22660  0.13542  0.62805  1.0000
  H   H223      1.0  0.26137  0.18101  0.62835  1.0000
  C   C183      1.0  0.00149  0.18449  0.72028  1.0000
  H   H224      1.0  0.42863  0.29844  0.59679  1.0000
  H   H225      1.0  0.43403  0.29787  0.51054  1.0000
  Fe  Fe30      1.0  0.24670  0.00529  0.64840  1.0000
  H   H226      1.0  0.18907  0.01609  0.71977  1.0000
  S   S58       1.0  0.26812  0.01576  0.62471  1.0000
  Fe  Fe31      1.0  0.43888  0.31059  0.54859  1.0000
  S   S59       1.0  0.21327  0.01521  0.64764  1.0000
  H   H227      1.0  0.34478  0.17511  0.50660  1.0000
  C   C184      1.0  0.45473  0.05146  0.59060  1.0000
  H   H228      1.0  0.22498  0.28606  0.70176  1.0000
  N   N12       1.0  0.18977  0.26096  0.71368  1.0000
  H   H229      1.0  0.12570  0.17483  0.61153  1.0000
  H   H230      1.0  0.15687  0.17961  0.61877  1.0000
  H   H231      1.0  0.36956  0.25149  0.57456  1.0000
  H   H232      1.0  0.38915  0.16145  0.58039  1.0000
  C   C185      1.0  0.41627  0.20185  0.58480  1.0000
  C   C186      1.0  0.13831  0.17928  0.62234  1.0000
  H   H233      1.0  0.10614  0.12735  0.61848  1.0000
  H   H234      1.0  0.13903  0.13460  0.62411  1.0000
  H   H235      1.0  0.14371  0.19952  0.62659  1.0000
  H   H236      1.0  0.46332  0.04916  0.62143  1.0000
  S   S60       1.0  0.39753  0.30318  0.54459  1.0000
  C   C187      1.0  0.39768  0.23182  0.58941  1.0000
  C   C188      1.0  0.41834  0.22250  0.50353  1.0000
  C   C189      1.0  0.37066  0.02619  0.49051  1.0000
  C   C190      1.0  0.12073  0.13408  0.62843  1.0000
  H   H237      1.0  0.16274  0.16863  0.64502  1.0000
  H   H238      1.0  0.10123  0.19067  0.62559  1.0000
  C   C191      1.0  0.34702  0.30723  0.61106  1.0000
  C   C192      1.0  0.36531  0.18840  0.50550  1.0000
  H   H239      1.0  0.43312  0.19871  0.58307  1.0000
  H   H240      1.0  0.45438  0.19418  0.54889  1.0000
  N   N13       1.0  0.12535  0.16000  0.63476  1.0000
  H   H241      1.0  0.11365  0.11890  0.63751  1.0000
  H   H242      1.0  0.03347  0.23609  0.71792  1.0000
  H   H243      1.0  0.21542  0.17413  0.73457  1.0000
  H   H244      1.0  0.38765  0.27958  0.60764  1.0000
  C   C193      1.0  0.14376  0.16724  0.64845  1.0000
  C   C194      1.0  0.25965  0.24863  0.73326  1.0000
  C   C195      1.0  0.41950  0.22706  0.58771  1.0000
  C   C196      1.0  0.98763  0.29616  0.60373  1.0000
  H   H245      1.0  0.17876  0.29171  0.71108  1.0000
  C   C197      1.0  0.46557  0.09585  0.59699  1.0000
  C   C198      1.0  0.10055  0.15891  0.63985  1.0000
  C   C199      1.0  0.09088  0.17576  0.63397  1.0000
  H   H246      1.0  0.13658  0.15278  0.65794  1.0000
  S   S61       1.0  0.98861  0.19152  0.67458  1.0000
  H   H247      1.0  0.03551  0.15598  0.65471  1.0000
  H   H248      1.0  0.42386  0.18873  0.50806  1.0000
  N   N14       1.0  0.47090  0.07395  0.60131  1.0000
  H   H249      1.0  0.43912  0.23496  0.50331  1.0000
  C   C200      1.0  0.05327  0.15643  0.65047  1.0000
  C   C201      1.0  0.38484  0.25940  0.60522  1.0000
  H   H250      1.0  0.43928  0.24255  0.58805  1.0000
  H   H251      1.0  0.06072  0.18771  0.63484  1.0000
  H   H252      1.0  0.43652  0.27458  0.60509  1.0000
  N   N15       1.0  0.40027  0.25839  0.59166  1.0000
  H   H253      1.0  0.44167  0.06298  0.61902  1.0000
  H   H254      1.0  0.05113  0.12596  0.66537  1.0000
  S   S62       1.0  0.00630  0.21657  0.64023  1.0000
  C   C202      1.0  0.22775  0.19497  0.73426  1.0000
  C   C203      1.0  0.06221  0.13972  0.65651  1.0000
  C   C204      1.0  0.42755  0.27889  0.59460  1.0000
  H   H255      1.0  0.21980  0.10484  0.71557  1.0000
  H   H256      1.0  0.36353  0.24739  0.60314  1.0000
  C   C205      1.0  0.37355  0.21486  0.50281  1.0000
  H   H257      1.0  0.43384  0.04707  0.59050  1.0000
  H   H258      1.0  0.40166  0.26493  0.56684  1.0000
  C   C206      1.0  0.06198  0.19279  0.73772  1.0000
  H   H259      1.0  0.02501  0.17709  0.69597  1.0000
  H   H260      1.0  0.19808  0.99682  0.73234  1.0000
  H   H261      1.0  0.05684  0.18977  0.70440  1.0000
  C   C207      1.0  0.35406  0.30251  0.59599  1.0000
  H   H262      1.0  0.21521  0.06150  0.71841  1.0000
  C   C208      1.0  0.03590  0.18046  0.70745  1.0000
  C   C209      1.0  0.18612  0.23776  0.70406  1.0000
  C   C210      1.0  0.98107  0.28536  0.61877  1.0000
  C   C211      1.0  0.03826  0.22271  0.71082  1.0000
  H   H263      1.0  0.27215  0.26946  0.73294  1.0000
  H   H264      1.0  0.37707  0.15868  0.50972  1.0000
  H   H265      1.0  0.16587  0.22173  0.70473  1.0000
  H   H266      1.0  0.06734  0.18210  0.72926  1.0000
  H   H267      1.0  0.20497  0.23326  0.73362  1.0000
  H   H268      1.0  0.19970  0.23005  0.70772  1.0000
  H   H269      1.0  0.22151  0.29816  0.72087  1.0000
  H   H270      1.0  0.45520  0.03325  0.59403  1.0000
  C   C212      1.0  0.40045  0.23274  0.50166  1.0000
  C   C213      1.0  0.38341  0.17902  0.50713  1.0000
  C   C214      1.0  0.20918  0.06947  0.72820  1.0000
  C   C215      1.0  0.38887  0.26840  0.49669  1.0000
  H   H271      1.0  0.20097  0.99664  0.61128  1.0000
  H   H272      1.0  0.35849  0.22081  0.50185  1.0000
  C   C216      1.0  0.20123  0.01706  0.73031  1.0000
  S   S63       1.0  0.19830  0.99310  0.68292  1.0000
  Fe  Fe32      1.0  0.98256  0.22591  0.68138  1.0000
  H   H273      1.0  0.99496  0.19679  0.72709  1.0000
  C   C217      1.0  0.37678  0.98918  0.49774  1.0000
  C   C218      1.0  0.97872  0.23451  0.72428  1.0000
  H   H274      1.0  0.20653  0.12592  0.73671  1.0000
  C   C219      1.0  0.16492  0.26129  0.73816  1.0000
  C   C220      1.0  0.20458  0.10652  0.73827  1.0000
  C   C221      1.0  0.25123  0.00029  0.75323  1.0000
  H   H275      1.0  0.44066  0.05788  0.95539  1.0000
  S   S64       1.0  0.44086  0.27702  0.92154  1.0000
  C   C222      1.0  0.30634  0.21332  0.86995  1.0000
  H   H276      1.0  0.15375  0.01207  0.73880  1.0000
  S   S65       1.0  0.38932  0.30280  0.93357  1.0000
  Fe  Fe33      1.0  0.39887  0.06928  0.94606  1.0000
  S   S66       1.0  0.41391  0.05782  0.92447  1.0000
  S   S67       1.0  0.39517  0.05120  0.97058  1.0000
  Fe  Fe34      1.0  0.40510  0.12084  0.93094  1.0000
  S   S68       1.0  0.42115  0.11257  0.90883  1.0000
  S   S69       1.0  0.39457  0.15445  0.93511  1.0000
  Fe  Fe35      1.0  0.38882  0.07129  0.91034  1.0000
  S   S70       1.0  0.36881  0.05036  0.88687  1.0000
  Fe  Fe36      1.0  0.44489  0.09964  0.92448  1.0000
  S   S71       1.0  0.37164  0.07980  0.93199  1.0000
  S   S72       1.0  0.43098  0.11091  0.94653  1.0000
  Fe  Fe37      1.0  0.19808  0.01674  0.80922  1.0000
  S   S73       1.0  0.24144  0.03469  0.81037  1.0000
  S   S74       1.0  0.17848  0.04108  0.80194  1.0000
  H   H277      1.0  0.39348  0.23932  0.93724  1.0000
  Fe  Fe38      1.0  0.19730  0.22562  0.81373  1.0000
  S   S75       1.0  0.23454  0.24924  0.80078  1.0000
  S   S76       1.0  0.16731  0.24090  0.81063  1.0000
  Fe  Fe39      1.0  0.21569  0.18597  0.82338  1.0000
  S   S77       1.0  0.25307  0.20675  0.81089  1.0000
  S   S78       1.0  0.21323  0.15061  0.83584  1.0000
  Fe  Fe40      1.0  0.25552  0.24338  0.82204  1.0000
  S   S79       1.0  0.29648  0.27225  0.83195  1.0000
  Fe  Fe41      1.0  0.22900  0.21054  0.79108  1.0000
  S   S80       1.0  0.22803  0.19323  0.76653  1.0000
  S   S81       1.0  0.21876  0.22238  0.83558  1.0000
  S   S82       1.0  0.19113  0.18727  0.80305  1.0000
  H   H278      1.0  0.16171  0.01590  0.75962  1.0000
  Fe  Fe42      1.0  0.00042  0.23938  0.79498  1.0000
  C   C223      1.0  0.14072  0.27065  0.84144  1.0000
  S   S83       1.0  0.01475  0.26529  0.77379  1.0000
  Fe  Fe43      1.0  0.01675  0.20783  0.81640  1.0000
  S   S84       1.0  0.04519  0.19201  0.82272  1.0000
  S   S85       1.0  0.02779  0.25045  0.81619  1.0000
  C   C224      1.0  0.35650  0.24711  0.86039  1.0000
  H   H279      1.0  0.29816  0.18267  0.77586  1.0000
  H   H280      1.0  0.15161  0.24961  0.85798  1.0000
  C   C225      1.0  0.13299  0.22568  0.81311  1.0000
  C   C226      1.0  0.11856  0.23754  0.80679  1.0000
  C   C227      1.0  0.09169  0.22744  0.80949  1.0000
  C   C228      1.0  0.07886  0.20522  0.81851  1.0000
  C   C229      1.0  0.09318  0.19308  0.82456  1.0000
  C   C230      1.0  0.12006  0.20319  0.82188  1.0000
  H   H281      1.0  0.12839  0.25499  0.80005  1.0000
  H   H282      1.0  0.08101  0.23704  0.80478  1.0000
  H   H283      1.0  0.08346  0.17584  0.83150  1.0000
  H   H284      1.0  0.13086  0.19390  0.82685  1.0000
  H   H285      1.0  0.99922  0.29227  0.82229  1.0000
  C   C231      1.0  0.23665  0.20963  0.74847  1.0000
  C   C232      1.0  0.25255  0.23656  0.74792  1.0000
  H   H286      1.0  0.34968  0.30291  0.84286  1.0000
  H   H287      1.0  0.25964  0.24803  0.75877  1.0000
  C   C233      1.0  0.19090  0.07322  0.80968  1.0000
  C   C234      1.0  0.17862  0.08831  0.80554  1.0000
  C   C235      1.0  0.18649  0.11300  0.81276  1.0000
  C   C236      1.0  0.20655  0.12257  0.82426  1.0000
  C   C237      1.0  0.21950  0.10790  0.82787  1.0000
  C   C238      1.0  0.21179  0.08335  0.82058  1.0000
  H   H288      1.0  0.16239  0.08054  0.79713  1.0000
  H   H289      1.0  0.17620  0.12405  0.81001  1.0000
  H   H290      1.0  0.23517  0.11530  0.83664  1.0000
  H   H291      1.0  0.22142  0.07191  0.82388  1.0000
  C   C239      1.0  0.33777  0.04315  0.87808  1.0000
  C   C240      1.0  0.31860  0.04622  0.88633  1.0000
  C   C241      1.0  0.29410  0.03946  0.87902  1.0000
  C   C242      1.0  0.28840  0.02985  0.86330  1.0000
  C   C243      1.0  0.30758  0.02689  0.85501  1.0000
  C   C244      1.0  0.33200  0.03338  0.86238  1.0000
  H   H292      1.0  0.32258  0.05357  0.89840  1.0000
  H   H293      1.0  0.30362  0.01947  0.84296  1.0000
  H   H294      1.0  0.34655  0.03084  0.85585  1.0000
  C   C245      1.0  0.46848  0.12005  0.87867  1.0000
  C   C246      1.0  0.37691  0.01977  0.97877  1.0000
  H   H295      1.0  0.02677  0.23049  0.86163  1.0000
  H   H296      1.0  0.03699  0.19930  0.87105  1.0000
  H   H297      1.0  0.07761  0.21433  0.77595  1.0000
  C   C247      1.0  0.06837  0.21106  0.76433  1.0000
  C   C248      1.0  0.33527  0.29946  0.88188  1.0000
  C   C249      1.0  0.30802  0.28451  0.88006  1.0000
  C   C250      1.0  0.29583  0.27585  0.86500  1.0000
  C   C251      1.0  0.31068  0.28245  0.85141  1.0000
  C   C252      1.0  0.19442  0.09335  0.75210  1.0000
  S   S86       1.0  0.34929  0.31054  0.90128  1.0000
  H   H298      1.0  0.29616  0.27963  0.89038  1.0000
  H   H299      1.0  0.27490  0.26440  0.86388  1.0000
  H   H300      1.0  0.12454  0.28886  0.82614  1.0000
  C   C253      1.0  0.42781  0.24307  0.92578  1.0000
  C   C254      1.0  0.44129  0.22935  0.92085  1.0000
  C   C255      1.0  0.43153  0.20238  0.92354  1.0000
  C   C256      1.0  0.40800  0.18857  0.93121  1.0000
  C   C257      1.0  0.39438  0.20225  0.93599  1.0000
  C   C258      1.0  0.40416  0.22923  0.93334  1.0000
  C   C259      1.0  0.05731  0.20908  0.86682  1.0000
  H   H301      1.0  0.44233  0.19232  0.91978  1.0000
  H   H302      1.0  0.37619  0.19188  0.94194  1.0000
  N   N16       1.0  0.16354  0.05092  0.85632  1.0000
  C   C260      1.0  0.14735  0.03828  0.86998  1.0000
  C   C261      1.0  0.15389  0.06832  0.84927  1.0000
  C   C262      1.0  0.15973  0.03044  0.84422  1.0000
  C   C263      1.0  0.19118  0.06504  0.86177  1.0000
  C   C264      1.0  0.20449  0.09259  0.86431  1.0000
  C   C265      1.0  0.20527  0.05114  0.86548  1.0000
  C   C266      1.0  0.23050  0.10531  0.86965  1.0000
  C   C267      1.0  0.23122  0.06408  0.87087  1.0000
  C   C268      1.0  0.24386  0.09110  0.87285  1.0000
  H   H303      1.0  0.14936  0.05304  0.87924  1.0000
  H   H304      1.0  0.12634  0.02713  0.86646  1.0000
  H   H305      1.0  0.15318  0.02443  0.87556  1.0000
  H   H306      1.0  0.15306  0.08233  0.85809  1.0000
  H   H307      1.0  0.13377  0.05723  0.84417  1.0000
  H   H308      1.0  0.16644  0.07959  0.83954  1.0000
  H   H309      1.0  0.16059  0.01327  0.84927  1.0000
  H   H310      1.0  0.14051  0.02257  0.83786  1.0000
  H   H311      1.0  0.17485  0.03831  0.83516  1.0000
  H   H312      1.0  0.19560  0.10498  0.86181  1.0000
  H   H313      1.0  0.19656  0.03018  0.86411  1.0000
  H   H314      1.0  0.24176  0.05312  0.87334  1.0000
  H   H315      1.0  0.26411  0.10103  0.87680  1.0000
  N   N17       1.0  0.37565  0.24374  0.88704  1.0000
  C   C269      1.0  0.37211  0.25680  0.90129  1.0000
  C   C270      1.0  0.37682  0.21970  0.89177  1.0000
  C   C271      1.0  0.40134  0.26166  0.88058  1.0000
  H   H316      1.0  0.35416  0.24420  0.90760  1.0000
  H   H317      1.0  0.38859  0.26246  0.90995  1.0000
  H   H318      1.0  0.37090  0.27484  0.89816  1.0000
  H   H319      1.0  0.39429  0.22425  0.89941  1.0000
  H   H320      1.0  0.37776  0.20838  0.88129  1.0000
  H   H321      1.0  0.35980  0.20663  0.89870  1.0000
  H   H322      1.0  0.40234  0.28076  0.87753  1.0000
  H   H323      1.0  0.41755  0.26627  0.88937  1.0000
  H   H324      1.0  0.40571  0.25290  0.87002  1.0000
  H   H325      1.0  0.37516  0.26083  0.85605  1.0000
  H   H326      1.0  0.43779  0.05421  0.88187  1.0000
  H   H327      1.0  0.16473  0.23670  0.77446  1.0000
  C   C272      1.0  0.21138  0.02839  0.75774  1.0000
  C   C273      1.0  0.16914  0.24112  0.76214  1.0000
  H   H328      1.0  0.44745  0.06666  0.85438  1.0000
  H   H329      1.0  0.26089  0.13606  0.80747  1.0000
  H   H330      1.0  0.46878  0.10070  0.96769  1.0000
  C   C274      1.0  0.46406  0.06030  0.98331  1.0000
  C   C275      1.0  0.09706  0.26578  0.84345  1.0000
  Fe  Fe44      1.0  0.42863  0.30925  0.92592  1.0000
  H   H331      1.0  0.45127  0.07839  0.89748  1.0000
  H   H332      1.0  0.31547  0.28767  0.95307  1.0000
  H   H333      1.0  0.34909  0.31236  0.95550  1.0000
  C   C276      1.0  0.05070  0.22050  0.76103  1.0000
  H   H334      1.0  0.08520  0.24850  0.88762  1.0000
  H   H335      1.0  0.28301  0.29936  0.94057  1.0000
  C   C277      1.0  0.27718  0.08998  0.76131  1.0000
  C   C278      1.0  0.13641  0.25438  0.85413  1.0000
  H   H336      1.0  0.08797  0.19017  0.75535  1.0000
  H   H337      1.0  0.23085  0.15629  0.79028  1.0000
  C   C279      1.0  0.07055  0.25081  0.88008  1.0000
  H   H338      1.0  0.04627  0.23127  0.77006  1.0000
  H   H339      1.0  0.07759  0.27215  0.87876  1.0000
  H   H340      1.0  0.98690  0.27740  0.88530  1.0000
  S   S87       1.0  0.19322  0.99235  0.83057  1.0000
  C   C280      1.0  0.09189  0.24880  0.85633  1.0000
  H   H341      1.0  0.05208  0.24307  0.88663  1.0000
  H   H342      1.0  0.04278  0.23111  0.84370  1.0000
  H   H343      1.0  0.20728  0.03584  0.76896  1.0000
  H   H344      1.0  0.06918  0.20508  0.87570  1.0000
  S   S88       1.0  0.98314  0.19853  0.83255  1.0000
  H   H345      1.0  0.47616  0.02090  0.97460  1.0000
  H   H346      1.0  0.20848  0.00835  0.76003  1.0000
  C   C281      1.0  0.04581  0.24021  0.85570  1.0000
  H   H347      1.0  0.29337  0.21949  0.84720  1.0000
  H   H348      1.0  0.28677  0.20065  0.87369  1.0000
  H   H349      1.0  0.46591  0.05831  0.94335  1.0000
  C   C282      1.0  0.25876  0.10443  0.78230  1.0000
  C   C283      1.0  0.15880  0.25504  0.75395  1.0000
  H   H350      1.0  0.08268  0.27070  0.83852  1.0000
  N   N18       1.0  0.19474  0.02846  0.74434  1.0000
  C   C284      1.0  0.35347  0.23691  0.87579  1.0000
  C   C285      1.0  0.11255  0.24390  0.86166  1.0000
  H   H351      1.0  0.24045  0.12642  0.87100  1.0000
  Fe  Fe45      1.0  0.23699  0.00788  0.83032  1.0000
  Fe  Fe46      1.0  0.23555  0.00130  0.79391  1.0000
  H   H352      1.0  0.24813  0.09964  0.79312  1.0000
  H   H353      1.0  0.11043  0.23176  0.87160  1.0000
  H   H354      1.0  0.32386  0.21134  0.89176  1.0000
  S   S89       1.0  0.99121  0.19715  0.79432  1.0000
  H   H355      1.0  0.34811  0.06346  0.98484  1.0000
  Fe  Fe47      1.0  0.99239  0.24062  0.83076  1.0000
  C   C286      1.0  0.27288  0.15316  0.80028  1.0000
  C   C287      1.0  0.03856  0.21609  0.74612  1.0000
  H   H356      1.0  0.45957  0.23971  0.91498  1.0000
  N   N19       1.0  0.26323  0.14985  0.78364  1.0000
  C   C288      1.0  0.32770  0.21968  0.88021  1.0000
  H   H357      1.0  0.18829  0.10245  0.76125  1.0000
  S   S90       1.0  0.26047  0.01537  0.77226  1.0000
  H   H358      1.0  0.35603  0.00029  0.95738  1.0000
  H   H359      1.0  0.42591  0.07731  0.88443  1.0000
  H   H360      1.0  0.05001  0.26095  0.85475  1.0000
  S   S91       1.0  0.99391  0.26151  0.85417  1.0000
  H   H361      1.0  0.27948  0.04174  0.88564  1.0000
  H   H362      1.0  0.44887  0.03171  0.95625  1.0000
  S   S92       1.0  0.25660  0.02069  0.85502  1.0000
  C   C289      1.0  0.33500  0.24035  0.85018  1.0000
  H   H363      1.0  0.46917  0.04911  0.86800  1.0000
  C   C290      1.0  0.33793  0.29758  0.85323  1.0000
  N   N20       1.0  0.06675  0.23744  0.86450  1.0000
  C   C291      1.0  0.12119  0.27655  0.83622  1.0000
  C   C292      1.0  0.30999  0.22371  0.85498  1.0000
  C   C293      1.0  0.26404  0.08533  0.77541  1.0000
  C   C294      1.0  0.45722  0.05319  0.95517  1.0000
  H   H364      1.0  0.02519  0.22400  0.74413  1.0000
  H   H365      1.0  0.33753  0.24899  0.83867  1.0000
  H   H366      1.0  0.43648  0.09055  0.85629  1.0000
  C   C295      1.0  0.28470  0.11359  0.75388  1.0000
  C   C296      1.0  0.35892  0.99824  0.96980  1.0000
  C   C297      1.0  0.23504  0.14208  0.78346  1.0000
  H   H367      1.0  0.15902  0.27820  0.83538  1.0000
  C   C298      1.0  0.35018  0.30571  0.86832  1.0000
  C   C299      1.0  0.19179  0.06830  0.75412  1.0000
  C   C300      1.0  0.00048  0.25327  0.75484  1.0000
  C   C301      1.0  0.26738  0.12927  0.77550  1.0000
  H   H368      1.0  0.28639  0.15091  0.75446  1.0000
  C   C302      1.0  0.27680  0.17576  0.77628  1.0000
  H   H369      1.0  0.19381  0.22261  0.76100  1.0000
  C   C303      1.0  0.45389  0.08733  0.85799  1.0000
  H   H370      1.0  0.18411  0.05903  0.76515  1.0000
  H   H371      1.0  0.33563  0.29930  0.93636  1.0000
  C   C304      1.0  0.18552  0.23322  0.75456  1.0000
  H   H372      1.0  0.45033  0.12199  0.87716  1.0000
  H   H373      1.0  0.27389  0.19096  0.78291  1.0000
  H   H374      1.0  0.29337  0.15645  0.80099  1.0000
  H   H375      1.0  0.23232  0.04052  0.75530  1.0000
  H   H376      1.0  0.27222  0.16998  0.80639  1.0000
  C   C305      1.0  0.07411  0.19738  0.75269  1.0000
  H   H377      1.0  0.37109  0.31731  0.86941  1.0000
  H   H378      1.0  0.22348  0.12268  0.78864  1.0000
  H   H379      1.0  0.05748  0.19899  0.85555  1.0000
  H   H380      1.0  0.22746  0.14126  0.77123  1.0000
  H   H381      1.0  0.18821  0.99513  0.88607  1.0000
  C   C306      1.0  0.33110  0.30546  0.94792  1.0000
  H   H382      1.0  0.26898  0.17552  0.76416  1.0000
  C   C307      1.0  0.27990  0.13304  0.76080  1.0000
  H   H383      1.0  0.16319  0.99027  0.74864  1.0000
  C   C308      1.0  0.19174  0.23935  0.73881  1.0000
  N   N21       1.0  0.46414  0.09323  0.87452  1.0000
  C   C309      1.0  0.19867  0.05538  0.74211  1.0000
  C   C310      1.0  0.29994  0.31579  0.93522  1.0000
  C   C311      1.0  0.44395  0.07500  0.88500  1.0000
  H   H384      1.0  0.25812  0.06681  0.78107  1.0000
  H   H385      1.0  0.46891  0.09988  0.84965  1.0000
  C   C312      1.0  0.00847  0.30492  0.81211  1.0000
  H   H386      1.0  0.14626  0.26135  0.76000  1.0000
  H   H387      1.0  0.28147  0.07515  0.75615  1.0000
  N   N22       1.0  0.47678  0.06765  0.96784  1.0000
  H   H388      1.0  0.44901  0.06707  0.98477  1.0000
  H   H389      1.0  0.03126  0.28457  0.74273  1.0000
  C   C313      1.0  0.16715  0.01101  0.74798  1.0000
  H   H390      1.0  0.01013  0.29232  0.80261  1.0000
  H   H391      1.0  0.32093  0.01618  0.98001  1.0000
  H   H392      1.0  0.45335  0.03887  0.98473  1.0000
  H   H393      1.0  0.02869  0.31910  0.81591  1.0000
  H   H394      1.0  0.30390  0.30847  0.92385  1.0000
  H   H395      1.0  0.47480  0.12532  0.89127  1.0000
  H   H396      1.0  0.32465  0.30978  0.97715  1.0000
  H   H397      1.0  0.29457  0.11694  0.74277  1.0000
  C   C314      1.0  0.01305  0.26682  0.74138  1.0000
  N   N23       1.0  0.99328  0.31824  0.80678  1.0000
  C   C315      1.0  0.26332  0.01494  0.74002  1.0000
  H   H398      1.0  0.27811  0.03499  0.74164  1.0000
  H   H399      1.0  0.97853  0.28285  0.78184  1.0000
  Fe  Fe48      1.0  0.32857  0.40967  0.06734  1.0000
  S   S93       1.0  0.30380  0.39304  0.04521  1.0000
  S   S94       1.0  0.32977  0.38510  0.08828  1.0000
  Fe  Fe49      1.0  0.35400  0.46617  0.05488  1.0000
  S   S95       1.0  0.32884  0.45224  0.03261  1.0000
  S   S96       1.0  0.38249  0.51080  0.05680  1.0000
  Fe  Fe50      1.0  0.29500  0.42729  0.04758  1.0000
  S   S97       1.0  0.25137  0.41565  0.04294  1.0000
  Fe  Fe51      1.0  0.33953  0.41929  0.03185  1.0000
  S   S98       1.0  0.35361  0.41473  0.00719  1.0000
  S   S99       1.0  0.31902  0.44325  0.07016  1.0000
  S   S100      1.0  0.36533  0.43382  0.05375  1.0000
  H   H400      1.0  0.20718  0.32619  0.17951  1.0000
  Fe  Fe52      1.0  0.07964  0.46078  0.05113  1.0000
  S   S101      1.0  0.09953  0.45837  0.02909  1.0000
  S   S102      1.0  0.06660  0.49162  0.05876  1.0000
  Fe  Fe53      1.0  0.07157  0.40561  0.06129  1.0000
  S   S103      1.0  0.09040  0.39999  0.03941  1.0000
  S   S104      1.0  0.06544  0.38124  0.08362  1.0000
  Fe  Fe54      1.0  0.12109  0.44161  0.04374  1.0000
  S   S105      1.0  0.16590  0.45778  0.04526  1.0000
  Fe  Fe55      1.0  0.06722  0.41682  0.02626  1.0000
  S   S106      1.0  0.04908  0.40714  0.00104  1.0000
  S   S107      1.0  0.10308  0.44685  0.06601  1.0000
  S   S108      1.0  0.04655  0.41971  0.04791  1.0000
  H   H401      1.0  0.06365  0.55988  0.02349  1.0000
  C   C316      1.0  0.07411  0.57550  0.01493  1.0000
  S   S109      1.0  0.10701  0.61589  0.05417  1.0000
  C   C317      1.0  0.39995  0.47841  0.02310  1.0000
  C   C318      1.0  0.00742  0.36094  0.12475  1.0000
  H   H402      1.0  0.05571  0.45102  0.08447  1.0000
  C   C319      1.0  0.47059  0.57160  0.05570  1.0000
  H   H403      1.0  0.46178  0.63363  0.09764  1.0000
  C   C320      1.0  0.04984  0.59735  0.02342  1.0000
  C   C321      1.0  0.43713  0.54557  0.01523  1.0000
  H   H404      1.0  0.14173  0.39078  0.10571  1.0000
  C   C322      1.0  0.09491  0.58113  0.05507  1.0000
  C   C323      1.0  0.06972  0.56418  0.05981  1.0000
  C   C324      1.0  0.06147  0.53702  0.06072  1.0000
  C   C325      1.0  0.07799  0.52612  0.05667  1.0000
  C   C326      1.0  0.10296  0.54302  0.05158  1.0000
  C   C327      1.0  0.11135  0.57022  0.05090  1.0000
  H   H405      1.0  0.05675  0.57202  0.06315  1.0000
  H   H406      1.0  0.04216  0.52435  0.06475  1.0000
  H   H407      1.0  0.11605  0.53519  0.04847  1.0000
  H   H408      1.0  0.13088  0.58293  0.04720  1.0000
  C   C328      1.0  0.18942  0.44575  0.04402  1.0000
  C   C329      1.0  0.18283  0.42015  0.03906  1.0000
  C   C330      1.0  0.20208  0.41156  0.03860  1.0000
  C   C331      1.0  0.22825  0.42826  0.04311  1.0000
  C   C332      1.0  0.23482  0.45381  0.04810  1.0000
  C   C333      1.0  0.21560  0.46244  0.04850  1.0000
  H   H409      1.0  0.16295  0.40701  0.03546  1.0000
  H   H410      1.0  0.19663  0.39173  0.03476  1.0000
  H   H411      1.0  0.25473  0.46696  0.05169  1.0000
  H   H412      1.0  0.22107  0.48227  0.05237  1.0000
  C   C334      1.0  0.41671  0.53364  0.05651  1.0000
  C   C335      1.0  0.43638  0.52605  0.05780  1.0000
  H   H413      1.0  0.24959  0.36955  0.13588  1.0000
  H   H414      1.0  0.19771  0.36295  0.14571  1.0000
  C   C336      1.0  0.45096  0.57926  0.05451  1.0000
  C   C337      1.0  0.42435  0.56047  0.05496  1.0000
  H   H415      1.0  0.43116  0.50569  0.05925  1.0000
  C   C338      1.0  0.04727  0.39517  0.13603  1.0000
  C   C339      1.0  0.00778  0.37743  0.11278  1.0000
  H   H416      1.0  0.40950  0.56680  0.05405  1.0000
  H   H417      1.0  0.46656  0.58520  0.02006  1.0000
  H   H418      1.0  0.36439  0.48956  0.00995  1.0000
  C   C340      1.0  0.45317  0.51385  0.01221  1.0000
  H   H419      1.0  0.23662  0.33698  0.12741  1.0000
  H   H420      1.0  0.19026  0.42192  0.07567  1.0000
  C   C341      1.0  0.04372  0.35161  0.09280  1.0000
  H   H421      1.0  0.40369  0.48792  0.03500  1.0000
  H   H422      1.0  0.06686  0.42940  0.09263  1.0000
  H   H423      1.0  0.03696  0.58091  0.03086  1.0000
  C   C342      1.0  0.37999  0.36101  0.99853  1.0000
  C   C343      1.0  0.30519  0.35835  0.09844  1.0000
  C   C344      1.0  0.31251  0.34793  0.11139  1.0000
  C   C345      1.0  0.99060  0.62107  0.00774  1.0000
  H   H424      1.0  0.33286  0.35635  0.11494  1.0000
  C   C346      1.0  0.21018  0.39943  0.07790  1.0000
  N   N24       1.0  0.13850  0.38350  0.08066  1.0000
  C   C347      1.0  0.12742  0.37769  0.09658  1.0000
  C   C348      1.0  0.14219  0.40987  0.07670  1.0000
  C   C349      1.0  0.11929  0.36476  0.06898  1.0000
  C   C350      1.0  0.16285  0.38108  0.08053  1.0000
  Fe  Fe56      1.0  0.09029  0.64532  0.05519  1.0000
  C   C351      1.0  0.47729  0.62814  0.09826  1.0000
  H   H425      1.0  0.00021  0.41836  0.00950  1.0000
  H   H426      1.0  0.45265  0.58855  0.09038  1.0000
  C   C352      1.0  0.26011  0.32602  0.10239  1.0000
  C   C353      1.0  0.31257  0.33367  0.98997  1.0000
  H   H427      1.0  0.03629  0.53325  0.00434  1.0000
  H   H428      1.0  0.10976  0.38054  0.09733  1.0000
  H   H429      1.0  0.45625  0.59968  0.05325  1.0000
  H   H430      1.0  0.45039  0.49419  0.01044  1.0000
  H   H431      1.0  0.38475  0.51525  0.02334  1.0000
  C   C354      1.0  0.23148  0.35087  0.13368  1.0000
  H   H432      1.0  0.10133  0.36719  0.06809  1.0000
  C   C355      1.0  0.02598  0.54245  0.99866  1.0000
  H   H433      1.0  0.14982  0.41507  0.06467  1.0000
  H   H434      1.0  0.47780  0.53850  0.05841  1.0000
  H   H435      1.0  0.14408  0.33950  0.08540  1.0000
  H   H436      1.0  0.38151  0.34556  0.00475  1.0000
  H   H437      1.0  0.99274  0.61759  0.02001  1.0000
  C   C356      1.0  0.27875  0.34721  0.09404  1.0000
  H   H438      1.0  0.01629  0.42110  0.07536  1.0000
  C   C357      1.0  0.46274  0.56529  0.01746  1.0000
  H   H439      1.0  0.41206  0.46822  0.02208  1.0000
  H   H440      1.0  0.06696  0.61070  0.03092  1.0000
  H   H441      1.0  0.27272  0.35491  0.08416  1.0000
  H   H442      1.0  0.22625  0.37271  0.07941  1.0000
  C   C358      1.0  0.22616  0.32914  0.17607  1.0000
  H   H443      1.0  0.02139  0.39377  0.08057  1.0000
  H   H444      1.0  0.07079  0.35769  0.11212  1.0000
  N   N25       1.0  0.05800  0.58780  0.00937  1.0000
  C   C359      1.0  0.24144  0.32494  0.18743  1.0000
  H   H445      1.0  0.00043  0.36284  0.01122  1.0000
  C   C360      1.0  0.47215  0.60274  0.09425  1.0000
  C   C361      1.0  0.37026  0.37629  0.00640  1.0000
  H   H446      1.0  0.36434  0.37248  0.01851  1.0000
  C   C362      1.0  0.18482  0.35366  0.08287  1.0000
  H   H447      1.0  0.01211  0.33973  0.07578  1.0000
  C   C363      1.0  0.05178  0.34493  0.10703  1.0000
  H   H448      1.0  0.06349  0.43155  0.12480  1.0000
  C   C364      1.0  0.36753  0.39592  0.99845  1.0000
  N   N26       1.0  0.02845  0.42142  0.09967  1.0000
  C   C365      1.0  0.01409  0.40739  0.08497  1.0000
  C   C366      1.0  0.01589  0.43668  0.10598  1.0000
  C   C367      1.0  0.05539  0.43994  0.09518  1.0000
  C   C368      1.0  0.02831  0.40337  0.11193  1.0000
  H   H449      1.0  0.08033  0.56721  0.00492  1.0000
  H   H450      1.0  0.12138  0.35719  0.09981  1.0000
  H   H451      1.0  0.12763  0.36767  0.05700  1.0000
  C   C369      1.0  0.07494  0.61061  0.99993  1.0000
  C   C370      1.0  0.46297  0.54484  0.05745  1.0000
  C   C371      1.0  0.99830  0.36569  0.99883  1.0000
  H   H452      1.0  0.15560  0.42520  0.08523  1.0000
  H   H453      1.0  0.01568  0.45074  0.09721  1.0000
  H   H454      1.0  0.02632  0.44814  0.11682  1.0000
  H   H455      1.0  0.99723  0.50521  0.98903  1.0000
  C   C372      1.0  0.16220  0.35661  0.08322  1.0000
  H   H456      1.0  0.06595  0.62352  0.99736  1.0000
  C   C373      1.0  0.02722  0.36970  0.13626  1.0000
  H   H457      1.0  0.42207  0.55150  0.01619  1.0000
  C   C374      1.0  0.18767  0.40257  0.07801  1.0000
  H   H458      1.0  0.99194  0.36921  0.10420  1.0000
  C   C375      1.0  0.40135  0.48413  0.99503  1.0000
  C   C376      1.0  0.20875  0.37502  0.08011  1.0000
  C   C377      1.0  0.25964  0.33808  0.15697  1.0000
  C   C378      1.0  0.29382  0.32688  0.11983  1.0000
  N   N27       1.0  0.40473  0.49755  0.01059  1.0000
  C   C379      1.0  0.04773  0.41192  0.12420  1.0000
  C   C380      1.0  0.38431  0.50622  0.01156  1.0000
  H   H459      1.0  0.37949  0.46287  0.02270  1.0000
  C   C381      1.0  0.43157  0.51914  0.01254  1.0000
  C   C382      1.0  0.01873  0.33500  0.08667  1.0000
  H   H460      1.0  0.06608  0.45523  0.10441  1.0000
  H   H461      1.0  0.99540  0.42370  0.10919  1.0000
  H   H462      1.0  0.09366  0.62344  0.00631  1.0000
  H   H463      1.0  0.03909  0.60839  0.02018  1.0000
  C   C383      1.0  0.26550  0.32687  0.18358  1.0000
  H   H464      1.0  0.26771  0.34263  0.14539  1.0000
  H   H465      1.0  0.12350  0.41093  0.07673  1.0000
  H   H466      1.0  0.11263  0.34411  0.07205  1.0000
  H   H467      1.0  0.22885  0.41591  0.07552  1.0000
  S   S110      1.0  0.04848  0.63782  0.05378  1.0000
  C   C384      1.0  0.01275  0.44697  0.99157  1.0000
  H   H468      1.0  0.09217  0.58982  0.02137  1.0000
  H   H469      1.0  0.31444  0.32584  0.00117  1.0000
  H   H470      1.0  0.22530  0.37673  0.15926  1.0000
  C   C385      1.0  0.27457  0.33341  0.16838  1.0000
  C   C386      1.0  0.03452  0.56980  0.99998  1.0000
  C   C387      1.0  0.20867  0.35810  0.15486  1.0000
  H   H471      1.0  0.30185  0.36117  0.00070  1.0000
  C   C388      1.0  0.23491  0.33616  0.16050  1.0000
  C   C389      1.0  0.01155  0.64051  0.99999  1.0000
  H   H472      1.0  0.00575  0.65119  0.04040  1.0000
  H   H473      1.0  0.98306  0.64097  0.05591  1.0000
  H   H474      1.0  0.99199  0.34096  0.12490  1.0000
  N   N28       1.0  0.21806  0.33992  0.14858  1.0000
  H   H475      1.0  0.99276  0.39625  0.08655  1.0000
  H   H476      1.0  0.18377  0.33465  0.08448  1.0000
  H   H477      1.0  0.03248  0.45722  0.99644  1.0000
  H   H478      1.0  0.19502  0.34978  0.16466  1.0000
  H   H479      1.0  0.06258  0.40192  0.14508  1.0000
  C   C390      1.0  0.01896  0.38556  0.99113  1.0000
  H   H480      1.0  0.38636  0.52034  0.00229  1.0000
  H   H481      1.0  0.02705  0.35658  0.14530  1.0000
  H   H482      1.0  0.41433  0.47492  0.99383  1.0000
  C   C391      1.0  0.99446  0.42498  0.99895  1.0000
  H   H483      1.0  0.21891  0.35476  0.12519  1.0000
  H   H484      1.0  0.29316  0.33455  0.16535  1.0000
  C   C392      1.0  0.00339  0.52599  0.98990  1.0000
  H   H485      1.0  0.38112  0.46796  0.99322  1.0000
  H   H486      1.0  0.02360  0.59973  0.99312  1.0000
  C   C393      1.0  0.03527  0.32211  0.11500  1.0000
  H   H487      1.0  0.27686  0.32278  0.19236  1.0000
  C   C394      1.0  0.01878  0.57933  0.99233  1.0000
  C   C395      1.0  0.30543  0.35357  0.98975  1.0000
  H   H488      1.0  0.07959  0.60423  0.98850  1.0000
  Fe  Fe57      1.0  0.33190  0.40043  0.40936  1.0000
  S   S111      1.0  0.30517  0.39331  0.42976  1.0000
  S   S112      1.0  0.32269  0.37699  0.38574  1.0000
  Fe  Fe58      1.0  0.37091  0.45731  0.42198  1.0000
  S   S113      1.0  0.34576  0.45320  0.44281  1.0000
  S   S114      1.0  0.40907  0.49343  0.41457  1.0000
  Fe  Fe59      1.0  0.34254  0.41267  0.44480  1.0000
  S   S115      1.0  0.34657  0.40047  0.47002  1.0000
  Fe  Fe60      1.0  0.31027  0.43400  0.42637  1.0000
  S   S116      1.0  0.27868  0.44694  0.42079  1.0000
  S   S117      1.0  0.36905  0.41751  0.42453  1.0000
  S   S118      1.0  0.33577  0.44043  0.40545  1.0000
  H   H489      1.0  0.23220  0.34589  0.40072  1.0000
  Fe  Fe61      1.0  0.08238  0.40608  0.40610  1.0000
  S   S119      1.0  0.08731  0.38984  0.42921  1.0000
  S   S120      1.0  0.07148  0.38687  0.38116  1.0000
  Fe  Fe62      1.0  0.10444  0.46260  0.42037  1.0000
  S   S121      1.0  0.11171  0.44978  0.44406  1.0000
  S   S122      1.0  0.11657  0.50527  0.41340  1.0000
  Fe  Fe63      1.0  0.12714  0.42540  0.43112  1.0000
  S   S123      1.0  0.16177  0.41966  0.44097  1.0000
  Fe  Fe64      1.0  0.07170  0.41528  0.44066  1.0000
  S   S124      1.0  0.04241  0.40886  0.46040  1.0000
  S   S125      1.0  0.12269  0.44054  0.40767  1.0000
  S   S126      1.0  0.06404  0.42917  0.41728  1.0000
  Fe  Fe65      1.0  0.09218  0.63987  0.42460  1.0000
  H   H490      1.0  0.11020  0.51016  0.36092  1.0000
  S   S127      1.0  0.08487  0.59707  0.42767  1.0000
  H   H491      1.0  0.01374  0.55535  0.45423  1.0000
  C   C396      1.0  0.38234  0.54886  0.40940  1.0000
  H   H492      1.0  0.03758  0.58115  0.44349  1.0000
  H   H493      1.0  0.40141  0.43727  0.47677  1.0000
  C   C397      1.0  0.02193  0.38775  0.47511  1.0000
  C   C398      1.0  0.02141  0.36395  0.47866  1.0000
  H   H494      1.0  0.03354  0.35762  0.47225  1.0000
  C   C399      1.0  0.10735  0.53045  0.41768  1.0000
  C   C400      1.0  0.12218  0.55552  0.41162  1.0000
  C   C401      1.0  0.11570  0.57603  0.41448  1.0000
  C   C402      1.0  0.09409  0.57185  0.42343  1.0000
  C   C403      1.0  0.07909  0.54670  0.42937  1.0000
  C   C404      1.0  0.08564  0.52623  0.42657  1.0000
  H   H495      1.0  0.13904  0.55924  0.40475  1.0000
  H   H496      1.0  0.12755  0.59511  0.40980  1.0000
  H   H497      1.0  0.06219  0.54294  0.43618  1.0000
  H   H498      1.0  0.07384  0.50715  0.43127  1.0000
  C   C405      1.0  0.24581  0.43814  0.42632  1.0000
  C   C406      1.0  0.23136  0.44795  0.41770  1.0000
  C   C407      1.0  0.20563  0.44217  0.42173  1.0000
  C   C408      1.0  0.19386  0.42665  0.43466  1.0000
  C   C409      1.0  0.20826  0.41667  0.44320  1.0000
  C   C410      1.0  0.23386  0.42216  0.43904  1.0000
  H   H499      1.0  0.24021  0.46035  0.40786  1.0000
  H   H500      1.0  0.19509  0.45014  0.41501  1.0000
  H   H501      1.0  0.19961  0.40468  0.45323  1.0000
  H   H502      1.0  0.24452  0.41446  0.44589  1.0000
  C   C411      1.0  0.43482  0.52594  0.41913  1.0000
  C   C412      1.0  0.43443  0.54099  0.43216  1.0000
  H   H503      1.0  0.04203  0.39826  0.33592  1.0000
  H   H504      1.0  0.15202  0.40358  0.47578  1.0000
  N   N29       1.0  0.24582  0.37563  0.38326  1.0000
  C   C413      1.0  0.45622  0.53724  0.40908  1.0000
  H   H505      1.0  0.41835  0.53289  0.44007  1.0000
  C   C414      1.0  0.07217  0.45930  0.35369  1.0000
  C   C415      1.0  0.38780  0.35972  0.47796  1.0000
  C   C416      1.0  0.04934  0.43377  0.32439  1.0000
  C   C417      1.0  0.00260  0.62862  0.46566  1.0000
  C   C418      1.0  0.36245  0.38363  0.47897  1.0000
  C   C419      1.0  0.41541  0.59245  0.41859  1.0000
  H   H506      1.0  0.37606  0.37430  0.45757  1.0000
  H   H507      1.0  0.26862  0.40528  0.36699  1.0000
  C   C420      1.0  0.05974  0.46078  0.32602  1.0000
  C   C421      1.0  0.05238  0.35473  0.37272  1.0000
  C   C422      1.0  0.05330  0.35066  0.35635  1.0000
  C   C423      1.0  0.23678  0.33815  0.36442  1.0000
  H   H508      1.0  0.06564  0.36692  0.34926  1.0000
  C   C424      1.0  0.30398  0.34470  0.37747  1.0000
  C   C425      1.0  0.43612  0.44209  0.46549  1.0000
  C   C426      1.0  0.30168  0.34109  0.36093  1.0000
  C   C427      1.0  0.20729  0.35709  0.36361  1.0000
  H   H509      1.0  0.31171  0.35777  0.35358  1.0000
  S   S128      1.0  0.05437  0.64233  0.42315  1.0000
  H   H510      1.0  0.37148  0.50790  0.42752  1.0000
  N   N30       1.0  0.08396  0.47193  0.36913  1.0000
  H   H511      1.0  0.43753  0.57180  0.38744  1.0000
  H   H512      1.0  0.45693  0.52603  0.39893  1.0000
  C   C428      1.0  0.03620  0.33342  0.38166  1.0000
  H   H513      1.0  0.07143  0.57529  0.46016  1.0000
  H   H514      1.0  0.47244  0.44577  0.45731  1.0000
  H   H515      1.0  0.01300  0.58595  0.45345  1.0000
  H   H516      1.0  0.04680  0.46403  0.37845  1.0000
  H   H517      1.0  0.26372  0.35329  0.39329  1.0000
  H   H518      1.0  0.07203  0.47125  0.39316  1.0000
  H   H519      1.0  0.07630  0.62282  0.47639  1.0000
  H   H520      1.0  0.05732  0.44019  0.38321  1.0000
  C   C429      1.0  0.06193  0.61438  0.46639  1.0000
  C   C430      1.0  0.09440  0.50075  0.36948  1.0000
  H   H521      1.0  0.03510  0.33607  0.39422  1.0000
  C   C431      1.0  0.42018  0.43758  0.47835  1.0000
  H   H522      1.0  0.04577  0.55058  0.47076  1.0000
  H   H523      1.0  0.25367  0.33699  0.36896  1.0000
  H   H524      1.0  0.20040  0.37064  0.36743  1.0000
  H   H525      1.0  0.07350  0.61674  0.45566  1.0000
  N   N31       1.0  0.35651  0.52601  0.41124  1.0000
  C   C432      1.0  0.25070  0.36182  0.39650  1.0000
  C   C433      1.0  0.14007  0.40023  0.48651  1.0000
  H   H526      1.0  0.06146  0.41971  0.36110  1.0000
  H   H527      1.0  0.26080  0.37529  0.40673  1.0000
  H   H528      1.0  0.07867  0.49443  0.34086  1.0000
  H   H529      1.0  0.29246  0.32510  0.39945  1.0000
  C   C434      1.0  0.39984  0.54992  0.39754  1.0000
  C   C435      1.0  0.19333  0.33987  0.35110  1.0000
  C   C436      1.0  0.00596  0.39551  0.48373  1.0000
  C   C437      1.0  0.43198  0.59291  0.40677  1.0000
  H   H530      1.0  0.07878  0.42002  0.48713  1.0000
  H   H531      1.0  0.14622  0.44106  0.47042  1.0000
  H   H532      1.0  0.28163  0.38358  0.37178  1.0000
  C   C438      1.0  0.20113  0.32202  0.34521  1.0000
  H   H533      1.0  0.45373  0.57815  0.44484  1.0000
  H   H534      1.0  0.42968  0.44522  0.45400  1.0000
  C   C439      1.0  0.13358  0.43725  0.48085  1.0000
  H   H535      1.0  0.11598  0.47654  0.38449  1.0000
  H   H536      1.0  0.09918  0.44517  0.37505  1.0000
  C   C440      1.0  0.05842  0.57199  0.47035  1.0000
  H   H537      1.0  0.39756  0.35120  0.47102  1.0000
  N   N32       1.0  0.04319  0.58659  0.46880  1.0000
  C   C441      1.0  0.27117  0.39393  0.37671  1.0000
  C   C442      1.0  0.33576  0.53424  0.41075  1.0000
  C   C443      1.0  0.23387  0.39134  0.38999  1.0000
  C   C444      1.0  0.34990  0.50541  0.39878  1.0000
  C   C445      1.0  0.45469  0.56680  0.43485  1.0000
  H   H538      1.0  0.37906  0.57115  0.42949  1.0000
  H   H539      1.0  0.33639  0.54453  0.39966  1.0000
  H   H540      1.0  0.08972  0.40204  0.46668  1.0000
  C   C446      1.0  0.39096  0.57080  0.41993  1.0000
  C   C447      1.0  0.37554  0.37279  0.47025  1.0000
  H   H541      1.0  0.36384  0.49710  0.39911  1.0000
  C   C448      1.0  0.35592  0.51404  0.42663  1.0000
  H   H542      1.0  0.34986  0.51300  0.38683  1.0000
  C   C449      1.0  0.22273  0.32105  0.35193  1.0000
  H   H543      1.0  0.39561  0.53386  0.38936  1.0000
  H   H544      1.0  0.24612  0.40458  0.39982  1.0000
  H   H545      1.0  0.31599  0.51719  0.41138  1.0000
  C   C450      1.0  0.03839  0.32578  0.34902  1.0000
  C   C451      1.0  0.10580  0.46631  0.37328  1.0000
  H   H546      1.0  0.42189  0.60874  0.42697  1.0000
  C   C452      1.0  0.42419  0.57172  0.39627  1.0000
  H   H547      1.0  0.33689  0.49642  0.42830  1.0000
  H   H548      1.0  0.45127  0.60935  0.40607  1.0000
  H   H549      1.0  0.21448  0.37869  0.39491  1.0000
  H   H550      1.0  0.35893  0.52762  0.43676  1.0000
  H   H551      1.0  0.10310  0.50954  0.38129  1.0000
  H   H552      1.0  0.07880  0.50644  0.36710  1.0000
  H   H553      1.0  0.28445  0.40801  0.38591  1.0000
  H   H554      1.0  0.12049  0.47265  0.36390  1.0000
  C   C453      1.0  0.10342  0.39452  0.47040  1.0000
  H   H555      1.0  0.00656  0.62374  0.45402  1.0000
  H   H556      1.0  0.33741  0.54748  0.42081  1.0000
  C   C454      1.0  0.05015  0.41931  0.33715  1.0000
  H   H557      1.0  0.33018  0.48871  0.40035  1.0000
  H   H558      1.0  0.00617  0.41386  0.48116  1.0000
  H   H559      1.0  0.11537  0.39593  0.45997  1.0000
  C   C455      1.0  0.06415  0.46137  0.38147  1.0000
  C   C456      1.0  0.06136  0.43182  0.35157  1.0000
  C   C457      1.0  0.07103  0.47350  0.34043  1.0000
  H   H560      1.0  0.23193  0.40438  0.38116  1.0000
  H   H561      1.0  0.17649  0.34052  0.34581  1.0000
  H   H562      1.0  0.09151  0.37346  0.47285  1.0000
  H   H563      1.0  0.05901  0.47194  0.31606  1.0000
  C   C458      1.0  0.22960  0.35677  0.37065  1.0000
  C   C459      1.0  0.47602  0.57815  0.42477  1.0000
  H   H564      1.0  0.11984  0.44517  0.47810  1.0000
  H   H565      1.0  0.05180  0.62648  0.46476  1.0000
  C   C460      1.0  0.29089  0.32282  0.38674  1.0000
  C   C461      1.0  0.02611  0.57682  0.45443  1.0000
  H   H566      1.0  0.04057  0.42397  0.31323  1.0000
  C   C462      1.0  0.97984  0.61125  0.47335  1.0000
  N   N33       1.0  0.11991  0.40907  0.48432  1.0000
  C   C463      1.0  0.47667  0.56292  0.41192  1.0000
  C   C464      1.0  0.02710  0.58260  0.48287  1.0000
  H   H567      1.0  0.00389  0.54053  0.47892  1.0000
  C   C465      1.0  0.46819  0.43787  0.48217  1.0000
  C   C466      1.0  0.46013  0.44230  0.46739  1.0000
  C   C467      1.0  0.01997  0.65244  0.47295  1.0000
  H   H568      1.0  0.00722  0.64498  0.41514  1.0000
  H   H569      1.0  0.03937  0.32312  0.33645  1.0000
  H   H570      1.0  0.07093  0.57820  0.48127  1.0000
  C   C468      1.0  0.00728  0.55727  0.48629  1.0000
  Fe  Fe66      1.0  0.41441  0.33867  0.52924  1.0000
  S   S129      1.0  0.41974  0.36676  0.54923  1.0000
  S   S130      1.0  0.40253  0.33997  0.50346  1.0000
  Fe  Fe67      1.0  0.46060  0.37146  0.55218  1.0000
  S   S131      1.0  0.45544  0.34405  0.53171  1.0000
  N   N34       1.0  0.46113  0.42785  0.51097  1.0000
  Fe  Fe68      1.0  0.40615  0.33189  0.56499  1.0000
  C   C469      1.0  0.99450  0.57389  0.50906  1.0000
  H   H571      1.0  0.35205  0.38966  0.50239  1.0000
  H   H572      1.0  0.12195  0.38848  0.51399  1.0000
  C   C470      1.0  0.42783  0.43269  0.49312  1.0000
  C   C471      1.0  0.98945  0.36845  0.63172  1.0000
  H   H573      1.0  0.13113  0.37894  0.48867  1.0000
  C   C472      1.0  0.08255  0.41154  0.49750  1.0000
  H   H574      1.0  0.05622  0.39193  0.53336  1.0000
  C   C473      1.0  0.37463  0.36862  0.50321  1.0000
  H   H575      1.0  0.99950  0.36117  0.63951  1.0000
  H   H576      1.0  0.37379  0.36682  0.51588  1.0000
  S   S132      1.0  0.44729  0.33850  0.56943  1.0000
  S   S133      1.0  0.38245  0.32740  0.58729  1.0000
  H   H577      1.0  0.04971  0.41143  0.50905  1.0000
  C   C474      1.0  0.03032  0.60332  0.49343  1.0000
  H   H578      1.0  0.98074  0.38870  0.65020  1.0000
  H   H579      1.0  0.43685  0.43787  0.52571  1.0000
  C   C475      1.0  0.10328  0.40492  0.49813  1.0000
  H   H580      1.0  0.09264  0.38098  0.53559  1.0000
  H   H581      1.0  0.42341  0.40347  0.52039  1.0000
  C   C476      1.0  0.06945  0.39581  0.52372  1.0000
  H   H582      1.0  0.15398  0.41116  0.49638  1.0000
  C   C477      1.0  0.38743  0.35750  0.49447  1.0000
  C   C478      1.0  0.98920  0.35605  0.49919  1.0000
  C   C479      1.0  0.99140  0.64113  0.49575  1.0000
  C   C480      1.0  0.44167  0.42161  0.52348  1.0000
  C   C481      1.0  0.36217  0.38146  0.49550  1.0000
  C   C482      1.0  0.10668  0.39400  0.51233  1.0000
  C   C483      1.0  0.98967  0.37980  0.49562  1.0000
  H   H583      1.0  0.01648  0.61499  0.51399  1.0000
  H   H584      1.0  0.44910  0.41827  0.53497  1.0000
  C   C484      1.0  0.06584  0.40685  0.51006  1.0000
  H   H585      1.0  0.44983  0.38783  0.50462  1.0000
  C   C485      1.0  0.08993  0.38957  0.52491  1.0000
  C   C486      1.0  0.00520  0.34830  0.49060  1.0000
  C   C487      1.0  0.46702  0.40553  0.50951  1.0000
  C   C488      1.0  0.01425  0.59884  0.50635  1.0000
  C   C489      1.0  0.99114  0.55311  0.49913  1.0000
  H   H586      1.0  0.35858  0.32596  0.61695  1.0000
  H   H587      1.0  0.00737  0.64922  0.61426  1.0000
  H   H588      1.0  0.41402  0.42856  0.50238  1.0000
  H   H589      1.0  0.98151  0.57076  0.51875  1.0000
  H   H590      1.0  0.99509  0.34987  0.61116  1.0000
  C   C490      1.0  0.98695  0.36207  0.61570  1.0000
  H   H591      1.0  0.47245  0.40051  0.52114  1.0000
  H   H592      1.0  0.04462  0.62332  0.49180  1.0000
  H   H593      1.0  0.98251  0.42743  0.59187  1.0000
  H   H594      1.0  0.00511  0.33002  0.49322  1.0000
  C   C491      1.0  0.45217  0.43267  0.49549  1.0000
  H   H595      1.0  0.98726  0.64623  0.50731  1.0000
  C   C492      1.0  0.97881  0.38390  0.63768  1.0000
  H   H596      1.0  0.14615  0.44891  0.49104  1.0000
  Fe  Fe69      1.0  0.40990  0.34040  0.94788  1.0000
  S   S134      1.0  0.40865  0.36483  0.92811  1.0000
  S   S135      1.0  0.39832  0.34441  0.97317  1.0000
  Fe  Fe70      1.0  0.44818  0.36871  0.92182  1.0000
  S   S136      1.0  0.44964  0.34477  0.94218  1.0000
  H   H597      1.0  0.29885  0.38028  0.97550  1.0000
  C   C493      1.0  0.00591  0.45510  0.97770  1.0000
  C   C494      1.0  0.31689  0.33516  0.96119  1.0000
  C   C495      1.0  0.98461  0.62856  0.97558  1.0000
  C   C496      1.0  0.01566  0.38879  0.97495  1.0000
  H   H598      1.0  0.03141  0.40408  0.96883  1.0000
  C   C497      1.0  0.99625  0.56273  0.98364  1.0000
  C   C498      1.0  0.38734  0.36522  0.98268  1.0000
  C   C499      1.0  0.47086  0.44508  0.95812  1.0000
  C   C500      1.0  0.00641  0.33459  0.79318  1.0000
  N   N35       1.0  0.32304  0.32623  0.94610  1.0000
  H   H599      1.0  0.02572  0.35106  0.79666  1.0000
  C   C501      1.0  0.30386  0.36439  0.97550  1.0000
  H   H600      1.0  0.98454  0.57058  0.97793  1.0000
  H   H601      1.0  0.47324  0.44232  0.94532  1.0000
  H   H602      1.0  0.39180  0.38967  0.96293  1.0000
  H   H603      1.0  0.01425  0.35119  0.82288  1.0000
  C   C502      1.0  0.38558  0.38555  0.97494  1.0000
  C   C503      1.0  0.37549  0.40056  0.98272  1.0000
  S   S137      1.0  0.42939  0.33336  0.90493  1.0000
  H   H604      1.0  0.02036  0.47197  0.97185  1.0000
  C   C504      1.0  0.00842  0.64394  0.98384  1.0000
  H   H605      1.0  0.40532  0.49797  0.98527  1.0000
  H   H606      1.0  0.46607  0.38829  0.97163  1.0000
  H   H607      1.0  0.34998  0.34244  0.92727  1.0000
  H   H608      1.0  0.36231  0.35680  0.94644  1.0000
  H   H609      1.0  0.44990  0.43927  0.95981  1.0000
  C   C505      1.0  0.34467  0.34849  0.93859  1.0000
  H   H610      1.0  0.33984  0.36443  0.93573  1.0000
  H   H611      1.0  0.98253  0.63164  0.96321  1.0000
  H   H612      1.0  0.37352  0.41569  0.97644  1.0000
  H   H613      1.0  0.99433  0.34298  0.78785  1.0000
  H   H614      1.0  0.44100  0.39684  0.96704  1.0000
  C   C506      1.0  0.31842  0.32461  0.97597  1.0000
  Fe  Fe71      1.0  0.39025  0.32759  0.91312  1.0000
  C   C507      1.0  0.46143  0.40155  0.96438  1.0000
  H   H615      1.0  0.01037  0.32344  0.78372  1.0000
  C   C508      1.0  0.99401  0.33604  0.81985  1.0000
  H   H616      1.0  0.30788  0.36438  0.95068  1.0000
  H   H617      1.0  0.99027  0.37507  0.95412  1.0000
  H   H618      1.0  0.98637  0.32539  0.83093  1.0000
  C   C509      1.0  0.99221  0.37242  0.96657  1.0000
  H   H619      1.0  0.46143  0.39652  0.95168  1.0000
  H   H620      1.0  0.29395  0.33085  0.93210  1.0000
  C   C510      1.0  0.98863  0.53613  0.98237  1.0000
  C   C511      1.0  0.30930  0.35526  0.96140  1.0000
  C   C512      1.0  0.47789  0.43486  0.98469  1.0000
  C   C513      1.0  0.98083  0.44099  0.97103  1.0000
  H   H621      1.0  0.98265  0.34650  0.81668  1.0000
  H   H622      1.0  0.45738  0.42899  0.98789  1.0000
  Fe  Fe72      1.0  0.99530  0.76565  0.14659  1.0000
  S   S138      1.0  0.00015  0.80664  0.15081  1.0000
  S   S139      1.0  0.00518  0.75644  0.12179  1.0000
  H   H623      1.0  0.20061  0.67666  0.08349  1.0000
  Fe  Fe73      1.0  0.02381  0.80755  0.17228  1.0000
  S   S140      1.0  0.06319  0.83814  0.18200  1.0000
  S   S141      1.0  0.02052  0.76781  0.16742  1.0000
  H   H624      1.0  0.09964  0.77985  0.21638  1.0000
  C   C514      1.0  0.29608  0.97178  0.02980  1.0000
  H   H625      1.0  0.36608  0.89521  0.00878  1.0000
  S   S142      1.0  0.12629  0.94268  0.14534  1.0000
  S   S143      1.0  0.19538  0.96609  0.16777  1.0000
  Fe  Fe74      1.0  0.06109  0.67349  0.07010  1.0000
  S   S144      1.0  0.07114  0.70161  0.05037  1.0000
  S   S145      1.0  0.03725  0.67330  0.09152  1.0000
  Fe  Fe75      1.0  0.11180  0.70584  0.05277  1.0000
  S   S146      1.0  0.14498  0.74805  0.05631  1.0000
  S   S147      1.0  0.10188  0.67854  0.07315  1.0000
  C   C515      1.0  0.16621  0.69675  0.08586  1.0000
  Fe  Fe76      1.0  0.34905  0.91182  0.05400  1.0000
  S   S148      1.0  0.32870  0.88988  0.03173  1.0000
  S   S149      1.0  0.39226  0.92337  0.05996  1.0000
  Fe  Fe77      1.0  0.30439  0.92644  0.06087  1.0000
  S   S150      1.0  0.28251  0.90555  0.03838  1.0000
  S   S151      1.0  0.28726  0.95119  0.07299  1.0000
  Fe  Fe78      1.0  0.29139  0.87313  0.04542  1.0000
  S   S152      1.0  0.26348  0.82913  0.04112  1.0000
  Fe  Fe79      1.0  0.32142  0.92404  0.02665  1.0000
  S   S153      1.0  0.32728  0.94005  0.00156  1.0000
  S   S154      1.0  0.31227  0.89323  0.06840  1.0000
  S   S155      1.0  0.34272  0.94666  0.04842  1.0000
  C   C516      1.0  0.45487  0.89602  0.05011  1.0000
  C   C517      1.0  0.42819  0.87896  0.04719  1.0000
  C   C518      1.0  0.40880  0.88683  0.05012  1.0000
  C   C519      1.0  0.41574  0.91196  0.05615  1.0000
  C   C520      1.0  0.44241  0.92899  0.05912  1.0000
  H   H626      1.0  0.09739  0.80908  0.21175  1.0000
  H   H627      1.0  0.42243  0.85939  0.04269  1.0000
  H   H628      1.0  0.38848  0.87329  0.04791  1.0000
  H   H629      1.0  0.44815  0.94844  0.06384  1.0000
  S   S156      1.0  0.98944  0.79279  0.18797  1.0000
  C   C521      1.0  0.25873  0.96590  0.12129  1.0000
  H   H630      1.0  0.41374  0.96645  0.01573  1.0000
  C   C522      1.0  0.44442  0.92909  0.01406  1.0000
  H   H631      1.0  0.03462  0.75784  0.09446  1.0000
  C   C523      1.0  0.18698  0.67412  0.07343  1.0000
  C   C524      1.0  0.22977  0.80767  0.04441  1.0000
  C   C525      1.0  0.21838  0.78206  0.03787  1.0000
  C   C526      1.0  0.19235  0.76381  0.04093  1.0000
  C   C527      1.0  0.17729  0.77076  0.05080  1.0000
  C   C528      1.0  0.18855  0.79647  0.05714  1.0000
  C   C529      1.0  0.21447  0.81482  0.05392  1.0000
  H   H632      1.0  0.22992  0.77622  0.03050  1.0000
  H   H633      1.0  0.18416  0.74430  0.03582  1.0000
  H   H634      1.0  0.17720  0.80222  0.06474  1.0000
  H   H635      1.0  0.22278  0.83433  0.05907  1.0000
  H   H636      1.0  0.98409  0.66509  0.07747  1.0000
  C   C530      1.0  0.43024  0.93447  0.00215  1.0000
  H   H637      1.0  0.16132  0.70995  0.05636  1.0000
  C   C531      1.0  0.27587  0.95573  0.09177  1.0000
  C   C532      1.0  0.27870  0.94407  0.10549  1.0000
  C   C533      1.0  0.27032  0.94924  0.12011  1.0000
  H   H638      1.0  0.39239  0.89657  0.02043  1.0000
  Fe  Fe80      1.0  0.98441  0.75327  0.18172  1.0000
  H   H639      1.0  0.28781  0.93145  0.10493  1.0000
  H   H640      1.0  0.15727  0.71000  0.08442  1.0000
  H   H641      1.0  0.41001  0.94164  0.02925  1.0000
  C   C534      1.0  0.08066  0.86681  0.17146  1.0000
  C   C535      1.0  0.10697  0.88308  0.17551  1.0000
  C   C536      1.0  0.12113  0.90665  0.16776  1.0000
  C   C537      1.0  0.10903  0.91392  0.15585  1.0000
  C   C538      1.0  0.08286  0.89746  0.15166  1.0000
  C   C539      1.0  0.06867  0.87400  0.15946  1.0000
  H   H642      1.0  0.11643  0.87726  0.18455  1.0000
  H   H643      1.0  0.14142  0.91900  0.17085  1.0000
  H   H644      1.0  0.07346  0.90294  0.14237  1.0000
  H   H645      1.0  0.04840  0.86161  0.15628  1.0000
  C   C540      1.0  0.01754  0.73498  0.11486  1.0000
  C   C541      1.0  0.01257  0.71188  0.12243  1.0000
  C   C542      1.0  0.01949  0.69370  0.11536  1.0000
  C   C543      1.0  0.03192  0.69846  0.10075  1.0000
  C   C544      1.0  0.03801  0.72214  0.09354  1.0000
  C   C545      1.0  0.03063  0.74008  0.10047  1.0000
  C   C546      1.0  0.06992  0.86658  0.22354  1.0000
  H   H646      1.0  0.08894  0.78419  0.19710  1.0000
  H   H647      1.0  0.04762  0.72626  0.08237  1.0000
  H   H648      1.0  0.30837  0.96494  0.02328  1.0000
  C   C547      1.0  0.04659  0.78801  0.20780  1.0000
  N   N36       1.0  0.06047  0.77488  0.21523  1.0000
  C   C548      1.0  0.40213  0.94534  0.01808  1.0000
  C   C549      1.0  0.25534  0.97710  0.10751  1.0000
  H   H649      1.0  0.09497  0.89158  0.20666  1.0000
  C   C550      1.0  0.04807  0.74740  0.20916  1.0000
  H   H650      1.0  0.17756  0.94398  0.23006  1.0000
  C   C551      1.0  0.46180  0.92121  0.05604  1.0000
  C   C552      1.0  0.39019  0.93403  0.99082  1.0000
  C   C553      1.0  0.11190  0.90444  0.23061  1.0000
  H   H651      1.0  0.05768  0.73633  0.21424  1.0000
  H   H652      1.0  0.17808  0.69460  0.04689  1.0000
  H   H653      1.0  0.14849  0.67517  0.05700  1.0000
  H   H654      1.0  0.27832  0.96737  0.02251  1.0000
  H   H655      1.0  0.04860  0.78846  0.19484  1.0000
  H   H656      1.0  0.01463  0.67552  0.12109  1.0000
  H   H657      1.0  0.04892  0.74621  0.19607  1.0000
  S   S157      1.0  0.10292  0.67317  0.03498  1.0000
  H   H658      1.0  0.01498  0.66835  0.05904  1.0000
  H   H659      1.0  0.28923  0.95946  0.04034  1.0000
  Fe  Fe81      1.0  0.06139  0.66662  0.03426  1.0000
  H   H660      1.0  0.02698  0.73703  0.21174  1.0000
  N   N37       1.0  0.98850  0.67663  0.04502  1.0000
  C   C554      1.0  0.05981  0.77743  0.23258  1.0000
  N   N38       1.0  0.18215  0.69715  0.07221  1.0000
  C   C555      1.0  0.99845  0.65849  0.05037  1.0000
  H   H661      1.0  0.14941  0.67710  0.08740  1.0000
  N   N39       1.0  0.40295  0.92891  0.00471  1.0000
  C   C556      1.0  0.20651  0.72215  0.07178  1.0000
  C   C557      1.0  0.23003  0.72355  0.06605  1.0000
  C   C558      1.0  0.20686  0.74623  0.07591  1.0000
  C   C559      1.0  0.25254  0.74748  0.06503  1.0000
  C   C560      1.0  0.22955  0.76995  0.07506  1.0000
  C   C561      1.0  0.25228  0.77062  0.06952  1.0000
  H   H662      1.0  0.14175  0.91309  0.20421  1.0000
  C   C562      1.0  0.13412  0.95149  0.23204  1.0000
  H   H663      1.0  0.27315  0.94046  0.13063  1.0000
  C   C563      1.0  0.08781  0.78753  0.20998  1.0000
  Fe  Fe82      1.0  0.16669  0.97284  0.15316  1.0000
  C   C564      1.0  0.46987  0.93322  0.01185  1.0000
  H   H664      1.0  0.26163  0.98136  0.08246  1.0000
  H   H665      1.0  0.03462  0.73611  0.23761  1.0000
  H   H666      1.0  0.15905  0.94789  0.20650  1.0000
  H   H667      1.0  0.23139  0.70648  0.06199  1.0000
  H   H668      1.0  0.18946  0.74731  0.07922  1.0000
  H   H669      1.0  0.27019  0.74823  0.06041  1.0000
  H   H670      1.0  0.22921  0.78812  0.07797  1.0000
  H   H671      1.0  0.26947  0.78924  0.06824  1.0000
  H   H672      1.0  0.01777  0.68924  0.02711  1.0000
  H   H673      1.0  0.02583  0.71066  0.04422  1.0000
  H   H674      1.0  0.43577  0.92131  0.02516  1.0000
  H   H675      1.0  0.05426  0.80866  0.21187  1.0000
  N   N40       1.0  0.17629  0.90235  0.12314  1.0000
  C   C565      1.0  0.17412  0.92579  0.12860  1.0000
  C   C566      1.0  0.19431  0.89887  0.13433  1.0000
  C   C567      1.0  0.18812  0.90795  0.10738  1.0000
  C   C568      1.0  0.15103  0.87821  0.12223  1.0000
  C   C569      1.0  0.14981  0.85425  0.11690  1.0000
  C   C570      1.0  0.12720  0.87753  0.12673  1.0000
  C   C571      1.0  0.12626  0.83113  0.11613  1.0000
  C   C572      1.0  0.10380  0.85427  0.12606  1.0000
  C   C573      1.0  0.10330  0.83113  0.12075  1.0000
  H   H676      1.0  0.16645  0.92353  0.14072  1.0000
  H   H677      1.0  0.19341  0.94355  0.12907  1.0000
  H   H678      1.0  0.16122  0.93007  0.12060  1.0000
  H   H679      1.0  0.18584  0.89402  0.14624  1.0000
  H   H680      1.0  0.21329  0.91695  0.13571  1.0000
  H   H681      1.0  0.19899  0.88315  0.13039  1.0000
  H   H682      1.0  0.17471  0.90970  0.09849  1.0000
  H   H683      1.0  0.20671  0.92656  0.10758  1.0000
  H   H684      1.0  0.19309  0.89263  0.10303  1.0000
  H   H685      1.0  0.16710  0.85320  0.11329  1.0000
  H   H686      1.0  0.12600  0.89470  0.13080  1.0000
  H   H687      1.0  0.12574  0.81307  0.11192  1.0000
  H   H688      1.0  0.08591  0.85421  0.12970  1.0000
  H   H689      1.0  0.08505  0.81318  0.12019  1.0000
  H   H690      1.0  0.19483  0.67018  0.06242  1.0000
  H   H691      1.0  0.00238  0.70747  0.13341  1.0000
  C   C574      1.0  0.16680  0.69401  0.05749  1.0000
  H   H692      1.0  0.05560  0.85464  0.21453  1.0000
  S   S158      1.0  0.04215  0.66079  0.00966  1.0000
  H   H693      1.0  0.02545  0.77781  0.21018  1.0000
  H   H694      1.0  0.36962  0.92931  0.99315  1.0000
  H   H695      1.0  0.17810  0.70244  0.09703  1.0000
  S   S159      1.0  0.24919  0.97208  0.14026  1.0000
  C   C575      1.0  0.34721  0.97095  0.99319  1.0000
  C   C576      1.0  0.38723  0.90102  0.00857  1.0000
  C   C577      1.0  0.09287  0.88809  0.21914  1.0000
  C   C578      1.0  0.26399  0.97216  0.09292  1.0000
  H   H696      1.0  0.38182  0.94149  0.02047  1.0000
  C   C579      1.0  0.14046  0.93035  0.20921  1.0000
  H   H697      1.0  0.12492  0.93270  0.20262  1.0000
  C   C580      1.0  0.98054  0.68835  0.05816  1.0000
  H   H698      1.0  0.38986  0.88798  0.99980  1.0000
  N   N41       1.0  0.13592  0.92799  0.22644  1.0000
  C   C581      1.0  0.00954  0.69743  0.03612  1.0000
  H   H699      1.0  0.08328  0.81985  0.23357  1.0000
  H   H700      1.0  0.15970  0.90923  0.23151  1.0000
  H   H701      1.0  0.16862  0.65578  0.07522  1.0000
  C   C582      1.0  0.98307  0.74745  0.23024  1.0000
  H   H702      1.0  0.15134  0.96973  0.22861  1.0000
  H   H703      1.0  0.11647  0.95184  0.22691  1.0000
  H   H704      1.0  0.98785  0.76554  0.22446  1.0000
  C   C583      1.0  0.15908  0.92784  0.23414  1.0000
  C   C584      1.0  0.97923  0.68022  0.07399  1.0000
  H   H705      1.0  0.00274  0.70961  0.02949  1.0000
  H   H706      1.0  0.23050  0.98545  0.21351  1.0000
  Fe  Fe83      1.0  0.02930  0.80642  0.30336  1.0000
  S   S160      1.0  0.02801  0.76738  0.30678  1.0000
  S   S161      1.0  0.06629  0.83702  0.29269  1.0000
  Fe  Fe84      1.0  0.00701  0.76547  0.32911  1.0000
  S   S162      1.0  0.02031  0.75844  0.35359  1.0000
  S   S163      1.0  0.01059  0.80591  0.32636  1.0000
  C   C585      1.0  0.45465  0.95280  0.45170  1.0000
  S   S164      1.0  0.19617  0.95273  0.31269  1.0000
  S   S165      1.0  0.12974  0.95170  0.32195  1.0000
  H   H707      1.0  0.13304  0.95236  0.24510  1.0000
  C   C586      1.0  0.45953  0.94355  0.46575  1.0000
  C   C587      1.0  0.00652  0.66190  0.40955  1.0000
  H   H708      1.0  0.27998  0.96272  0.33997  1.0000
  Fe  Fe85      1.0  0.33790  0.93668  0.43977  1.0000
  S   S166      1.0  0.36222  0.94025  0.41861  1.0000
  S   S167      1.0  0.34336  0.97393  0.45321  1.0000
  Fe  Fe86      1.0  0.30088  0.87757  0.43220  1.0000
  S   S168      1.0  0.32358  0.87786  0.41069  1.0000
  S   S169      1.0  0.26364  0.84531  0.44318  1.0000
  Fe  Fe87      1.0  0.36058  0.90203  0.42545  1.0000
  S   S170      1.0  0.39621  0.89408  0.42944  1.0000
  Fe  Fe88      1.0  0.32376  0.91636  0.40549  1.0000
  S   S171      1.0  0.31751  0.92970  0.38107  1.0000
  S   S172      1.0  0.33767  0.89952  0.44738  1.0000
  S   S173      1.0  0.29970  0.91485  0.42620  1.0000
  H   H709      1.0  0.29891  0.87433  0.47360  1.0000
  S   S174      1.0  0.08841  0.70648  0.42493  1.0000
  H   H710      1.0  0.27699  0.89363  0.45986  1.0000
  Fe  Fe89      1.0  0.12478  0.70129  0.42556  1.0000
  S   S175      1.0  0.16553  0.73578  0.42056  1.0000
  C   C588      1.0  0.29583  0.94774  0.35814  1.0000
  C   C589      1.0  0.19229  0.76656  0.42704  1.0000
  C   C590      1.0  0.21334  0.77959  0.41696  1.0000
  C   C591      1.0  0.23500  0.80370  0.42151  1.0000
  C   C592      1.0  0.23621  0.81527  0.43636  1.0000
  C   C593      1.0  0.21508  0.80234  0.44640  1.0000
  C   C594      1.0  0.19331  0.77834  0.44179  1.0000
  H   H711      1.0  0.21311  0.77081  0.40557  1.0000
  H   H712      1.0  0.25098  0.81313  0.41361  1.0000
  H   H713      1.0  0.21556  0.81090  0.45790  1.0000
  H   H714      1.0  0.17746  0.76883  0.44974  1.0000
  C   C595      1.0  0.32319  0.97744  0.41419  1.0000
  C   C596      1.0  0.27772  0.95532  0.35177  1.0000
  C   C597      1.0  0.44401  0.89388  0.43208  1.0000
  C   C598      1.0  0.42920  0.90365  0.42377  1.0000
  C   C599      1.0  0.44097  0.92029  0.41129  1.0000
  C   C600      1.0  0.06516  0.86071  0.23938  1.0000
  C   C601      1.0  0.99515  0.71636  0.41723  1.0000
  H   H715      1.0  0.43524  0.88088  0.44169  1.0000
  H   H716      1.0  0.43006  0.92798  0.40468  1.0000
  H   H717      1.0  0.05815  0.78641  0.27835  1.0000
  H   H718      1.0  0.06734  0.80781  0.34847  1.0000
  H   H719      1.0  0.17328  0.78955  0.36367  1.0000
  Fe  Fe90      1.0  0.07356  0.67495  0.40606  1.0000
  S   S176      1.0  0.11000  0.67016  0.40594  1.0000
  H   H720      1.0  0.12462  0.72579  0.39777  1.0000
  C   C602      1.0  0.29345  0.93815  0.37351  1.0000
  C   C603      1.0  0.99411  0.73672  0.40908  1.0000
  C   C604      1.0  0.12547  0.71450  0.36695  1.0000
  C   C605      1.0  0.25696  0.95354  0.36074  1.0000
  C   C606      1.0  0.25448  0.94383  0.37607  1.0000
  C   C607      1.0  0.27246  0.93606  0.38239  1.0000
  C   C608      1.0  0.05865  0.78385  0.26572  1.0000
  H   H721      1.0  0.31171  0.96144  0.40552  1.0000
  H   H722      1.0  0.23866  0.94250  0.38320  1.0000
  H   H723      1.0  0.27004  0.92846  0.39414  1.0000
  C   C609      1.0  0.13256  0.75902  0.36395  1.0000
  C   C610      1.0  0.12188  0.73881  0.38929  1.0000
  C   C611      1.0  0.08325  0.86900  0.30074  1.0000
  C   C612      1.0  0.07281  0.87799  0.31266  1.0000
  C   C613      1.0  0.08711  0.90352  0.31895  1.0000
  C   C614      1.0  0.11197  0.92010  0.31347  1.0000
  C   C615      1.0  0.12243  0.91104  0.30158  1.0000
  C   C616      1.0  0.10804  0.88562  0.29519  1.0000
  H   H724      1.0  0.05371  0.86533  0.31700  1.0000
  H   H725      1.0  0.07894  0.91042  0.32815  1.0000
  H   H726      1.0  0.14151  0.92370  0.29724  1.0000
  H   H727      1.0  0.11625  0.87872  0.28601  1.0000
  C   C617      1.0  0.03052  0.73582  0.36105  1.0000
  C   C618      1.0  0.04061  0.73942  0.37663  1.0000
  C   C619      1.0  0.04780  0.72147  0.38341  1.0000
  C   C620      1.0  0.04531  0.69972  0.37460  1.0000
  C   C621      1.0  0.03553  0.69628  0.35896  1.0000
  C   C622      1.0  0.02821  0.71419  0.35220  1.0000
  H   H728      1.0  0.05519  0.72449  0.39546  1.0000
  H   H729      1.0  0.44393  0.93424  0.47395  1.0000
  H   H730      1.0  0.02051  0.71107  0.34021  1.0000
  C   C623      1.0  0.43305  0.86156  0.39334  1.0000
  H   H731      1.0  0.32562  0.90454  0.48082  1.0000
  H   H732      1.0  0.03359  0.67962  0.35196  1.0000
  N   N42       1.0  0.98881  0.66970  0.41784  1.0000
  C   C624      1.0  0.07230  0.80545  0.25654  1.0000
  Fe  Fe91      1.0  0.98886  0.75145  0.29438  1.0000
  H   H733      1.0  0.27075  0.91834  0.46856  1.0000
  H   H734      1.0  0.04725  0.84414  0.24277  1.0000
  C   C625      1.0  0.46996  0.90057  0.42807  1.0000
  H   H735      1.0  0.47073  0.87354  0.38474  1.0000
  C   C626      1.0  0.98351  0.74683  0.24696  1.0000
  H   H736      1.0  0.10402  0.70533  0.36486  1.0000
  H   H737      1.0  0.98532  0.68087  0.44180  1.0000
  C   C627      1.0  0.41854  0.82970  0.41368  1.0000
  H   H738      1.0  0.17243  0.76763  0.38632  1.0000
  H   H739      1.0  0.31186  0.94934  0.35109  1.0000
  H   H740      1.0  0.30087  0.95486  0.48181  1.0000
  H   H741      1.0  0.98924  0.76455  0.25393  1.0000
  C   C628      1.0  0.47437  0.96423  0.44093  1.0000
  H   H742      1.0  0.12885  0.70065  0.37443  1.0000
  C   C629      1.0  0.44194  0.82827  0.41309  1.0000
  C   C630      1.0  0.98790  0.69172  0.40968  1.0000
  C   C631      1.0  0.45659  0.86039  0.39269  1.0000
  H   H743      1.0  0.43529  0.95039  0.44893  1.0000
  C   C632      1.0  0.28471  0.91012  0.46870  1.0000
  H   H744      1.0  0.11944  0.90984  0.25611  1.0000
  H   H745      1.0  0.13458  0.71534  0.35540  1.0000
  H   H746      1.0  0.31005  0.97670  0.42375  1.0000
  C   C633      1.0  0.30544  0.88951  0.48329  1.0000
  S   S177      1.0  0.99157  0.79031  0.28945  1.0000
  H   H747      1.0  0.47022  0.97069  0.42980  1.0000
  C   C634      1.0  0.36686  0.97705  0.48282  1.0000
  C   C635      1.0  0.46690  0.92688  0.40722  1.0000
  S   S178      1.0  0.05482  0.67675  0.38232  1.0000
  H   H748      1.0  0.40393  0.81834  0.42206  1.0000
  C   C636      1.0  0.98589  0.73321  0.39330  1.0000
  S   S179      1.0  0.10920  0.67053  0.44435  1.0000
  H   H749      1.0  0.12888  0.75820  0.39535  1.0000
  H   H750      1.0  0.39631  0.84808  0.40467  1.0000
  H   H751      1.0  0.17574  0.75118  0.36869  1.0000
  C   C637      1.0  0.10738  0.75307  0.35789  1.0000
  C   C638      1.0  0.10339  0.76980  0.34780  1.0000
  C   C639      1.0  0.14934  0.79965  0.34926  1.0000
  C   C640      1.0  0.12438  0.79295  0.34337  1.0000
  H   H752      1.0  0.08386  0.76470  0.34338  1.0000
  H   H753      1.0  0.16560  0.81776  0.34585  1.0000
  H   H754      1.0  0.12124  0.80574  0.33540  1.0000
  Fe  Fe92      1.0  0.17271  0.97370  0.31731  1.0000
  S   S180      1.0  0.23398  0.96384  0.35376  1.0000
  C   C641      1.0  0.16374  0.74906  0.37918  1.0000
  H   H755      1.0  0.00188  0.72052  0.42939  1.0000
  Fe  Fe93      1.0  0.07163  0.67343  0.44213  1.0000
  C   C642      1.0  0.99828  0.67587  0.43454  1.0000
  H   H756      1.0  0.33805  0.97293  0.41973  1.0000
  C   C643      1.0  0.46170  0.84350  0.40253  1.0000
  N   N43       1.0  0.15987  0.89552  0.35102  1.0000
  C   C644      1.0  0.17696  0.89436  0.33854  1.0000
  C   C645      1.0  0.15498  0.91813  0.34817  1.0000
  C   C646      1.0  0.17446  0.90056  0.36632  1.0000
  C   C647      1.0  0.13483  0.87113  0.35053  1.0000
  C   C648      1.0  0.12563  0.85434  0.36358  1.0000
  C   C649      1.0  0.11863  0.86362  0.33671  1.0000
  C   C650      1.0  0.10157  0.83176  0.36275  1.0000
  C   C651      1.0  0.09471  0.84096  0.33602  1.0000
  C   C652      1.0  0.08610  0.82518  0.34903  1.0000
  H   H757      1.0  0.16867  0.89339  0.32649  1.0000
  H   H758      1.0  0.19635  0.91210  0.33896  1.0000
  H   H759      1.0  0.18039  0.87708  0.33981  1.0000
  H   H760      1.0  0.14692  0.91746  0.33612  1.0000
  H   H761      1.0  0.17320  0.93704  0.34926  1.0000
  H   H762      1.0  0.14083  0.91893  0.35658  1.0000
  H   H763      1.0  0.17972  0.88479  0.36897  1.0000
  H   H764      1.0  0.19315  0.91898  0.36627  1.0000
  H   H765      1.0  0.16321  0.90288  0.37617  1.0000
  H   H766      1.0  0.13646  0.85830  0.37462  1.0000
  H   H767      1.0  0.12417  0.87545  0.32636  1.0000
  H   H768      1.0  0.09469  0.81928  0.37282  1.0000
  H   H769      1.0  0.08255  0.83570  0.32537  1.0000
  C   C653      1.0  0.15350  0.78309  0.35947  1.0000
  H   H770      1.0  0.09051  0.73535  0.36095  1.0000
  H   H771      1.0  0.10058  0.73055  0.38708  1.0000
  H   H772      1.0  0.07938  0.87190  0.26328  1.0000
  H   H773      1.0  0.42983  0.87510  0.38608  1.0000
  H   H774      1.0  0.08225  0.82469  0.26216  1.0000
  N   N44       1.0  0.28777  0.90150  0.48464  1.0000
  H   H775      1.0  0.04246  0.75603  0.38362  1.0000
  H   H776      1.0  0.01852  0.69216  0.43555  1.0000
  H   H777      1.0  0.16570  0.73447  0.38677  1.0000
  N   N45       1.0  0.13609  0.74083  0.37462  1.0000
  C   C654      1.0  0.10631  0.89798  0.24666  1.0000
  H   H778      1.0  0.30373  0.92495  0.46431  1.0000
  H   H779      1.0  0.47154  0.80245  0.41018  1.0000
  Fe  Fe94      1.0  0.21671  0.98460  0.29533  1.0000
  H   H780      1.0  0.02670  0.67828  0.40965  1.0000
  C   C655      1.0  0.41411  0.84633  0.40383  1.0000
  S   S181      1.0  0.04889  0.67539  0.46369  1.0000
  H   H781      1.0  0.44468  0.81557  0.42126  1.0000
  C   C656      1.0  0.04584  0.75577  0.24231  1.0000
  C   C657      1.0  0.04538  0.75910  0.25865  1.0000
  H   H782      1.0  0.03418  0.74242  0.26585  1.0000
  Fe  Fe95      1.0  0.22446  0.97990  0.33123  1.0000
  H   H783      1.0  0.47555  0.93968  0.39751  1.0000
  H   H784      1.0  0.36529  0.95804  0.48007  1.0000
  C   C658      1.0  0.08333  0.87636  0.25092  1.0000
  S   S182      1.0  0.22678  0.97528  0.27099  1.0000
  H   H785      1.0  0.98577  0.74920  0.38685  1.0000
  H   H786      1.0  0.15979  0.93068  0.24716  1.0000
  H   H787      1.0  0.25312  0.86501  0.48018  1.0000
  H   H788      1.0  0.00065  0.65599  0.39700  1.0000
  H   H789      1.0  0.00000  0.75547  0.41496  1.0000
  H   H790      1.0  0.47056  0.80612  0.38920  1.0000
  C   C659      1.0  0.07285  0.80241  0.24021  1.0000
  C   C660      1.0  0.97946  0.68882  0.39361  1.0000
  C   C661      1.0  0.97851  0.70929  0.38561  1.0000
  H   H791      1.0  0.99902  0.65901  0.44023  1.0000
  C   C662      1.0  0.01409  0.65857  0.48800  1.0000
  C   C663      1.0  0.22900  0.98138  0.23886  1.0000
  H   H792      1.0  0.24034  0.97086  0.23905  1.0000
  C   C664      1.0  0.07835  0.82667  0.69105  1.0000
  S   S183      1.0  0.99723  0.77875  0.63125  1.0000
  Fe  Fe96      1.0  0.99582  0.77910  0.67732  1.0000
  S   S184      1.0  0.00440  0.81449  0.66307  1.0000
  C   C665      1.0  0.29830  0.92296  0.49671  1.0000
  Fe  Fe97      1.0  0.02983  0.80311  0.64877  1.0000
  S   S185      1.0  0.07294  0.82803  0.64336  1.0000
  S   S186      1.0  0.02300  0.76885  0.66380  1.0000
  H   H793      1.0  0.38270  0.97926  0.50637  1.0000
  C   C666      1.0  0.03074  0.69528  0.58646  1.0000
  H   H794      1.0  0.99032  0.80324  0.73502  1.0000
  C   C667      1.0  0.31458  0.93827  0.52381  1.0000
  C   C668      1.0  0.18950  0.95551  0.59197  1.0000
  H   H795      1.0  0.14345  0.92655  0.68304  1.0000
  S   S187      1.0  0.14582  0.95149  0.65071  1.0000
  S   S188      1.0  0.22099  0.96483  0.65764  1.0000
  H   H796      1.0  0.05031  0.77446  0.62773  1.0000
  H   H797      1.0  0.05867  0.87214  0.69947  1.0000
  C   C669      1.0  0.04186  0.75636  0.62013  1.0000
  H   H798      1.0  0.04695  0.82220  0.71622  1.0000
  H   H799      1.0  0.00710  0.74764  0.71023  1.0000
  C   C670      1.0  0.09279  0.86225  0.64666  1.0000
  C   C671      1.0  0.12007  0.87249  0.64709  1.0000
  C   C672      1.0  0.13659  0.89960  0.64888  1.0000
  C   C673      1.0  0.12601  0.91694  0.64989  1.0000
  C   C674      1.0  0.09872  0.90669  0.64956  1.0000
  C   C675      1.0  0.08219  0.87953  0.64813  1.0000
  H   H800      1.0  0.12853  0.85937  0.64592  1.0000
  H   H801      1.0  0.15749  0.90707  0.64911  1.0000
  H   H802      1.0  0.09029  0.91990  0.65026  1.0000
  H   H803      1.0  0.06128  0.87208  0.64767  1.0000
  C   C676      1.0  0.99820  0.77652  0.72083  1.0000
  C   C677      1.0  0.02946  0.69059  0.61919  1.0000
  C   C678      1.0  0.00823  0.74663  0.73573  1.0000
  H   H804      1.0  0.02081  0.74534  0.62268  1.0000
  H   H805      1.0  0.03769  0.83844  0.69451  1.0000
  H   H806      1.0  0.09315  0.74319  0.62052  1.0000
  H   H807      1.0  0.08552  0.76229  0.60692  1.0000
  C   C679      1.0  0.23879  0.97738  0.72250  1.0000
  H   H808      1.0  0.06351  0.72291  0.64327  1.0000
  C   C680      1.0  0.04270  0.71763  0.59625  1.0000
  H   H809      1.0  0.06358  0.75342  0.64741  1.0000
  H   H810      1.0  0.19025  0.93708  0.58903  1.0000
  C   C681      1.0  0.04249  0.71600  0.61294  1.0000
  N   N46       1.0  0.05498  0.74005  0.62303  1.0000
  Fe  Fe98      1.0  0.23166  0.98385  0.68202  1.0000
  H   H811      1.0  0.09300  0.77297  0.62699  1.0000
  Fe  Fe99      1.0  0.98881  0.74523  0.64709  1.0000
  N   N47       1.0  0.17823  0.95487  0.60760  1.0000
  C   C682      1.0  0.31428  0.96887  0.50501  1.0000
  H   H812      1.0  0.07803  0.82656  0.72182  1.0000
  C   C683      1.0  0.99525  0.78735  0.73513  1.0000
  C   C684      1.0  0.15116  0.93347  0.60768  1.0000
  C   C685      1.0  0.12921  0.93789  0.60981  1.0000
  C   C686      1.0  0.14616  0.90709  0.60579  1.0000
  C   C687      1.0  0.10403  0.91711  0.61034  1.0000
  C   C688      1.0  0.12093  0.88647  0.60650  1.0000
  C   C689      1.0  0.09993  0.89147  0.60882  1.0000
  H   H813      1.0  0.09237  0.82042  0.69608  1.0000
  H   H814      1.0  0.21262  0.94236  0.73409  1.0000
  C   C690      1.0  0.01838  0.67070  0.59297  1.0000
  H   H815      1.0  0.17494  0.92840  0.70364  1.0000
  H   H816      1.0  0.02724  0.68730  0.63168  1.0000
  C   C691      1.0  0.05379  0.73497  0.64018  1.0000
  H   H817      1.0  0.09978  0.89042  0.68129  1.0000
  H   H818      1.0  0.06980  0.85281  0.72515  1.0000
  C   C692      1.0  0.13752  0.91126  0.69161  1.0000
  H   H819      1.0  0.13097  0.95715  0.61167  1.0000
  H   H820      1.0  0.16182  0.90219  0.60413  1.0000
  C   C693      1.0  0.12279  0.87151  0.71333  1.0000
  H   H821      1.0  0.11765  0.86645  0.60567  1.0000
  H   H822      1.0  0.08050  0.87542  0.60985  1.0000
  H   H823      1.0  0.19713  0.93308  0.61706  1.0000
  H   H824      1.0  0.05163  0.73625  0.59062  1.0000
  H   H825      1.0  0.04328  0.76266  0.60775  1.0000
  C   C694      1.0  0.08284  0.75523  0.61917  1.0000
  H   H826      1.0  0.03329  0.72490  0.64413  1.0000
  C   C695      1.0  0.18032  0.98108  0.61097  1.0000
  S   S189      1.0  0.99395  0.78975  0.70302  1.0000
  H   H827      1.0  0.31923  0.93435  0.53557  1.0000
  H   H828      1.0  0.08769  0.92088  0.61253  1.0000
  H   H829      1.0  0.03044  0.69695  0.57376  1.0000
  H   H830      1.0  0.21426  0.96723  0.62109  1.0000
  C   C696      1.0  0.05795  0.85445  0.69362  1.0000
  H   H831      1.0  0.18496  0.94738  0.63141  1.0000
  C   C697      1.0  0.14798  0.89247  0.71400  1.0000
  N   N48       1.0  0.07744  0.84758  0.70090  1.0000
  C   C698      1.0  0.06785  0.83705  0.71670  1.0000
  H   H832      1.0  0.20988  0.97153  0.59152  1.0000
  C   C699      1.0  0.30373  0.94901  0.49340  1.0000
  C   C700      1.0  0.10390  0.87013  0.70192  1.0000
  H   H833      1.0  0.11857  0.85642  0.72177  1.0000
  C   C701      1.0  0.22646  0.96277  0.73568  1.0000
  H   H834      1.0  0.05889  0.80914  0.69004  1.0000
  C   C702      1.0  0.26181  0.88118  0.48926  1.0000
  H   H835      1.0  0.08461  0.83333  0.67888  1.0000
  C   C703      1.0  0.11229  0.89040  0.69082  1.0000
  H   H836      1.0  0.02722  0.67698  0.49376  1.0000
  C   C704      1.0  0.19432  0.95042  0.61977  1.0000
  C   C705      1.0  0.32008  0.96363  0.52010  1.0000
  C   C706      1.0  0.15530  0.91233  0.70320  1.0000
  S   S190      1.0  0.23271  0.96185  0.70363  1.0000
  C   C707      1.0  0.00470  0.75610  0.72115  1.0000
  H   H837      1.0  0.30642  0.87955  0.49416  1.0000
  C   C708      1.0  0.01780  0.66836  0.60927  1.0000
  C   C709      1.0  0.30365  0.91814  0.51237  1.0000
  H   H838      1.0  0.06063  0.85769  0.68075  1.0000
  H   H839      1.0  0.17232  0.98187  0.62271  1.0000
  H   H840      1.0  0.17781  0.95859  0.58246  1.0000
  H   H841      1.0  0.29982  0.89883  0.51581  1.0000
  H   H842      1.0  0.26271  0.87208  0.50053  1.0000
  Fe  Fe100     1.0  0.18874  0.97605  0.65828  1.0000
  H   H843      1.0  0.32936  0.97944  0.52880  1.0000
  H   H844      1.0  0.01333  0.73085  0.73594  1.0000
  H   H845      1.0  0.16209  0.89324  0.72284  1.0000
  H   H846      1.0  0.24807  0.88952  0.49072  1.0000
  H   H847      1.0  0.00842  0.65348  0.58534  1.0000
  H   H848      1.0  0.98093  0.72537  0.60707  1.0000
  Fe  Fe101     1.0  0.00138  0.75668  0.79224  1.0000
  H   H849      1.0  0.22690  0.90701  0.86913  1.0000
  C   C710      1.0  0.34420  0.97405  0.97698  1.0000
  H   H850      1.0  0.04334  0.79366  0.84494  1.0000
  H   H851      1.0  0.22331  0.98400  0.88314  1.0000
  Fe  Fe102     1.0  0.01729  0.79820  0.81850  1.0000
  S   S191      1.0  0.04493  0.83984  0.82789  1.0000
  S   S192      1.0  0.02894  0.76682  0.81337  1.0000
  Fe  Fe103     1.0  0.19095  0.96121  0.81345  1.0000
  C   C711      1.0  0.05463  0.81763  0.87243  1.0000
  S   S193      1.0  0.16554  0.91701  0.81591  1.0000
  H   H852      1.0  0.07612  0.82772  0.87115  1.0000
  C   C712      1.0  0.08106  0.77867  0.90468  1.0000
  H   H853      1.0  0.19619  0.90056  0.86070  1.0000
  H   H854      1.0  0.24608  0.93870  0.84715  1.0000
  H   H855      1.0  0.04962  0.82278  0.88412  1.0000
  H   H856      1.0  0.04075  0.76302  0.85052  1.0000
  H   H857      1.0  0.00687  0.78789  0.86415  1.0000
  C   C713      1.0  0.21159  0.91354  0.86934  1.0000
  C   C714      1.0  0.07235  0.79111  0.89384  1.0000
  Fe  Fe104     1.0  0.99394  0.73999  0.82735  1.0000
  C   C715      1.0  0.07803  0.86121  0.82331  1.0000
  C   C716      1.0  0.08831  0.88822  0.82660  1.0000
  C   C717      1.0  0.11468  0.90571  0.82384  1.0000
  C   C718      1.0  0.13145  0.89634  0.81821  1.0000
  C   C719      1.0  0.12122  0.86934  0.81505  1.0000
  C   C720      1.0  0.09468  0.85194  0.81738  1.0000
  H   H858      1.0  0.07570  0.89565  0.83124  1.0000
  H   H859      1.0  0.12211  0.92636  0.82629  1.0000
  H   H860      1.0  0.13391  0.86177  0.81072  1.0000
  H   H861      1.0  0.08725  0.83130  0.81484  1.0000
  C   C721      1.0  0.00519  0.75740  0.75005  1.0000
  C   C722      1.0  0.24554  0.95644  0.87601  1.0000
  H   H862      1.0  0.33010  0.95767  0.96993  1.0000
  H   H863      1.0  0.00484  0.67785  0.86677  1.0000
  S   S194      1.0  0.99799  0.71292  0.84572  1.0000
  H   H864      1.0  0.09508  0.78996  0.91395  1.0000
  H   H865      1.0  0.22289  0.96277  0.76104  1.0000
  S   S195      1.0  0.23466  0.97571  0.81393  1.0000
  C   C723      1.0  0.07170  0.75172  0.90370  1.0000
  H   H866      1.0  0.08028  0.81199  0.89532  1.0000
  C   C724      1.0  0.44335  0.94475  0.98792  1.0000
  S   S196      1.0  0.98387  0.77203  0.83372  1.0000
  C   C725      1.0  0.05009  0.78411  0.85390  1.0000
  H   H867      1.0  0.00488  0.75659  0.86696  1.0000
  C   C726      1.0  0.23092  0.94508  0.84910  1.0000
  C   C727      1.0  0.23230  0.97429  0.75097  1.0000
  C   C728      1.0  0.04482  0.74929  0.88100  1.0000
  C   C729      1.0  0.99868  0.77783  0.74966  1.0000
  C   C730      1.0  0.01503  0.77730  0.87129  1.0000
  H   H868      1.0  0.24041  0.95478  0.88866  1.0000
  H   H869      1.0  0.00932  0.77777  0.88369  1.0000
  H   H870      1.0  0.23951  0.96602  0.84607  1.0000
  C   C731      1.0  0.16131  0.96425  0.87057  1.0000
  N   N49       1.0  0.04373  0.78892  0.87009  1.0000
  C   C732      1.0  0.05361  0.73707  0.89188  1.0000
  C   C733      1.0  0.05388  0.77669  0.88162  1.0000
  H   H871      1.0  0.04672  0.82607  0.86335  1.0000
  H   H872      1.0  0.14578  0.96952  0.87187  1.0000
  H   H873      1.0  0.03069  0.73702  0.87210  1.0000
  H   H874      1.0  0.07841  0.74212  0.91214  1.0000
  H   H875      1.0  0.07144  0.79178  0.85265  1.0000
  N   N50       1.0  0.22219  0.94154  0.86558  1.0000
  S   S197      1.0  0.01009  0.74508  0.76809  1.0000
  C   C734      1.0  0.18511  0.97854  0.87857  1.0000
  H   H876      1.0  0.43419  0.94939  0.97817  1.0000
  C   C735      1.0  0.20173  0.94990  0.86728  1.0000
  C   C736      1.0  0.20516  0.97169  0.87693  1.0000
  H   H877      1.0  0.26037  0.94944  0.87464  1.0000
  H   H878      1.0  0.25565  0.97748  0.87309  1.0000
  H   H879      1.0  0.20308  0.90976  0.88127  1.0000
  H   H880      1.0  0.99644  0.78640  0.76058  1.0000
  S   S198      1.0  0.99135  0.78936  0.79659  1.0000
  H   H881      1.0  0.17367  0.92006  0.85095  1.0000
  C   C737      1.0  0.17743  0.93619  0.85902  1.0000
  H   H882      1.0  0.04617  0.71605  0.89111  1.0000
  H   H883      1.0  0.21468  0.93391  0.84043  1.0000
  C   C738      1.0  0.15755  0.94321  0.86074  1.0000
  H   H884      1.0  0.13920  0.93228  0.85428  1.0000
  H   H885      1.0  0.02451  0.65872  0.97765  1.0000
  H   H886      1.0  0.38950  0.92179  0.98039  1.0000
  C   C739      1.0  0.98534  0.67530  0.86838  1.0000
  C   C740      1.0  0.46891  0.94891  0.98584  1.0000
  S   S199      1.0  0.19216  0.98433  0.79207  1.0000
  H   H887      1.0  0.40005  0.95499  0.98776  1.0000
  H   H888      1.0  0.90001  0.13079  0.22693  1.0000
  S   S200      1.0  0.95984  0.23214  0.15613  1.0000
  S   S201      1.0  0.94905  0.15893  0.15054  1.0000
  C   C741      1.0  0.79973  0.06335  0.19208  1.0000
  H   H889      1.0  0.93535  0.18324  0.18415  1.0000
  H   H890      1.0  0.63347  0.05342  0.04728  1.0000
  C   C742      1.0  0.73557  0.00061  0.22569  1.0000
  H   H891      1.0  0.64554  0.03956  0.03244  1.0000
  Fe  Fe105     1.0  0.79788  0.04362  0.14976  1.0000
  S   S202      1.0  0.75540  0.03259  0.15293  1.0000
  S   S203      1.0  0.82522  0.08781  0.15244  1.0000
  H   H892      1.0  0.71062  0.04033  0.08946  1.0000
  C   C743      1.0  0.60123  0.00697  0.06001  1.0000
  C   C744      1.0  0.84434  0.13551  0.22624  1.0000
  H   H893      1.0  0.95795  0.22245  0.12194  1.0000
  C   C745      1.0  0.62218  0.99070  0.04211  1.0000
  H   H894      1.0  0.90832  0.11948  0.20218  1.0000
  C   C746      1.0  0.82825  0.12361  0.21294  1.0000
  C   C747      1.0  0.78337  0.00085  0.23021  1.0000
  C   C748      1.0  0.64721  0.02060  0.07889  1.0000
  S   S204      1.0  0.73684  0.00041  0.19325  1.0000
  C   C749      1.0  0.91460  0.13957  0.15151  1.0000
  C   C750      1.0  0.90376  0.11227  0.14964  1.0000
  C   C751      1.0  0.87656  0.09611  0.14995  1.0000
  C   C752      1.0  0.85977  0.10708  0.15210  1.0000
  C   C753      1.0  0.87065  0.13440  0.15408  1.0000
  C   C754      1.0  0.89784  0.15056  0.15379  1.0000
  H   H895      1.0  0.91647  0.10350  0.14784  1.0000
  H   H896      1.0  0.86859  0.07518  0.14841  1.0000
  H   H897      1.0  0.85789  0.14317  0.15568  1.0000
  H   H898      1.0  0.90576  0.17150  0.15516  1.0000
  H   H899      1.0  0.85775  0.15624  0.22640  1.0000
  C   C755      1.0  0.87170  0.12313  0.09272  1.0000
  H   H900      1.0  0.60273  0.02352  0.06759  1.0000
  S   S205      1.0  0.78756  0.01570  0.12891  1.0000
  C   C756      1.0  0.62936  0.03510  0.04063  1.0000
  N   N51       1.0  0.79293  0.08319  0.19869  1.0000
  C   C757      1.0  0.76538  0.06992  0.20351  1.0000
  C   C758      1.0  0.79474  0.10094  0.18577  1.0000
  C   C759      1.0  0.81026  0.09653  0.21251  1.0000
  H   H901      1.0  0.91002  0.13708  0.18487  1.0000
  H   H902      1.0  0.95760  0.20158  0.19966  1.0000
  H   H903      1.0  0.86758  0.14318  0.07265  1.0000
  H   H904      1.0  0.75965  0.08395  0.20911  1.0000
  H   H905      1.0  0.75178  0.06008  0.19327  1.0000
  H   H906      1.0  0.63888  0.99479  0.03442  1.0000
  H   H907      1.0  0.78928  0.11613  0.18975  1.0000
  H   H908      1.0  0.78148  0.09010  0.17557  1.0000
  H   H909      1.0  0.82009  0.07241  0.18791  1.0000
  N   N52       1.0  0.93590  0.16041  0.20396  1.0000
  C   C760      1.0  0.69369  0.03590  0.08192  1.0000
  H   H910      1.0  0.61174  0.02966  0.03290  1.0000
  H   H911      1.0  0.66762  0.02552  0.10118  1.0000
  H   H912      1.0  0.92364  0.19030  0.20225  1.0000
  C   C761      1.0  0.97009  0.25076  0.23243  1.0000
  N   N53       1.0  0.62573  0.01395  0.05154  1.0000
  H   H913      1.0  0.96686  0.17537  0.09498  1.0000
  H   H914      1.0  0.90791  0.18275  0.07798  1.0000
  H   H915      1.0  0.67673  0.03201  0.04329  1.0000
  H   H916      1.0  0.79691  0.06147  0.22656  1.0000
  H   H917      1.0  0.97696  0.19681  0.22207  1.0000
  H   H918      1.0  0.78671  0.05265  0.18186  1.0000
  C   C762      1.0  0.94022  0.20413  0.11852  1.0000
  H   H919      1.0  0.62893  0.01319  0.08483  1.0000
  C   C763      1.0  0.93811  0.18481  0.19722  1.0000
  H   H920      1.0  0.88068  0.10815  0.11368  1.0000
  H   H921      1.0  0.92373  0.20892  0.11766  1.0000
  H   H922      1.0  0.95031  0.24790  0.23150  1.0000
  H   H923      1.0  0.96988  0.23104  0.09498  1.0000
  C   C764      1.0  0.91089  0.13863  0.19799  1.0000
  C   C765      1.0  0.91808  0.14653  0.23144  1.0000
  H   H924      1.0  0.80192  0.00088  0.23188  1.0000
  H   H925      1.0  0.79758  0.04833  0.20071  1.0000
  C   C766      1.0  0.67400  0.03092  0.05587  1.0000
  C   C767      1.0  0.88706  0.12450  0.10584  1.0000
  H   H926      1.0  0.95415  0.20638  0.07982  1.0000
  S   S206      1.0  0.96984  0.25385  0.20008  1.0000
  H   H927      1.0  0.81460  0.11051  0.18086  1.0000
  H   H928      1.0  0.76152  0.05415  0.21195  1.0000
  C   C768      1.0  0.87970  0.14430  0.08281  1.0000
  N   N54       1.0  0.94360  0.19290  0.10346  1.0000
  C   C769      1.0  0.96548  0.18647  0.10545  1.0000
  C   C770      1.0  0.95124  0.21350  0.09151  1.0000
  H   H929      1.0  0.71492  0.04380  0.06054  1.0000
  C   C771      1.0  0.91922  0.16898  0.09931  1.0000
  C   C772      1.0  0.91049  0.14699  0.10907  1.0000
  C   C773      1.0  0.90306  0.16700  0.08602  1.0000
  S   S207      1.0  0.79845  0.01467  0.16702  1.0000
  H   H930      1.0  0.85348  0.10567  0.09030  1.0000
  C   C774      1.0  0.64888  0.02220  0.06220  1.0000
  H   H931      1.0  0.93661  0.22080  0.09026  1.0000
  H   H932      1.0  0.59602  0.98968  0.06750  1.0000
  H   H933      1.0  0.92161  0.14714  0.11944  1.0000
  H   H934      1.0  0.83019  0.13604  0.20316  1.0000
  H   H935      1.0  0.93630  0.19059  0.12844  1.0000
  C   C775      1.0  0.93816  0.16315  0.22140  1.0000
  C   C776      1.0  0.69601  0.03765  0.06563  1.0000
  H   H936      1.0  0.89398  0.14153  0.20150  1.0000
  H   H937      1.0  0.96358  0.17467  0.11604  1.0000
  Fe  Fe106     1.0  0.75589  0.00274  0.16956  1.0000
  C   C777      1.0  0.80978  0.08223  0.22607  1.0000
  C   C778      1.0  0.66940  0.02756  0.08852  1.0000
  C   C779      1.0  0.62463  0.99135  0.99452  1.0000
  Fe  Fe107     1.0  0.97498  0.20297  0.15444  1.0000
  S   S208      1.0  0.71999  0.99236  0.11031  1.0000
  H   H938      1.0  0.95689  0.13797  0.20296  1.0000
  C   C780      1.0  0.95724  0.15571  0.19785  1.0000
  Fe  Fe108     1.0  0.74491  0.00198  0.13345  1.0000
  H   H939      1.0  0.47859  0.06897  0.99322  1.0000
  C   C781      1.0  0.74959  0.00007  0.21243  1.0000
  H   H940      1.0  0.97679  0.17234  0.20054  1.0000
  H   H941      1.0  0.78446  0.99941  0.20473  1.0000
  H   H942      1.0  0.95581  0.15302  0.18475  1.0000
  H   H943      1.0  0.58431  0.00156  0.05170  1.0000
  H   H944      1.0  0.71700  0.00057  0.22401  1.0000
  C   C782      1.0  0.96100  0.18310  0.22886  1.0000
  C   C783      1.0  0.77353  0.00006  0.21478  1.0000
  Fe  Fe109     1.0  0.95961  0.19868  0.30728  1.0000
  S   S209      1.0  0.76611  0.00005  0.33392  1.0000
  S   S210      1.0  0.92041  0.16485  0.29883  1.0000
  H   H945      1.0  0.82742  0.12549  0.31330  1.0000
  H   H946      1.0  0.82835  0.16754  0.32020  1.0000
  H   H947      1.0  0.96113  0.06756  0.31803  1.0000
  C   C784      1.0  0.81299  0.14955  0.32453  1.0000
  S   S211      1.0  0.69789  0.99605  0.32554  1.0000
  Fe  Fe110     1.0  0.79655  0.03016  0.31878  1.0000
  S   S212      1.0  0.76700  0.03273  0.30236  1.0000
  S   S213      1.0  0.82998  0.06570  0.33103  1.0000
  H   H948      1.0  0.95681  0.12655  0.33431  1.0000
  H   H949      1.0  0.95226  0.14325  0.31787  1.0000
  H   H950      1.0  0.65458  0.04903  0.47055  1.0000
  H   H951      1.0  0.55952  0.04967  0.47698  1.0000
  N   N55       1.0  0.75267  0.07765  0.34223  1.0000
  H   H952      1.0  0.54305  0.99168  0.47677  1.0000
  S   S214      1.0  0.80095  0.99963  0.30430  1.0000
  H   H953      1.0  0.71496  0.04799  0.33406  1.0000
  C   C785      1.0  0.64412  0.03165  0.47727  1.0000
  H   H954      1.0  0.88430  0.07269  0.29548  1.0000
  C   C786      1.0  0.88259  0.26047  0.47765  1.0000
  H   H955      1.0  0.55349  0.99107  0.44788  1.0000
  C   C787      1.0  0.89537  0.13777  0.30823  1.0000
  C   C788      1.0  0.87448  0.11911  0.29892  1.0000
  C   C789      1.0  0.85451  0.09685  0.30566  1.0000
  C   C790      1.0  0.85507  0.09305  0.32187  1.0000
  C   C791      1.0  0.87587  0.11179  0.33119  1.0000
  C   C792      1.0  0.89599  0.13394  0.32443  1.0000
  H   H956      1.0  0.87382  0.12180  0.28637  1.0000
  H   H957      1.0  0.83863  0.08268  0.29833  1.0000
  H   H958      1.0  0.87644  0.10913  0.34376  1.0000
  H   H959      1.0  0.91183  0.14812  0.33177  1.0000
  C   C793      1.0  0.81245  0.12585  0.32065  1.0000
  C   C794      1.0  0.63084  0.00713  0.46925  1.0000
  H   H960      1.0  0.87758  0.26458  0.46565  1.0000
  C   C795      1.0  0.74533  0.00123  0.24113  1.0000
  C   C796      1.0  0.79365  0.15005  0.33382  1.0000
  C   C797      1.0  0.73190  0.06578  0.32986  1.0000
  H   H961      1.0  0.94043  0.31406  0.48511  1.0000
  H   H962      1.0  0.73891  0.05984  0.31915  1.0000
  H   H963      1.0  0.79389  0.16853  0.33657  1.0000
  H   H964      1.0  0.78040  0.06802  0.35389  1.0000
  H   H965      1.0  0.96658  0.13890  0.29200  1.0000
  C   C798      1.0  0.77347  0.10240  0.33635  1.0000
  C   C799      1.0  0.76273  0.05887  0.34599  1.0000
  H   H966      1.0  0.60159  0.08469  0.47973  1.0000
  C   C800      1.0  0.90138  0.07196  0.30029  1.0000
  H   H967      1.0  0.92401  0.30159  0.46622  1.0000
  H   H968      1.0  0.76795  0.05122  0.33533  1.0000
  H   H969      1.0  0.92479  0.11307  0.29973  1.0000
  S   S215      1.0  0.97148  0.24161  0.30430  1.0000
  H   H970      1.0  0.75611  0.09291  0.36597  1.0000
  Fe  Fe111     1.0  0.73677  0.00012  0.31662  1.0000
  H   H971      1.0  0.71977  0.99269  0.35648  1.0000
  H   H972      1.0  0.74792  0.04114  0.35172  1.0000
  H   H973      1.0  0.72729  0.06261  0.36205  1.0000
  H   H974      1.0  0.72454  0.07956  0.32610  1.0000
  C   C801      1.0  0.77401  0.12687  0.33958  1.0000
  H   H975      1.0  0.75942  0.12857  0.34649  1.0000
  C   C802      1.0  0.94349  0.16987  0.25475  1.0000
  C   C803      1.0  0.96360  0.18620  0.24528  1.0000
  C   C804      1.0  0.94508  0.06986  0.31306  1.0000
  H   H976      1.0  0.51254  0.03262  0.47477  1.0000
  H   H977      1.0  0.86406  0.24903  0.48379  1.0000
  H   H978      1.0  0.88167  0.03027  0.30231  1.0000
  H   H979      1.0  0.97038  0.24959  0.25794  1.0000
  H   H980      1.0  0.63120  0.00588  0.45653  1.0000
  C   C805      1.0  0.74085  0.08154  0.35682  1.0000
  C   C806      1.0  0.52258  0.04097  0.48594  1.0000
  H   H981      1.0  0.72871  0.09147  0.35452  1.0000
  C   C807      1.0  0.92172  0.04694  0.31040  1.0000
  H   H982      1.0  0.79324  0.08486  0.32247  1.0000
  C   C808      1.0  0.88817  0.30279  0.48693  1.0000
  N   N56       1.0  0.97125  0.11949  0.31250  1.0000
  C   C809      1.0  0.76935  0.00140  0.24348  1.0000
  H   H983      1.0  0.92042  0.02821  0.31335  1.0000
  C   C810      1.0  0.92571  0.29635  0.47859  1.0000
  C   C811      1.0  0.79283  0.10257  0.32623  1.0000
  C   C812      1.0  0.92464  0.09496  0.30284  1.0000
  H   H984      1.0  0.93414  0.28254  0.47824  1.0000
  S   S216      1.0  0.78319  0.00284  0.26256  1.0000
  H   H985      1.0  0.59947  0.05326  0.48472  1.0000
  C   C813      1.0  0.89988  0.04801  0.30413  1.0000
  H   H986      1.0  0.94541  0.17275  0.26746  1.0000
  C   C814      1.0  0.92083  0.15003  0.24786  1.0000
  C   C815      1.0  0.94715  0.09469  0.30948  1.0000
  H   H987      1.0  0.90533  0.13742  0.25539  1.0000
  Fe  Fe112     1.0  0.77024  0.00104  0.28809  1.0000
  H   H988      1.0  0.89167  0.24730  0.47630  1.0000
  H   H989      1.0  0.73433  0.00165  0.25120  1.0000
  C   C816      1.0  0.96576  0.13668  0.32330  1.0000
  H   H990      1.0  0.82491  0.08290  0.24953  1.0000
  H   H991      1.0  0.85536  0.13029  0.24975  1.0000
  N   N57       1.0  0.90014  0.28505  0.48638  1.0000
  C   C817      1.0  0.69922  0.98655  0.35768  1.0000
  C   C818      1.0  0.54965  0.05091  0.48738  1.0000
  C   C819      1.0  0.82589  0.09433  0.23930  1.0000
  C   C820      1.0  0.84307  0.12094  0.23941  1.0000
  C   C821      1.0  0.68423  0.98644  0.34455  1.0000
  N   N58       1.0  0.82860  0.11943  0.65607  1.0000
  Fe  Fe113     1.0  0.63816  0.09805  0.55300  1.0000
  S   S217      1.0  0.66427  0.11870  0.53287  1.0000
  S   S218      1.0  0.59459  0.08922  0.55535  1.0000
  Fe  Fe114     1.0  0.67743  0.07792  0.56463  1.0000
  S   S219      1.0  0.70458  0.09636  0.54457  1.0000
  S   S220      1.0  0.68056  0.04979  0.58259  1.0000
  Fe  Fe115     1.0  0.69904  0.13193  0.54990  1.0000
  S   S221      1.0  0.73303  0.17422  0.55431  1.0000
  Fe  Fe116     1.0  0.66804  0.08173  0.52897  1.0000
  S   S222      1.0  0.66219  0.06552  0.50326  1.0000
  S   S223      1.0  0.67245  0.11352  0.57054  1.0000
  S   S224      1.0  0.64147  0.06104  0.54856  1.0000
  Fe  Fe117     1.0  0.88028  0.30209  0.54002  1.0000
  C   C822      1.0  0.80065  0.11033  0.65934  1.0000
  S   S225      1.0  0.84476  0.26329  0.53157  1.0000
  H   H992      1.0  0.85233  0.27488  0.49778  1.0000
  H   H993      1.0  0.84126  0.12874  0.68041  1.0000
  H   H994      1.0  0.97598  0.31071  0.58331  1.0000
  H   H995      1.0  0.83370  0.20050  0.64327  1.0000
  H   H996      1.0  0.88129  0.22025  0.63952  1.0000
  H   H997      1.0  0.59105  0.03813  0.51174  1.0000
  S   S226      1.0  0.93704  0.15530  0.63876  1.0000
  S   S227      1.0  0.95965  0.22309  0.65896  1.0000
  Fe  Fe118     1.0  0.81993  0.03049  0.66909  1.0000
  S   S228      1.0  0.78835  0.04077  0.67550  1.0000
  S   S229      1.0  0.86063  0.05854  0.67804  1.0000
  Fe  Fe119     1.0  0.77201  0.02608  0.65082  1.0000
  S   S230      1.0  0.76540  0.05341  0.63389  1.0000
  C   C823      1.0  0.59829  0.05884  0.51566  1.0000
  H   H998      1.0  0.78948  0.11079  0.64863  1.0000
  H   H999      1.0  0.53811  0.05073  0.60409  1.0000
  N   N59       1.0  0.59188  0.07374  0.50385  1.0000
  C   C824      1.0  0.91684  0.12791  0.64968  1.0000
  C   C825      1.0  0.91974  0.12790  0.66607  1.0000
  C   C826      1.0  0.90274  0.10618  0.67455  1.0000
  C   C827      1.0  0.88237  0.08461  0.66677  1.0000
  C   C828      1.0  0.87948  0.08453  0.65039  1.0000
  C   C829      1.0  0.89681  0.10607  0.64186  1.0000
  H   H1000     1.0  0.93500  0.14466  0.67221  1.0000
  H   H1001     1.0  0.90510  0.10634  0.68723  1.0000
  H   H1002     1.0  0.86402  0.06784  0.64428  1.0000
  H   H1003     1.0  0.89457  0.10592  0.62917  1.0000
  Fe  Fe120     1.0  0.76666  0.99921  0.68302  1.0000
  H   H1004     1.0  0.55709  0.07088  0.52607  1.0000
  C   C830      1.0  0.94689  0.29862  0.60106  1.0000
  C   C831      1.0  0.94024  0.28768  0.61604  1.0000
  C   C832      1.0  0.95704  0.28083  0.62477  1.0000
  H   H1005     1.0  0.59746  0.10310  0.52188  1.0000
  C   C833      1.0  0.52112  0.05296  0.51312  1.0000
  C   C834      1.0  0.50838  0.04213  0.49876  1.0000
  C   C835      1.0  0.75217  0.99674  0.72452  1.0000
  H   H1006     1.0  0.95183  0.27291  0.63638  1.0000
  C   C836      1.0  0.50670  0.06098  0.60359  1.0000
  C   C837      1.0  0.74106  0.05208  0.62006  1.0000
  C   C838      1.0  0.74689  0.07368  0.61049  1.0000
  C   C839      1.0  0.72859  0.07358  0.59918  1.0000
  C   C840      1.0  0.70408  0.05179  0.59726  1.0000
  C   C841      1.0  0.69816  0.03032  0.60697  1.0000
  C   C842      1.0  0.71642  0.03045  0.61831  1.0000
  H   H1007     1.0  0.73349  0.09028  0.59188  1.0000
  H   H1008     1.0  0.67929  0.01335  0.60565  1.0000
  H   H1009     1.0  0.71128  0.01391  0.62574  1.0000
  S   S231      1.0  0.92527  0.30795  0.59105  1.0000
  C   C843      1.0  0.63090  0.01110  0.50232  1.0000
  H   H1010     1.0  0.63102  0.01230  0.51505  1.0000
  C   C844      1.0  0.76422  0.19859  0.54776  1.0000
  C   C845      1.0  0.77590  0.19528  0.53416  1.0000
  C   C846      1.0  0.80027  0.21526  0.52943  1.0000
  C   C847      1.0  0.81370  0.23890  0.53822  1.0000
  C   C848      1.0  0.80220  0.24214  0.55191  1.0000
  C   C849      1.0  0.77772  0.22224  0.55657  1.0000
  H   H1011     1.0  0.76597  0.17740  0.52716  1.0000
  H   H1012     1.0  0.80872  0.21231  0.51881  1.0000
  H   H1013     1.0  0.81194  0.26012  0.55883  1.0000
  H   H1014     1.0  0.76902  0.22527  0.56707  1.0000
  C   C850      1.0  0.52477  0.10888  0.55508  1.0000
  C   C851      1.0  0.52080  0.08316  0.55638  1.0000
  C   C852      1.0  0.54226  0.07763  0.55661  1.0000
  C   C853      1.0  0.56812  0.09753  0.55528  1.0000
  C   C854      1.0  0.57200  0.12316  0.55367  1.0000
  C   C855      1.0  0.55061  0.12874  0.55371  1.0000
  H   H1015     1.0  0.50126  0.06758  0.55756  1.0000
  H   H1016     1.0  0.53878  0.05770  0.55788  1.0000
  H   H1017     1.0  0.59157  0.13880  0.55258  1.0000
  H   H1018     1.0  0.55414  0.14873  0.55272  1.0000
  N   N60       1.0  0.85678  0.22158  0.57677  1.0000
  C   C856      1.0  0.87024  0.25017  0.57432  1.0000
  C   C857      1.0  0.85191  0.20833  0.56105  1.0000
  C   C858      1.0  0.83137  0.21519  0.58389  1.0000
  C   C859      1.0  0.87187  0.21247  0.58692  1.0000
  C   C860      1.0  0.86091  0.18593  0.59124  1.0000
  C   C861      1.0  0.89783  0.22911  0.59238  1.0000
  C   C862      1.0  0.87497  0.17671  0.60050  1.0000
  C   C863      1.0  0.91175  0.21965  0.60156  1.0000
  C   C864      1.0  0.90039  0.19352  0.60558  1.0000
  H   H1019     1.0  0.87434  0.26143  0.58569  1.0000
  H   H1020     1.0  0.88893  0.25634  0.56820  1.0000
  H   H1021     1.0  0.85837  0.25648  0.56675  1.0000
  H   H1022     1.0  0.87054  0.21228  0.55542  1.0000
  H   H1023     1.0  0.84114  0.21512  0.55291  1.0000
  H   H1024     1.0  0.84000  0.18682  0.56169  1.0000
  H   H1025     1.0  0.81831  0.19385  0.58423  1.0000
  H   H1026     1.0  0.83416  0.22339  0.59614  1.0000
  H   H1027     1.0  0.82028  0.22319  0.57701  1.0000
  H   H1028     1.0  0.84146  0.17200  0.58732  1.0000
  H   H1029     1.0  0.90797  0.24951  0.58964  1.0000
  H   H1030     1.0  0.86625  0.15636  0.60363  1.0000
  H   H1031     1.0  0.93164  0.23266  0.60546  1.0000
  H   H1032     1.0  0.91141  0.18626  0.61259  1.0000
  H   H1033     1.0  0.81926  0.10340  0.63237  1.0000
  H   H1034     1.0  0.76573  0.09064  0.61176  1.0000
  H   H1035     1.0  0.92206  0.28470  0.62104  1.0000
  H   H1036     1.0  0.83093  0.09524  0.67459  1.0000
  C   C865      1.0  0.86975  0.15904  0.64896  1.0000
  C   C866      1.0  0.76103  0.02361  0.72649  1.0000
  C   C867      1.0  0.87050  0.20001  0.64274  1.0000
  H   H1037     1.0  0.57087  0.09346  0.59480  1.0000
  C   C868      1.0  0.54807  0.06274  0.51470  1.0000
  S   S232      1.0  0.91631  0.29745  0.54438  1.0000
  H   H1038     1.0  0.88080  0.14836  0.65025  1.0000
  C   C869      1.0  0.82980  0.16272  0.64912  1.0000
  C   C870      1.0  0.85147  0.31067  0.49415  1.0000
  C   C871      1.0  0.55105  0.08997  0.59668  1.0000
  C   C872      1.0  0.88346  0.18511  0.64480  1.0000
  H   H1039     1.0  0.82096  0.08163  0.64659  1.0000
  H   H1040     1.0  0.76477  0.03558  0.71625  1.0000
  H   H1041     1.0  0.90433  0.19375  0.64320  1.0000
  S   S233      1.0  0.80521  0.01801  0.64422  1.0000
  Fe  Fe121     1.0  0.96860  0.19072  0.65173  1.0000
  H   H1042     1.0  0.85015  0.10802  0.63990  1.0000
  C   C873      1.0  0.84252  0.14705  0.65144  1.0000
  C   C874      1.0  0.82989  0.10247  0.64320  1.0000
  C   C875      1.0  0.84372  0.18882  0.64485  1.0000
  C   C876      1.0  0.84108  0.11571  0.67057  1.0000
  C   C877      1.0  0.54396  0.10940  0.59353  1.0000
  H   H1043     1.0  0.80913  0.15531  0.65057  1.0000
  H   H1044     1.0  0.62680  0.08267  0.49105  1.0000
  H   H1045     1.0  0.69912  0.01321  0.56395  1.0000
  C   C878      1.0  0.60280  0.10133  0.50955  1.0000
  H   H1046     1.0  0.94756  0.20374  0.73645  1.0000
  H   H1047     1.0  0.86151  0.11975  0.66880  1.0000
  H   H1048     1.0  0.79095  0.08960  0.66293  1.0000
  C   C879      1.0  0.53250  0.06585  0.60179  1.0000
  C   C880      1.0  0.51818  0.10468  0.59514  1.0000
  C   C881      1.0  0.90430  0.27871  0.50269  1.0000
  S   S234      1.0  0.49874  0.11771  0.55602  1.0000
  H   H1049     1.0  0.51013  0.05404  0.52309  1.0000
  H   H1050     1.0  0.83245  0.30369  0.49926  1.0000
  S   S235      1.0  0.96427  0.22139  0.70549  1.0000
  H   H1051     1.0  0.88077  0.06553  0.71258  1.0000
  H   H1052     1.0  0.74267  0.04056  0.57589  1.0000
  H   H1053     1.0  0.51398  0.12034  0.59184  1.0000
  H   H1054     1.0  0.79810  0.12202  0.66905  1.0000
  H   H1055     1.0  0.88576  0.26824  0.50901  1.0000
  H   H1056     1.0  0.61967  0.06727  0.51774  1.0000
  C   C882      1.0  0.86544  0.05684  0.72103  1.0000
  H   H1057     1.0  0.58999  0.05892  0.52735  1.0000
  C   C883      1.0  0.86816  0.06824  0.73609  1.0000
  H   H1058     1.0  0.62445  0.11143  0.50961  1.0000
  C   C884      1.0  0.97050  0.30234  0.59480  1.0000
  H   H1059     1.0  0.55835  0.12793  0.58918  1.0000
  H   H1060     1.0  0.91661  0.29683  0.50970  1.0000
  H   H1061     1.0  0.49298  0.04188  0.60741  1.0000
  C   C885      1.0  0.56325  0.06235  0.50186  1.0000
  S   S236      1.0  0.79927  0.98969  0.67814  1.0000
  C   C886      1.0  0.49865  0.08016  0.60012  1.0000
  H   H1062     1.0  0.48747  0.03477  0.49757  1.0000
  H   H1063     1.0  0.76201  0.02293  0.59451  1.0000
  C   C887      1.0  0.73243  0.02001  0.57855  1.0000
  C   C888      1.0  0.82257  0.02343  0.72707  1.0000
  C   C889      1.0  0.70781  0.00460  0.57181  1.0000
  C   C890      1.0  0.74331  0.00950  0.58932  1.0000
  H   H1064     1.0  0.78106  0.99657  0.60137  1.0000
  H   H1065     1.0  0.59593  0.11257  0.50198  1.0000
  H   H1066     1.0  0.76722  0.00635  0.61758  1.0000
  H   H1067     1.0  0.84068  0.02573  0.70489  1.0000
  C   C891      1.0  0.84277  0.03442  0.71659  1.0000
  H   H1068     1.0  0.91432  0.26631  0.50300  1.0000
  C   C892      1.0  0.96594  0.22133  0.73777  1.0000
  C   C893      1.0  0.86305  0.29423  0.49318  1.0000
  C   C894      1.0  0.64450  0.03388  0.49386  1.0000
  H   H1069     1.0  0.80472  0.00630  0.72341  1.0000
  C   C895      1.0  0.76698  0.98934  0.61106  1.0000
  C   C896      1.0  0.61770  0.98656  0.49430  1.0000
  C   C897      1.0  0.60526  0.07350  0.48911  1.0000
  Fe  Fe122     1.0  0.86588  0.29151  0.92426  1.0000
  H   H1070     1.0  0.77024  0.05551  0.74314  1.0000
  S   S237      1.0  0.83265  0.24865  0.92327  1.0000
  C   C898      1.0  0.64318  0.01043  0.98492  1.0000
  H   H1071     1.0  0.89067  0.08050  0.76714  1.0000
  S   S238      1.0  0.90544  0.29280  0.92335  1.0000
  H   H1072     1.0  0.96698  0.21987  0.76321  1.0000
  Fe  Fe123     1.0  0.62111  0.08821  0.92243  1.0000
  S   S239      1.0  0.64753  0.10514  0.94406  1.0000
  S   S240      1.0  0.57685  0.07589  0.92021  1.0000
  Fe  Fe124     1.0  0.66315  0.07769  0.90554  1.0000
  S   S241      1.0  0.69139  0.09334  0.92623  1.0000
  S   S242      1.0  0.67041  0.06427  0.88130  1.0000
  Fe  Fe125     1.0  0.65623  0.07107  0.94132  1.0000
  S   S243      1.0  0.65986  0.04614  0.96114  1.0000
  Fe  Fe126     1.0  0.68067  0.12609  0.92722  1.0000
  S   S244      1.0  0.70979  0.17023  0.92862  1.0000
  S   S245      1.0  0.62893  0.05336  0.92043  1.0000
  S   S246      1.0  0.65345  0.11123  0.90580  1.0000
  H   H1073     1.0  0.55210  0.12131  0.88875  1.0000
  H   H1074     1.0  0.85353  0.16399  0.86996  1.0000
  Fe  Fe127     1.0  0.95870  0.19171  0.81053  1.0000
  S   S247      1.0  0.91534  0.16440  0.80802  1.0000
  C   C899      1.0  0.48699  0.06547  0.87231  1.0000
  Fe  Fe128     1.0  0.75671  0.00790  0.83229  1.0000
  H   H1075     1.0  0.54907  0.07833  0.88213  1.0000
  S   S248      1.0  0.74210  0.01472  0.85620  1.0000
  Fe  Fe129     1.0  0.81059  0.02243  0.81911  1.0000
  S   S249      1.0  0.85475  0.04305  0.82172  1.0000
  S   S250      1.0  0.78460  0.04138  0.81803  1.0000
  Fe  Fe130     1.0  0.76595  0.01492  0.79670  1.0000
  C   C900      1.0  0.94415  0.29461  0.81042  1.0000
  C   C901      1.0  0.89931  0.13077  0.81209  1.0000
  C   C902      1.0  0.87202  0.11754  0.81087  1.0000
  C   C903      1.0  0.85826  0.09082  0.81396  1.0000
  C   C904      1.0  0.87164  0.07694  0.81823  1.0000
  C   C905      1.0  0.89898  0.09014  0.81944  1.0000
  C   C906      1.0  0.91281  0.11701  0.81642  1.0000
  H   H1076     1.0  0.86141  0.12801  0.80750  1.0000
  H   H1077     1.0  0.83727  0.08095  0.81294  1.0000
  H   H1078     1.0  0.90951  0.07956  0.82272  1.0000
  H   H1079     1.0  0.93385  0.12699  0.81737  1.0000
  S   S251      1.0  0.78437  0.99024  0.83467  1.0000
  N   N61       1.0  0.84995  0.06904  0.76313  1.0000
  C   C907      1.0  0.69203  0.05243  0.87436  1.0000
  C   C908      1.0  0.69078  0.04523  0.85830  1.0000
  C   C909      1.0  0.70668  0.03470  0.85237  1.0000
  C   C910      1.0  0.72389  0.03092  0.86248  1.0000
  C   C911      1.0  0.72557  0.03872  0.87847  1.0000
  C   C912      1.0  0.71006  0.04974  0.88432  1.0000
  H   H1080     1.0  0.67702  0.04730  0.85042  1.0000
  H   H1081     1.0  0.70498  0.02869  0.84008  1.0000
  C   C913      1.0  0.52327  0.07840  0.96100  1.0000
  H   H1082     1.0  0.71180  0.05582  0.89655  1.0000
  H   H1083     1.0  0.88383  0.10646  0.76054  1.0000
  C   C914      1.0  0.63554  0.02226  0.97293  1.0000
  H   H1084     1.0  0.50762  0.04254  0.87159  1.0000
  H   H1085     1.0  0.57001  0.98970  0.97818  1.0000
  H   H1086     1.0  0.60275  0.02324  0.96133  1.0000
  C   C915      1.0  0.51306  0.10341  0.92201  1.0000
  C   C916      1.0  0.53963  0.12160  0.92382  1.0000
  C   C917      1.0  0.55935  0.11366  0.92347  1.0000
  C   C918      1.0  0.55286  0.08730  0.92115  1.0000
  C   C919      1.0  0.52626  0.06908  0.91944  1.0000
  C   C920      1.0  0.50653  0.07701  0.91985  1.0000
  H   H1087     1.0  0.54507  0.14211  0.92542  1.0000
  H   H1088     1.0  0.57961  0.12799  0.92482  1.0000
  H   H1089     1.0  0.52089  0.04864  0.91763  1.0000
  S   S252      1.0  0.48921  0.11502  0.92196  1.0000
  C   C921      1.0  0.94489  0.29999  0.87290  1.0000
  H   H1090     1.0  0.67464  0.03788  0.91724  1.0000
  N   N62       1.0  0.66643  0.99874  0.92292  1.0000
  H   H1091     1.0  0.83902  0.09753  0.75461  1.0000
  C   C922      1.0  0.84804  0.05722  0.74721  1.0000
  C   C923      1.0  0.50888  0.06148  0.87431  1.0000
  C   C924      1.0  0.96658  0.29837  0.80199  1.0000
  C   C925      1.0  0.51217  0.11007  0.88203  1.0000
  H   H1092     1.0  0.76516  0.23004  0.89540  1.0000
  C   C926      1.0  0.79852  0.22729  0.92557  1.0000
  C   C927      1.0  0.78934  0.20003  0.92447  1.0000
  C   C928      1.0  0.76253  0.18229  0.92571  1.0000
  C   C929      1.0  0.74426  0.19151  0.92789  1.0000
  C   C930      1.0  0.75347  0.21875  0.92908  1.0000
  C   C931      1.0  0.78031  0.23647  0.92801  1.0000
  H   H1093     1.0  0.80313  0.19257  0.92272  1.0000
  H   H1094     1.0  0.75607  0.16154  0.92502  1.0000
  H   H1095     1.0  0.73970  0.22627  0.93079  1.0000
  H   H1096     1.0  0.78684  0.25726  0.92889  1.0000
  N   N63       1.0  0.90102  0.19450  0.85494  1.0000
  C   C932      1.0  0.90484  0.21011  0.84061  1.0000
  C   C933      1.0  0.92691  0.19943  0.86137  1.0000
  C   C934      1.0  0.88676  0.16651  0.84993  1.0000
  C   C935      1.0  0.88744  0.20228  0.86694  1.0000
  C   C936      1.0  0.86344  0.18438  0.87348  1.0000
  C   C937      1.0  0.89852  0.22851  0.87269  1.0000
  C   C938      1.0  0.85162  0.19248  0.88510  1.0000
  C   C939      1.0  0.88645  0.23644  0.88418  1.0000
  C   C940      1.0  0.86308  0.21844  0.89042  1.0000
  H   H1097     1.0  0.88593  0.20786  0.83577  1.0000
  H   H1098     1.0  0.91774  0.23123  0.84293  1.0000
  H   H1099     1.0  0.92500  0.18875  0.87246  1.0000
  H   H1100     1.0  0.93985  0.22046  0.86412  1.0000
  H   H1101     1.0  0.93748  0.19319  0.85285  1.0000
  H   H1102     1.0  0.89749  0.16140  0.84086  1.0000
  H   H1103     1.0  0.88418  0.15345  0.85995  1.0000
  H   H1104     1.0  0.91683  0.24312  0.86849  1.0000
  H   H1105     1.0  0.89540  0.25667  0.88838  1.0000
  H   H1106     1.0  0.85397  0.22466  0.89950  1.0000
  H   H1107     1.0  0.80792  0.24123  0.88423  1.0000
  H   H1108     1.0  0.89703  0.24297  0.78961  1.0000
  C   C941      1.0  0.49848  0.06090  0.96678  1.0000
  C   C942      1.0  0.48790  0.08988  0.87619  1.0000
  H   H1109     1.0  0.85106  0.03631  0.77424  1.0000
  C   C943      1.0  0.53230  0.08163  0.88012  1.0000
  C   C944      1.0  0.97434  0.27579  0.86104  1.0000
  C   C945      1.0  0.97488  0.28179  0.87723  1.0000
  H   H1110     1.0  0.55428  0.04086  0.96256  1.0000
  C   C946      1.0  0.96006  0.29355  0.88317  1.0000
  H   H1111     1.0  0.93244  0.29858  0.84871  1.0000
  H   H1112     1.0  0.48636  0.06273  0.91807  1.0000
  S   S253      1.0  0.76354  0.03456  0.77416  1.0000
  H   H1113     1.0  0.63150  0.00368  0.92367  1.0000
  C   C947      1.0  0.53887  0.04637  0.96386  1.0000
  H   H1114     1.0  0.95774  0.27673  0.83842  1.0000
  C   C948      1.0  0.54309  0.07114  0.95967  1.0000
  S   S254      1.0  0.79366  0.99813  0.79719  1.0000
  C   C949      1.0  0.93769  0.26181  0.78435  1.0000
  C   C950      1.0  0.87683  0.08883  0.76786  1.0000
  C   C951      1.0  0.84100  0.04861  0.77520  1.0000
  H   H1115     1.0  0.63913  0.00700  0.89853  1.0000
  C   C952      1.0  0.53397  0.10590  0.88385  1.0000
  S   S255      1.0  0.96619  0.23352  0.80960  1.0000
  C   C953      1.0  0.49472  0.03562  0.97072  1.0000
  H   H1116     1.0  0.52779  0.09766  0.95709  1.0000
  C   C954      1.0  0.95864  0.28156  0.85083  1.0000
  H   H1117     1.0  0.51155  0.00930  0.97251  1.0000
  H   H1118     1.0  0.83339  0.09068  0.77528  1.0000
  C   C955      1.0  0.76405  0.03484  0.74175  1.0000
  H   H1119     1.0  0.80845  0.02574  0.74956  1.0000
  C   C956      1.0  0.51475  0.02864  0.96940  1.0000
  C   C957      1.0  0.83303  0.08191  0.76342  1.0000
  H   H1120     1.0  0.93529  0.24892  0.77431  1.0000
  C   C958      1.0  0.64978  0.99667  0.89503  1.0000
  H   H1121     1.0  0.91411  0.20401  0.83110  1.0000
  C   C959      1.0  0.75903  0.01948  0.75519  1.0000
  H   H1122     1.0  0.81967  0.03569  0.77428  1.0000
  C   C960      1.0  0.94429  0.29388  0.85670  1.0000
  C   C961      1.0  0.60900  0.01452  0.97055  1.0000
  H   H1123     1.0  0.56174  0.08463  0.95498  1.0000
  H   H1124     1.0  0.94518  0.30653  0.82060  1.0000
  H   H1125     1.0  0.84451  0.05702  0.78741  1.0000
  H   H1126     1.0  0.87796  0.09610  0.78025  1.0000
  H   H1127     1.0  0.81451  0.20791  0.86918  1.0000
  N   N64       1.0  0.72927  0.14292  0.87815  1.0000
  C   C962      1.0  0.72621  0.13228  0.89416  1.0000
  C   C963      1.0  0.70428  0.14208  0.87293  1.0000
  C   C964      1.0  0.73415  0.12534  0.86727  1.0000
  C   C965      1.0  0.75054  0.17010  0.87877  1.0000
  C   C966      1.0  0.74750  0.18995  0.88712  1.0000
  C   C967      1.0  0.77533  0.17732  0.87221  1.0000
  C   C968      1.0  0.76781  0.21538  0.88867  1.0000
  C   C969      1.0  0.79563  0.20280  0.87403  1.0000
  C   C970      1.0  0.79193  0.22172  0.88235  1.0000
  H   H1128     1.0  0.74481  0.13361  0.89890  1.0000
  H   H1129     1.0  0.71998  0.14302  0.90267  1.0000
  H   H1130     1.0  0.71129  0.11145  0.89422  1.0000
  H   H1131     1.0  0.69710  0.15178  0.88155  1.0000
  H   H1132     1.0  0.68833  0.12162  0.87164  1.0000
  H   H1133     1.0  0.70621  0.15156  0.86139  1.0000
  H   H1134     1.0  0.71715  0.10549  0.86634  1.0000
  H   H1135     1.0  0.73775  0.13293  0.85512  1.0000
  H   H1136     1.0  0.75077  0.12224  0.87148  1.0000
  H   H1137     1.0  0.72974  0.18579  0.89313  1.0000
  H   H1138     1.0  0.77966  0.16355  0.86586  1.0000
  H   H1139     1.0  0.86738  0.16155  0.84446  1.0000
  H   H1140     1.0  0.73882  0.03595  0.88642  1.0000
  H   H1141     1.0  0.83353  0.17858  0.89015  1.0000
  H   H1142     1.0  0.81234  0.06785  0.76059  1.0000
  H   H1143     1.0  0.64070  0.99595  0.94186  1.0000
  C   C971      1.0  0.64014  0.99192  0.92892  1.0000
  C   C972      1.0  0.91940  0.27482  0.80596  1.0000
  H   H1144     1.0  0.51470  0.12904  0.88581  1.0000
  C   C973      1.0  0.96249  0.28145  0.78875  1.0000
  H   H1145     1.0  0.70285  0.03321  0.92037  1.0000
  C   C974      1.0  0.91619  0.25840  0.79298  1.0000
  C   C975      1.0  0.68279  0.02733  0.92443  1.0000
  H   H1146     1.0  0.50086  0.10803  0.97478  1.0000
  H   H1147     1.0  0.68454  0.03451  0.93685  1.0000
  H   H1148     1.0  0.63823  0.99621  0.87072  1.0000
  H   H1149     1.0  0.90260  0.27219  0.81263  1.0000
  H   H1150     1.0  0.96082  0.29814  0.89564  1.0000
  C   C976      1.0  0.59046  0.99546  0.98014  1.0000
  H   H1151     1.0  0.49216  0.10247  0.95400  1.0000
  H   H1152     1.0  0.48335  0.13483  0.87114  1.0000
  C   C977      1.0  0.66493  0.99086  0.90608  1.0000
  S   S256      1.0  0.92677  0.31604  0.87948  1.0000
  H   H1153     1.0  0.66363  0.01613  0.98682  1.0000
  H   H1154     1.0  0.69908  0.99327  0.93116  1.0000
  H   H1155     1.0  0.88607  0.08575  0.73866  1.0000
  C   C978      1.0  0.75092  0.99275  0.75322  1.0000
  C   C979      1.0  0.64928  0.99077  0.87895  1.0000
  C   C980      1.0  0.97690  0.23043  0.75296  1.0000
  C   C981      1.0  0.48517  0.09593  0.96604  1.0000
  C   C982      1.0  0.82502  0.03470  0.74210  1.0000
  H   H1156     1.0  0.67719  0.99110  0.94604  1.0000
  H   H1157     1.0  0.86623  0.98784  0.82513  1.0000
  C   C983      1.0  0.67805  0.98625  0.93335  1.0000
  C   C984      1.0  0.55978  0.62377  0.08820  1.0000
  H   H1158     1.0  0.60628  0.62869  0.01371  1.0000
  C   C985      1.0  0.69215  0.64347  0.01056  1.0000
  C   C986      1.0  0.53197  0.57967  0.09499  1.0000
  H   H1159     1.0  0.51732  0.56608  0.10314  1.0000
  Fe  Fe131     1.0  0.53497  0.63727  0.05062  1.0000
  C   C987      1.0  0.60957  0.63019  0.00117  1.0000
  C   C988      1.0  0.47867  0.53370  0.01467  1.0000
  C   C989      1.0  0.97493  0.34920  0.99042  1.0000
  H   H1160     1.0  0.56847  0.64489  0.09137  1.0000
  H   H1161     1.0  0.95675  0.39302  0.99829  1.0000
  C   C990      1.0  0.51811  0.61396  0.09921  1.0000
  H   H1162     1.0  0.95053  0.59113  0.00566  1.0000
  S   S257      1.0  0.50476  0.59423  0.05501  1.0000
  C   C991      1.0  0.69655  0.63243  0.99691  1.0000
  C   C992      1.0  0.71888  0.62852  0.99552  1.0000
  C   C993      1.0  0.49214  0.59561  0.09471  1.0000
  H   H1163     1.0  0.62442  0.60213  0.00058  1.0000
  C   C994      1.0  0.52259  0.63965  0.10331  1.0000
  H   H1164     1.0  0.48680  0.57580  0.09099  1.0000
  H   H1165     1.0  0.49484  0.52917  0.01486  1.0000
  C   C995      1.0  0.73655  0.63632  0.00873  1.0000
  C   C996      1.0  0.60364  0.64719  0.99246  1.0000
  H   H1166     1.0  0.57641  0.61916  0.08766  1.0000
  H   H1167     1.0  0.56143  0.63356  0.11898  1.0000
  N   N65       1.0  0.53996  0.60735  0.09946  1.0000
  H   H1168     1.0  0.94959  0.64605  0.04039  1.0000
  H   H1169     1.0  0.55106  0.62092  0.07612  1.0000
  H   H1170     1.0  0.56809  0.60676  0.11625  1.0000
  C   C997      1.0  0.55223  0.61249  0.11549  1.0000
  H   H1171     1.0  0.54880  0.57535  0.09529  1.0000
  H   H1172     1.0  0.50310  0.57464  0.01977  1.0000
  H   H1173     1.0  0.53763  0.60157  0.12447  1.0000
  H   H1174     1.0  0.52368  0.57497  0.08270  1.0000
  S   S258      1.0  0.57519  0.64141  0.04657  1.0000
  C   C998      1.0  0.96668  0.60593  0.99952  1.0000
  H   H1175     1.0  0.67485  0.64617  0.01125  1.0000
  H   H1176     1.0  0.97108  0.65255  0.02413  1.0000
  H   H1177     1.0  0.91448  0.38451  0.99089  1.0000
  C   C999      1.0  0.61990  0.61512  0.99367  1.0000
  H   H1178     1.0  0.95929  0.33371  0.99649  1.0000
  H   H1179     1.0  0.48505  0.42382  0.99225  1.0000
  H   H1180     1.0  0.74838  0.60225  0.99048  1.0000
  C   C1000     1.0  0.96943  0.41052  0.99229  1.0000
  C   C1001     1.0  0.48342  0.55936  0.01733  1.0000
  H   H1181     1.0  0.75402  0.63408  0.00886  1.0000
  C   C1002     1.0  0.70983  0.65094  0.02328  1.0000
  C   C1003     1.0  0.50245  0.64655  0.10280  1.0000
  C   C1004     1.0  0.73197  0.64738  0.02237  1.0000
  H   H1182     1.0  0.69990  0.57758  0.98885  1.0000
  H   H1183     1.0  0.56982  0.62006  0.45562  1.0000
  Fe  Fe132     1.0  0.54261  0.64537  0.42445  1.0000
  C   C1005     1.0  0.60885  0.64267  0.48566  1.0000
  H   H1184     1.0  0.50009  0.57356  0.45308  1.0000
  H   H1185     1.0  0.59133  0.59326  0.45480  1.0000
  S   S259      1.0  0.50099  0.61123  0.42890  1.0000
  H   H1186     1.0  0.52868  0.57922  0.43292  1.0000
  H   H1187     1.0  0.49271  0.57106  0.40394  1.0000
  H   H1188     1.0  0.53575  0.55334  0.43870  1.0000
  C   C1006     1.0  0.88933  0.34531  0.48287  1.0000
  N   N66       1.0  0.53957  0.58041  0.45754  1.0000
  H   H1189     1.0  0.61822  0.58161  0.47188  1.0000
  C   C1007     1.0  0.54149  0.57439  0.44067  1.0000
  C   C1008     1.0  0.64608  0.63754  0.47779  1.0000
  C   C1009     1.0  0.51148  0.56760  0.46128  1.0000
  C   C1010     1.0  0.54953  0.60892  0.45966  1.0000
  C   C1011     1.0  0.62640  0.64453  0.47401  1.0000
  S   S260      1.0  0.57773  0.64011  0.41841  1.0000
  H   H1190     1.0  0.94819  0.65258  0.42317  1.0000
  H   H1191     1.0  0.96660  0.59291  0.46759  1.0000
  H   H1192     1.0  0.56141  0.58594  0.43617  1.0000
  C   C1012     1.0  0.96239  0.64710  0.41771  1.0000
  H   H1193     1.0  0.54951  0.61455  0.47225  1.0000
  C   C1013     1.0  0.55541  0.57226  0.46767  1.0000
  H   H1194     1.0  0.89967  0.36530  0.47911  1.0000
  H   H1195     1.0  0.59390  0.64837  0.48309  1.0000
  H   H1196     1.0  0.50282  0.54598  0.46016  1.0000
  H   H1197     1.0  0.96207  0.63054  0.42439  1.0000
  C   C1014     1.0  0.54561  0.55737  0.48141  1.0000
  C   C1015     1.0  0.58207  0.58076  0.46455  1.0000
  H   H1198     1.0  0.53749  0.61583  0.45283  1.0000
  C   C1016     1.0  0.59780  0.57448  0.47440  1.0000
  H   H1199     1.0  0.65985  0.63899  0.46893  1.0000
  H   H1200     1.0  0.50816  0.57335  0.47326  1.0000
  H   H1201     1.0  0.48701  0.43833  0.48307  1.0000
  C   C1017     1.0  0.90113  0.32901  0.48188  1.0000
  H   H1202     1.0  0.92058  0.33762  0.47737  1.0000
  H   H1203     1.0  0.95501  0.63939  0.40557  1.0000
  H   H1204     1.0  0.52577  0.55043  0.48494  1.0000
  C   C1018     1.0  0.58775  0.56021  0.48786  1.0000
  Fe  Fe133     1.0  0.93875  0.33512  0.53151  1.0000
  Fe  Fe134     1.0  0.64227  0.54478  0.55192  1.0000
  S   S261      1.0  0.66371  0.56447  0.52997  1.0000
  S   S262      1.0  0.61368  0.50028  0.55228  1.0000
  Fe  Fe135     1.0  0.67040  0.59683  0.57174  1.0000
  S   S263      1.0  0.69215  0.61930  0.55103  1.0000
  S   S264      1.0  0.67322  0.61370  0.59684  1.0000
  Fe  Fe136     1.0  0.65464  0.59730  0.53675  1.0000
  S   S265      1.0  0.63196  0.61551  0.52381  1.0000
  Fe  Fe137     1.0  0.70001  0.58492  0.54593  1.0000
  S   S266      1.0  0.74336  0.59760  0.54056  1.0000
  S   S267      1.0  0.63217  0.57683  0.55808  1.0000
  S   S268      1.0  0.67922  0.56317  0.56734  1.0000
  H   H1205     1.0  0.59720  0.63240  0.50964  1.0000
  S   S269      1.0  0.94812  0.35959  0.55400  1.0000
  H   H1206     1.0  0.50152  0.45607  0.50835  1.0000
  Fe  Fe138     1.0  0.91095  0.36196  0.54858  1.0000
  S   S270      1.0  0.91108  0.40193  0.55296  1.0000
  S   S271      1.0  0.90227  0.33839  0.52555  1.0000
  Fe  Fe139     1.0  0.87862  0.57650  0.54211  1.0000
  S   S272      1.0  0.89969  0.57513  0.56438  1.0000
  S   S273      1.0  0.83480  0.56352  0.54589  1.0000
  Fe  Fe140     1.0  0.92870  0.59060  0.52258  1.0000
  S   S274      1.0  0.95185  0.58996  0.54401  1.0000
  S   S275      1.0  0.94482  0.59442  0.49753  1.0000
  Fe  Fe141     1.0  0.91596  0.55276  0.55001  1.0000
  S   S276      1.0  0.91394  0.51496  0.56047  1.0000
  Fe  Fe142     1.0  0.93332  0.61199  0.55639  1.0000
  C   C1019     1.0  0.97404  0.61727  0.48848  1.0000
  S   S277      1.0  0.89340  0.55251  0.52816  1.0000
  S   S278      1.0  0.91170  0.61432  0.53453  1.0000
  H   H1207     1.0  0.60367  0.53086  0.57740  1.0000
  C   C1020     1.0  0.64553  0.64566  0.56568  1.0000
  C   C1021     1.0  0.84475  0.43131  0.56014  1.0000
  C   C1022     1.0  0.91208  0.43361  0.55418  1.0000
  C   C1023     1.0  0.91565  0.44926  0.54092  1.0000
  C   C1024     1.0  0.91617  0.47412  0.54241  1.0000
  C   C1025     1.0  0.91331  0.48375  0.55722  1.0000
  C   C1026     1.0  0.90972  0.46796  0.57031  1.0000
  C   C1027     1.0  0.90896  0.44327  0.56880  1.0000
  H   H1208     1.0  0.91806  0.44224  0.52949  1.0000
  H   H1209     1.0  0.91889  0.48583  0.53216  1.0000
  H   H1210     1.0  0.90739  0.47490  0.58179  1.0000
  H   H1211     1.0  0.90585  0.43158  0.57909  1.0000
  H   H1212     1.0  0.87108  0.61664  0.59239  1.0000
  C   C1028     1.0  0.76270  0.64924  0.59264  1.0000
  H   H1213     1.0  0.91318  0.37761  0.58525  1.0000
  C   C1029     1.0  0.96551  0.39296  0.62764  1.0000
  H   H1214     1.0  0.51765  0.46696  0.60105  1.0000
  H   H1215     1.0  0.64992  0.53617  0.59886  1.0000
  C   C1030     1.0  0.69299  0.64642  0.60413  1.0000
  C   C1031     1.0  0.76845  0.58764  0.54237  1.0000
  C   C1032     1.0  0.76414  0.56371  0.54858  1.0000
  C   C1033     1.0  0.78460  0.55679  0.54953  1.0000
  C   C1034     1.0  0.80979  0.57359  0.54435  1.0000
  C   C1035     1.0  0.81417  0.59760  0.53825  1.0000
  C   C1036     1.0  0.79371  0.60452  0.53731  1.0000
  H   H1216     1.0  0.74494  0.55039  0.55250  1.0000
  H   H1217     1.0  0.78078  0.53814  0.55425  1.0000
  H   H1218     1.0  0.83323  0.61074  0.53408  1.0000
  H   H1219     1.0  0.79739  0.62302  0.53241  1.0000
  C   C1037     1.0  0.63039  0.62642  0.50446  1.0000
  C   C1038     1.0  0.58440  0.47023  0.59193  1.0000
  C   C1039     1.0  0.86456  0.33615  0.48896  1.0000
  H   H1220     1.0  0.55746  0.50789  0.60574  1.0000
  C   C1040     1.0  0.52583  0.43853  0.55301  1.0000
  C   C1041     1.0  0.54533  0.43124  0.55009  1.0000
  C   C1042     1.0  0.57184  0.45038  0.54969  1.0000
  C   C1043     1.0  0.57947  0.47722  0.55199  1.0000
  C   C1044     1.0  0.55989  0.48454  0.55458  1.0000
  C   C1045     1.0  0.53342  0.46540  0.55514  1.0000
  H   H1221     1.0  0.54010  0.41082  0.54840  1.0000
  H   H1222     1.0  0.58660  0.44426  0.54766  1.0000
  H   H1223     1.0  0.56515  0.50494  0.55641  1.0000
  H   H1224     1.0  0.51871  0.47146  0.55749  1.0000
  N   N67       1.0  0.82741  0.48493  0.54885  1.0000
  C   C1046     1.0  0.82439  0.49518  0.53342  1.0000
  C   C1047     1.0  0.80213  0.47516  0.55680  1.0000
  C   C1048     1.0  0.84741  0.50705  0.55838  1.0000
  C   C1049     1.0  0.83521  0.46394  0.54746  1.0000
  H   H1225     1.0  0.97566  0.53374  0.50130  1.0000
  C   C1050     1.0  0.83755  0.45124  0.56111  1.0000
  H   H1226     1.0  0.55413  0.54082  0.50197  1.0000
  H   H1227     1.0  0.85622  0.40851  0.54497  1.0000
  H   H1228     1.0  0.84061  0.63455  0.58552  1.0000
  H   H1229     1.0  0.80942  0.47956  0.52566  1.0000
  H   H1230     1.0  0.81819  0.51068  0.53485  1.0000
  H   H1231     1.0  0.84310  0.50442  0.52715  1.0000
  H   H1232     1.0  0.78686  0.45756  0.55046  1.0000
  H   H1233     1.0  0.79518  0.49020  0.55729  1.0000
  H   H1234     1.0  0.80335  0.46991  0.56920  1.0000
  H   H1235     1.0  0.86661  0.51497  0.55272  1.0000
  H   H1236     1.0  0.84234  0.52331  0.55978  1.0000
  H   H1237     1.0  0.85028  0.50143  0.57042  1.0000
  C   C1051     1.0  0.88216  0.62583  0.58171  1.0000
  H   H1238     1.0  0.83433  0.45699  0.57271  1.0000
  H   H1239     1.0  0.65955  0.64195  0.57298  1.0000
  H   H1240     1.0  0.92789  0.41868  0.59914  1.0000
  Fe  Fe143     1.0  0.92298  0.32210  0.56625  1.0000
  H   H1241     1.0  0.63915  0.63130  0.55563  1.0000
  C   C1052     1.0  0.60647  0.53789  0.58994  1.0000
  H   H1242     1.0  0.63485  0.50265  0.60429  1.0000
  H   H1243     1.0  0.62865  0.54642  0.61919  1.0000
  H   H1244     1.0  0.95443  0.41669  0.57873  1.0000
  H   H1245     1.0  0.51955  0.42796  0.59032  1.0000
  H   H1246     1.0  0.87419  0.61056  0.57209  1.0000
  H   H1247     1.0  0.93066  0.35921  0.58644  1.0000
  C   C1053     1.0  0.96241  0.38659  0.61119  1.0000
  N   N68       1.0  0.94790  0.39520  0.60023  1.0000
  C   C1054     1.0  0.53640  0.46788  0.59877  1.0000
  S   S279      1.0  0.95505  0.65220  0.56893  1.0000
  S   S280      1.0  0.49194  0.41518  0.55449  1.0000
  H   H1248     1.0  0.60207  0.46992  0.58841  1.0000
  C   C1055     1.0  0.55933  0.49121  0.60139  1.0000
  H   H1249     1.0  0.61057  0.51316  0.62526  1.0000
  C   C1056     1.0  0.48512  0.45133  0.51641  1.0000
  H   H1250     1.0  0.73520  0.63346  0.61105  1.0000
  C   C1057     1.0  0.56134  0.44695  0.58949  1.0000
  C   C1058     1.0  0.93827  0.41229  0.60782  1.0000
  H   H1251     1.0  0.68118  0.63690  0.62812  1.0000
  H   H1252     1.0  0.91209  0.35982  0.60277  1.0000
  H   H1253     1.0  0.63267  0.51154  0.58418  1.0000
  C   C1059     1.0  0.92497  0.37204  0.59340  1.0000
  H   H1254     1.0  0.95459  0.43036  0.61305  1.0000
  H   H1255     1.0  0.94592  0.62932  0.60042  1.0000
  C   C1060     1.0  0.53741  0.44580  0.59282  1.0000
  S   S281      1.0  0.96888  0.33508  0.51400  1.0000
  H   H1256     1.0  0.62781  0.64091  0.57256  1.0000
  C   C1061     1.0  0.64803  0.62845  0.49286  1.0000
  C   C1062     1.0  0.84841  0.43590  0.53201  1.0000
  N   N69       1.0  0.60798  0.51835  0.60039  1.0000
  H   H1257     1.0  0.62454  0.55695  0.59091  1.0000
  C   C1063     1.0  0.63233  0.51696  0.59680  1.0000
  C   C1064     1.0  0.58409  0.49313  0.59803  1.0000
  H   H1258     1.0  0.85564  0.34894  0.48991  1.0000
  H   H1259     1.0  0.85333  0.43030  0.52081  1.0000
  H   H1260     1.0  0.59420  0.53200  0.62028  1.0000
  H   H1261     1.0  0.84304  0.62518  0.56559  1.0000
  C   C1065     1.0  0.84113  0.45583  0.53282  1.0000
  C   C1066     1.0  0.61038  0.52782  0.61699  1.0000
  H   H1262     1.0  0.59004  0.54196  0.59274  1.0000
  H   H1263     1.0  0.84068  0.46477  0.52184  1.0000
  H   H1264     1.0  0.56193  0.42993  0.58437  1.0000
  C   C1067     1.0  0.85005  0.42357  0.54562  1.0000
  S   S282      1.0  0.88622  0.32587  0.56239  1.0000
  H   H1265     1.0  0.49208  0.44858  0.52822  1.0000
  H   H1266     1.0  0.48165  0.46868  0.51736  1.0000
  H   H1267     1.0  0.75194  0.63274  0.58459  1.0000
  H   H1268     1.0  0.92410  0.40192  0.61712  1.0000
  H   H1269     1.0  0.84696  0.42225  0.57075  1.0000
  H   H1270     1.0  0.60036  0.55632  0.49578  1.0000
  H   H1271     1.0  0.90288  0.63036  0.58367  1.0000
  C   C1068     1.0  0.69292  0.65231  0.62031  1.0000
  H   H1272     1.0  0.95767  0.40469  0.63309  1.0000
  C   C1069     1.0  0.61089  0.63372  0.50076  1.0000
  H   H1273     1.0  0.66320  0.62305  0.49549  1.0000
  C   C1070     1.0  0.75334  0.64967  0.60758  1.0000
  H   H1274     1.0  0.95529  0.65015  0.62727  1.0000
  H   H1275     1.0  0.48359  0.40957  0.50174  1.0000
  C   C1071     1.0  0.95332  0.65020  0.60181  1.0000
  C   C1072     1.0  0.56170  0.55160  0.49133  1.0000
  C   C1073     1.0  0.85182  0.64146  0.57456  1.0000
  H   H1276     1.0  0.88794  0.64343  0.55347  1.0000
  C   C1074     1.0  0.96485  0.40997  0.58723  1.0000
  C   C1075     1.0  0.97351  0.37079  0.60557  1.0000
  H   H1277     1.0  0.90121  0.64992  0.60787  1.0000
  H   H1278     1.0  0.97157  0.39807  0.58013  1.0000
  H   H1279     1.0  0.97140  0.36447  0.59332  1.0000
  H   H1280     1.0  0.97756  0.38615  0.50203  1.0000
  N   N70       1.0  0.87984  0.64954  0.57754  1.0000
  H   H1281     1.0  0.60788  0.54599  0.84883  1.0000
  Fe  Fe144     1.0  0.63114  0.53716  0.92319  1.0000
  S   S283      1.0  0.65529  0.55177  0.94575  1.0000
  S   S284      1.0  0.60161  0.49350  0.91862  1.0000
  Fe  Fe145     1.0  0.65934  0.59180  0.90883  1.0000
  S   S285      1.0  0.68398  0.60982  0.93079  1.0000
  S   S286      1.0  0.65942  0.61121  0.88529  1.0000
  Fe  Fe146     1.0  0.69040  0.57407  0.93094  1.0000
  S   S287      1.0  0.73274  0.58405  0.93831  1.0000
  Fe  Fe147     1.0  0.64751  0.58653  0.94432  1.0000
  S   S288      1.0  0.63782  0.59727  0.96871  1.0000
  S   S289      1.0  0.66713  0.55701  0.90834  1.0000
  S   S290      1.0  0.62194  0.57091  0.92234  1.0000
  H   H1282     1.0  0.61188  0.52386  0.88948  1.0000
  S   S291      1.0  0.93217  0.35694  0.92112  1.0000
  C   C1076     1.0  0.93934  0.39357  0.95439  1.0000
  Fe  Fe148     1.0  0.89170  0.35313  0.92317  1.0000
  S   S292      1.0  0.88325  0.38780  0.92970  1.0000
  C   C1077     1.0  0.97166  0.35236  0.97423  1.0000
  Fe  Fe149     1.0  0.86384  0.56203  0.92964  1.0000
  S   S293      1.0  0.88266  0.55863  0.90735  1.0000
  S   S294      1.0  0.81923  0.54552  0.92628  1.0000
  Fe  Fe150     1.0  0.91699  0.58325  0.94808  1.0000
  S   S295      1.0  0.93838  0.58154  0.92641  1.0000
  S   S296      1.0  0.88050  0.32404  0.94280  1.0000
  Fe  Fe151     1.0  0.91521  0.59865  0.91359  1.0000
  S   S297      1.0  0.92216  0.63036  0.89524  1.0000
  Fe  Fe152     1.0  0.90379  0.54154  0.92189  1.0000
  S   S298      1.0  0.90690  0.50511  0.91251  1.0000
  S   S299      1.0  0.89561  0.60249  0.93567  1.0000
  S   S300      1.0  0.88332  0.54282  0.94381  1.0000
  C   C1078     1.0  0.51517  0.41786  0.95892  1.0000
  H   H1283     1.0  0.92080  0.42731  0.97982  1.0000
  H   H1284     1.0  0.68219  0.62689  0.98742  1.0000
  C   C1079     1.0  0.58774  0.55271  0.88507  1.0000
  C   C1080     1.0  0.55997  0.45129  0.95748  1.0000
  C   C1081     1.0  0.89173  0.42105  0.92516  1.0000
  C   C1082     1.0  0.90490  0.43304  0.91156  1.0000
  C   C1083     1.0  0.90959  0.45873  0.90807  1.0000
  C   C1084     1.0  0.90164  0.47318  0.91818  1.0000
  C   C1085     1.0  0.88910  0.46143  0.93201  1.0000
  C   C1086     1.0  0.88402  0.43560  0.93536  1.0000
  H   H1285     1.0  0.91096  0.42232  0.90351  1.0000
  H   H1286     1.0  0.91932  0.46742  0.89734  1.0000
  H   H1287     1.0  0.88296  0.47208  0.94004  1.0000
  H   H1288     1.0  0.87368  0.42667  0.94588  1.0000
  H   H1289     1.0  0.66386  0.63262  0.85437  1.0000
  C   C1087     1.0  0.84727  0.60401  0.90331  1.0000
  H   H1290     1.0  0.86007  0.63545  0.86870  1.0000
  H   H1291     1.0  0.60468  0.57215  0.88779  1.0000
  H   H1292     1.0  0.52573  0.40561  0.91437  1.0000
  C   C1088     1.0  0.52516  0.46441  0.86346  1.0000
  C   C1089     1.0  0.53783  0.47037  0.87817  1.0000
  C   C1090     1.0  0.85619  0.61951  0.87701  1.0000
  H   H1293     1.0  0.62163  0.63505  0.95609  1.0000
  Fe  Fe153     1.0  0.92064  0.32752  0.94041  1.0000
  H   H1294     1.0  0.57091  0.55598  0.88158  1.0000
  C   C1091     1.0  0.75645  0.57294  0.93470  1.0000
  C   C1092     1.0  0.75076  0.55027  0.92577  1.0000
  C   C1093     1.0  0.77016  0.54224  0.92344  1.0000
  C   C1094     1.0  0.79562  0.55677  0.92985  1.0000
  C   C1095     1.0  0.80137  0.57958  0.93868  1.0000
  C   C1096     1.0  0.78193  0.58752  0.94108  1.0000
  H   H1295     1.0  0.73137  0.53877  0.92075  1.0000
  H   H1296     1.0  0.76534  0.52460  0.91658  1.0000
  H   H1297     1.0  0.82074  0.59101  0.94376  1.0000
  H   H1298     1.0  0.78673  0.60516  0.94795  1.0000
  C   C1097     1.0  0.62430  0.61660  0.97734  1.0000
  N   N71       1.0  0.47981  0.42944  0.96776  1.0000
  H   H1299     1.0  0.72756  0.62484  0.95606  1.0000
  C   C1098     1.0  0.92265  0.41902  0.96828  1.0000
  H   H1300     1.0  0.56307  0.51936  0.84433  1.0000
  C   C1099     1.0  0.52695  0.46273  0.96619  1.0000
  C   C1100     1.0  0.82291  0.62517  0.89098  1.0000
  C   C1101     1.0  0.51315  0.43432  0.91998  1.0000
  C   C1102     1.0  0.52187  0.46124  0.92292  1.0000
  C   C1103     1.0  0.54868  0.47947  0.92292  1.0000
  C   C1104     1.0  0.56739  0.47123  0.91965  1.0000
  C   C1105     1.0  0.55866  0.44438  0.91653  1.0000
  C   C1106     1.0  0.53187  0.42607  0.91682  1.0000
  H   H1301     1.0  0.50776  0.46810  0.92524  1.0000
  H   H1302     1.0  0.55484  0.49995  0.92529  1.0000
  H   H1303     1.0  0.57276  0.43763  0.91386  1.0000
  H   H1304     1.0  0.86646  0.60399  0.90421  1.0000
  H   H1305     1.0  0.83332  0.38459  0.90985  1.0000
  N   N72       1.0  0.93600  0.40265  0.97020  1.0000
  C   C1107     1.0  0.54121  0.42531  0.95568  1.0000
  C   C1108     1.0  0.53463  0.48237  0.85146  1.0000
  H   H1306     1.0  0.92024  0.38067  0.94853  1.0000
  H   H1307     1.0  0.79925  0.42674  0.93322  1.0000
  H   H1308     1.0  0.79984  0.59296  0.90650  1.0000
  H   H1309     1.0  0.75011  0.60616  0.96973  1.0000
  H   H1310     1.0  0.48952  0.45589  0.98796  1.0000
  H   H1311     1.0  0.92677  0.36536  0.98015  1.0000
  S   S301      1.0  0.87413  0.32012  0.90473  1.0000
  H   H1312     1.0  0.78300  0.45424  0.90398  1.0000
  H   H1313     1.0  0.70399  0.57990  0.96786  1.0000
  H   H1314     1.0  0.61940  0.52130  0.86934  1.0000
  C   C1109     1.0  0.77690  0.60947  0.89731  1.0000
  H   H1315     1.0  0.85532  0.42075  0.89168  1.0000
  H   H1316     1.0  0.85062  0.46007  0.89391  1.0000
  H   H1317     1.0  0.78993  0.48251  0.91630  1.0000
  C   C1110     1.0  0.57025  0.51303  0.86902  1.0000
  C   C1111     1.0  0.96343  0.60960  0.98341  1.0000
  H   H1318     1.0  0.90272  0.40755  0.96290  1.0000
  C   C1112     1.0  0.96188  0.41806  0.97802  1.0000
  H   H1319     1.0  0.52247  0.47797  0.97020  1.0000
  H   H1320     1.0  0.89927  0.36792  0.97267  1.0000
  C   C1113     1.0  0.55999  0.49428  0.88093  1.0000
  H   H1321     1.0  0.80528  0.38779  0.93044  1.0000
  H   H1322     1.0  0.50798  0.44581  0.86138  1.0000
  N   N73       1.0  0.82055  0.47115  0.91580  1.0000
  C   C1114     1.0  0.83196  0.48343  0.93138  1.0000
  C   C1115     1.0  0.83363  0.49098  0.90368  1.0000
  C   C1116     1.0  0.79258  0.46462  0.91526  1.0000
  C   C1117     1.0  0.82355  0.44723  0.91356  1.0000
  C   C1118     1.0  0.81112  0.42596  0.92377  1.0000
  C   C1119     1.0  0.83947  0.44461  0.90181  1.0000
  C   C1120     1.0  0.81442  0.40355  0.92230  1.0000
  C   C1121     1.0  0.84245  0.42202  0.90038  1.0000
  C   C1122     1.0  0.83007  0.40160  0.91063  1.0000
  H   H1323     1.0  0.85299  0.48856  0.93219  1.0000
  H   H1324     1.0  0.83029  0.50166  0.93351  1.0000
  H   H1325     1.0  0.82226  0.47047  0.94129  1.0000
  H   H1326     1.0  0.85512  0.49830  0.90415  1.0000
  H   H1327     1.0  0.83055  0.50847  0.90553  1.0000
  H   H1328     1.0  0.82610  0.48304  0.89160  1.0000
  H   H1329     1.0  0.78170  0.45212  0.92509  1.0000
  H   H1330     1.0  0.50161  0.39754  0.95678  1.0000
  C   C1123     1.0  0.60260  0.55545  0.85867  1.0000
  H   H1331     1.0  0.54674  0.41094  0.95122  1.0000
  C   C1124     1.0  0.55287  0.46995  0.96275  1.0000
  C   C1125     1.0  0.61831  0.63354  0.96862  1.0000
  S   S302      1.0  0.94159  0.33059  0.96434  1.0000
  H   H1332     1.0  0.56753  0.49024  0.96385  1.0000
  H   H1333     1.0  0.58764  0.56100  0.85440  1.0000
  H   H1334     1.0  0.97113  0.52337  0.97560  1.0000
  H   H1335     1.0  0.63387  0.55235  0.87975  1.0000
  H   H1336     1.0  0.93298  0.43544  0.96024  1.0000
  S   S303      1.0  0.93245  0.59035  0.97387  1.0000
  H   H1337     1.0  0.53049  0.45637  0.88751  1.0000
  N   N74       1.0  0.59360  0.53830  0.87247  1.0000
  H   H1338     1.0  0.75988  0.59626  0.90364  1.0000
  H   H1339     1.0  0.52467  0.47760  0.84002  1.0000
  H   H1340     1.0  0.94967  0.40982  0.94626  1.0000
  C   C1126     1.0  0.68493  0.63917  0.87657  1.0000
  H   H1341     1.0  0.56911  0.49803  0.89253  1.0000
  C   C1127     1.0  0.50720  0.43647  0.96424  1.0000
  H   H1342     1.0  0.95042  0.38224  0.95519  1.0000
  H   H1343     1.0  0.62038  0.57414  0.86170  1.0000
  C   C1128     1.0  0.55683  0.50639  0.85412  1.0000
  H   H1344     1.0  0.58290  0.54206  0.89631  1.0000
  C   C1129     1.0  0.61554  0.53370  0.87798  1.0000
  C   C1130     1.0  0.91845  0.37920  0.97896  1.0000
  H   H1345     1.0  0.70371  0.63162  0.96490  1.0000
  N   N75       1.0  0.84808  0.62450  0.89266  1.0000
  H   H1346     1.0  0.68208  0.58944  0.97692  1.0000
  C   C1131     1.0  0.74769  0.61496  0.98098  1.0000
  C   C1132     1.0  0.79725  0.64515  0.87965  1.0000
  H   H1347     1.0  0.57996  0.45709  0.95437  1.0000
  C   C1133     1.0  0.80019  0.60788  0.89893  1.0000
  H   H1348     1.0  0.84099  0.60100  0.87147  1.0000
  C   C1134     1.0  0.60814  0.64875  0.97614  1.0000
  H   H1349     1.0  0.48181  0.46630  0.96096  1.0000
  H   H1350     1.0  0.84240  0.60707  0.91554  1.0000
  Fe  Fe154     1.0  0.91396  0.32176  0.90422  1.0000
  N   N76       1.0  0.72286  0.61665  0.98088  1.0000
  C   C1135     1.0  0.68146  0.64533  0.86098  1.0000
  C   C1136     1.0  0.72296  0.63226  0.96715  1.0000
  H   H1351     1.0  0.83297  0.58409  0.89900  1.0000
  H   H1352     1.0  0.75732  0.62919  0.88650  1.0000
  C   C1137     1.0  0.77543  0.62804  0.88770  1.0000
  H   H1353     1.0  0.87456  0.61780  0.87792  1.0000
  H   H1354     1.0  0.76483  0.63460  0.98231  1.0000
  C   C1138     1.0  0.70131  0.58977  0.97856  1.0000
  H   H1355     1.0  0.97657  0.44769  0.96008  1.0000
  C   C1139     1.0  0.86827  0.65002  0.89915  1.0000
  H   H1356     1.0  0.88719  0.64988  0.90139  1.0000
  C   C1140     1.0  0.82068  0.64381  0.88124  1.0000
  H   H1357     1.0  0.71098  0.65159  0.89686  1.0000
  S   S304      1.0  0.47872  0.41235  0.91980  1.0000
  H   H1358     1.0  0.97636  0.64583  0.88604  1.0000
  H   H1359     1.0  0.72131  0.81950  0.13966  1.0000
  H   H1360     1.0  0.75348  0.90631  0.09526  1.0000
  H   H1361     1.0  0.84072  0.76476  0.18923  1.0000
  S   S305      1.0  0.93303  0.79963  0.17248  1.0000
  H   H1362     1.0  0.58829  0.71434  0.00943  1.0000
  H   H1363     1.0  0.55802  0.81906  0.99980  1.0000
  S   S306      1.0  0.74203  0.97117  0.15036  1.0000
  S   S307      1.0  0.80032  0.95835  0.13850  1.0000
  H   H1364     1.0  0.73431  0.85811  0.09319  1.0000
  Fe  Fe155     1.0  0.79174  0.78446  0.15147  1.0000
  S   S308      1.0  0.75360  0.74842  0.15482  1.0000
  S   S309      1.0  0.82575  0.78211  0.13970  1.0000
  Fe  Fe156     1.0  0.77256  0.81984  0.16741  1.0000
  S   S310      1.0  0.73365  0.78647  0.17251  1.0000
  S   S311      1.0  0.78235  0.85965  0.17789  1.0000
  Fe  Fe157     1.0  0.75628  0.76536  0.17942  1.0000
  S   S312      1.0  0.75556  0.74325  0.20142  1.0000
  Fe  Fe158     1.0  0.73394  0.77263  0.14740  1.0000
  S   S313      1.0  0.69958  0.76722  0.13090  1.0000
  S   S314      1.0  0.79520  0.79978  0.17619  1.0000
  S   S315      1.0  0.77216  0.80758  0.14216  1.0000
  H   H1365     1.0  0.88627  0.85638  0.16010  1.0000
  S   S316      1.0  0.59699  0.70437  0.04255  1.0000
  S   S317      1.0  0.95808  0.74711  0.16045  1.0000
  Fe  Fe159     1.0  0.55592  0.69735  0.04667  1.0000
  S   S318      1.0  0.54080  0.72803  0.04635  1.0000
  S   S319      1.0  0.55042  0.67189  0.06779  1.0000
  Fe  Fe160     1.0  0.57947  0.92806  0.05984  1.0000
  S   S320      1.0  0.59696  0.92207  0.03769  1.0000
  S   S321      1.0  0.60249  0.94785  0.08284  1.0000
  Fe  Fe161     1.0  0.52308  0.90007  0.04530  1.0000
  S   S322      1.0  0.53798  0.89141  0.02262  1.0000
  Fe  Fe162     1.0  0.56397  0.88064  0.03769  1.0000
  S   S323      1.0  0.57817  0.84958  0.03366  1.0000
  Fe  Fe163     1.0  0.56946  0.93321  0.02464  1.0000
  S   S324      1.0  0.57359  0.96021  0.00407  1.0000
  S   S325      1.0  0.54721  0.88654  0.06026  1.0000
  S   S326      1.0  0.55384  0.94195  0.04690  1.0000
  S   S327      1.0  0.53750  0.66216  0.02991  1.0000
  C   C1141     1.0  0.54089  0.70552  0.00013  1.0000
  H   H1366     1.0  0.66923  0.83945  0.13669  1.0000
  C   C1142     1.0  0.60718  0.84915  0.07805  1.0000
  H   H1367     1.0  0.66941  0.81721  0.15127  1.0000
  C   C1143     1.0  0.55246  0.76244  0.04400  1.0000
  C   C1144     1.0  0.53515  0.77306  0.04615  1.0000
  C   C1145     1.0  0.54280  0.79973  0.04358  1.0000
  C   C1146     1.0  0.56788  0.81624  0.03853  1.0000
  C   C1147     1.0  0.58538  0.80579  0.03665  1.0000
  C   C1148     1.0  0.57787  0.77923  0.03950  1.0000
  H   H1368     1.0  0.51547  0.76044  0.04967  1.0000
  H   H1369     1.0  0.52902  0.80730  0.04508  1.0000
  H   H1370     1.0  0.60482  0.81826  0.03274  1.0000
  H   H1371     1.0  0.59167  0.77176  0.03798  1.0000
  C   C1149     1.0  0.67819  0.74259  0.11706  1.0000
  C   C1150     1.0  0.66117  0.74782  0.10742  1.0000
  C   C1151     1.0  0.64356  0.72889  0.09648  1.0000
  C   C1152     1.0  0.64252  0.70426  0.09510  1.0000
  H   H1372     1.0  0.71189  0.81915  0.15953  1.0000
  H   H1373     1.0  0.59605  0.88154  0.06040  1.0000
  H   H1374     1.0  0.66159  0.76667  0.10841  1.0000
  H   H1375     1.0  0.63070  0.73329  0.08918  1.0000
  H   H1376     1.0  0.73141  0.90248  0.14302  1.0000
  C   C1153     1.0  0.74937  0.75266  0.22025  1.0000
  C   C1154     1.0  0.73426  0.76561  0.22196  1.0000
  C   C1155     1.0  0.53901  0.77802  0.00430  1.0000
  H   H1377     1.0  0.72674  0.77080  0.21160  1.0000
  C   C1156     1.0  0.68511  0.91840  0.10839  1.0000
  C   C1157     1.0  0.79310  0.93012  0.14922  1.0000
  C   C1158     1.0  0.78703  0.92882  0.16515  1.0000
  C   C1159     1.0  0.78365  0.90699  0.17377  1.0000
  C   C1160     1.0  0.78558  0.88606  0.16642  1.0000
  C   C1161     1.0  0.79066  0.88692  0.15034  1.0000
  C   C1162     1.0  0.79473  0.90905  0.14182  1.0000
  H   H1378     1.0  0.78586  0.94504  0.17095  1.0000
  H   H1379     1.0  0.77973  0.90642  0.18622  1.0000
  H   H1380     1.0  0.79209  0.87089  0.14453  1.0000
  H   H1381     1.0  0.79939  0.90998  0.12948  1.0000
  H   H1382     1.0  0.60624  0.83810  0.08882  1.0000
  H   H1383     1.0  0.50647  0.66643  0.10567  1.0000
  C   C1163     1.0  0.65571  0.96229  0.08060  1.0000
  C   C1164     1.0  0.63518  0.95914  0.09028  1.0000
  H   H1384     1.0  0.52242  0.77863  0.00964  1.0000
  N   N77       1.0  0.61233  0.87622  0.08214  1.0000
  H   H1385     1.0  0.65205  0.95766  0.06812  1.0000
  H   H1386     1.0  0.70360  0.93015  0.11455  1.0000
  H   H1387     1.0  0.57819  0.73384  0.02133  1.0000
  H   H1388     1.0  0.77606  0.70813  0.19597  1.0000
  H   H1389     1.0  0.84563  0.94484  0.17432  1.0000
  C   C1165     1.0  0.90372  0.79516  0.16283  1.0000
  C   C1166     1.0  0.89651  0.78447  0.14753  1.0000
  C   C1167     1.0  0.87274  0.78090  0.14056  1.0000
  C   C1168     1.0  0.85578  0.78763  0.14883  1.0000
  C   C1169     1.0  0.86299  0.79832  0.16412  1.0000
  C   C1170     1.0  0.88688  0.80221  0.17102  1.0000
  H   H1390     1.0  0.90925  0.77901  0.14106  1.0000
  H   H1391     1.0  0.86739  0.77266  0.12871  1.0000
  H   H1392     1.0  0.85011  0.80340  0.17067  1.0000
  H   H1393     1.0  0.89225  0.81041  0.18287  1.0000
  H   H1394     1.0  0.67839  0.81445  0.13172  1.0000
  S   S328      1.0  0.62014  0.67911  0.08189  1.0000
  C   C1171     1.0  0.85800  0.73122  0.17600  1.0000
  H   H1395     1.0  0.78586  0.68388  0.19098  1.0000
  C   C1172     1.0  0.75867  0.74571  0.23385  1.0000
  C   C1173     1.0  0.55912  0.80087  0.99881  1.0000
  C   C1174     1.0  0.64076  0.96596  0.10643  1.0000
  H   H1396     1.0  0.75151  0.92773  0.12024  1.0000
  H   H1397     1.0  0.96305  0.72295  0.09270  1.0000
  H   H1398     1.0  0.62952  0.88973  0.05947  1.0000
  C   C1175     1.0  0.66065  0.89253  0.08552  1.0000
  S   S329      1.0  0.59093  0.66709  0.00132  1.0000
  H   H1399     1.0  0.58631  0.86436  0.10168  1.0000
  H   H1400     1.0  0.77021  0.73554  0.23267  1.0000
  C   C1176     1.0  0.96734  0.72078  0.06761  1.0000
  N   N78       1.0  0.70740  0.84745  0.14532  1.0000
  C   C1177     1.0  0.72115  0.83220  0.14954  1.0000
  C   C1178     1.0  0.67993  0.82894  0.14104  1.0000
  C   C1179     1.0  0.71996  0.86397  0.13172  1.0000
  C   C1180     1.0  0.73096  0.89167  0.13241  1.0000
  C   C1181     1.0  0.72132  0.85234  0.11712  1.0000
  C   C1182     1.0  0.74267  0.90658  0.11931  1.0000
  C   C1183     1.0  0.73317  0.86746  0.10412  1.0000
  C   C1184     1.0  0.74389  0.89454  0.10524  1.0000
  H   H1401     1.0  0.84640  0.90468  0.18082  1.0000
  C   C1185     1.0  0.70748  0.86257  0.15967  1.0000
  H   H1402     1.0  0.74175  0.84515  0.15303  1.0000
  H   H1403     1.0  0.69668  0.87394  0.15757  1.0000
  H   H1404     1.0  0.72774  0.87620  0.16383  1.0000
  C   C1186     1.0  0.58492  0.73179  0.00943  1.0000
  Fe  Fe164     1.0  0.57841  0.66787  0.02685  1.0000
  H   H1405     1.0  0.69813  0.84960  0.16970  1.0000
  H   H1406     1.0  0.71346  0.83138  0.11571  1.0000
  C   C1187     1.0  0.85270  0.91204  0.16922  1.0000
  H   H1407     1.0  0.84239  0.85604  0.13818  1.0000
  C   C1188     1.0  0.68435  0.90656  0.09384  1.0000
  H   H1408     1.0  0.78691  0.72712  0.17195  1.0000
  H   H1409     1.0  0.81867  0.74167  0.16465  1.0000
  C   C1189     1.0  0.67728  0.71804  0.11559  1.0000
  H   H1410     1.0  0.89525  0.73776  0.16736  1.0000
  H   H1411     1.0  0.80868  0.75492  0.19629  1.0000
  H   H1412     1.0  0.54321  0.68748  0.99893  1.0000
  C   C1190     1.0  0.92271  0.75653  0.21177  1.0000
  C   C1191     1.0  0.80488  0.72470  0.17134  1.0000
  C   C1192     1.0  0.82446  0.74909  0.19547  1.0000
  H   H1413     1.0  0.69008  0.71359  0.12291  1.0000
  H   H1414     1.0  0.85799  0.74625  0.16868  1.0000
  H   H1415     1.0  0.62518  0.96387  0.11405  1.0000
  H   H1416     1.0  0.91928  0.79180  0.21091  1.0000
  H   H1417     1.0  0.62219  0.84851  0.07036  1.0000
  N   N79       1.0  0.81516  0.72338  0.18729  1.0000
  H   H1418     1.0  0.80007  0.70672  0.16414  1.0000
  C   C1193     1.0  0.63841  0.90225  0.10651  1.0000
  C   C1194     1.0  0.79297  0.70389  0.19616  1.0000
  C   C1195     1.0  0.61466  0.89026  0.06735  1.0000
  C   C1196     1.0  0.96875  0.70102  0.22890  1.0000
  H   H1419     1.0  0.86946  0.88053  0.18582  1.0000
  C   C1197     1.0  0.83720  0.71716  0.18618  1.0000
  C   C1198     1.0  0.66218  0.91604  0.11476  1.0000
  C   C1199     1.0  0.83956  0.69832  0.19573  1.0000
  H   H1420     1.0  0.63084  0.98243  0.00362  1.0000
  H   H1421     1.0  0.79806  0.70403  0.20887  1.0000
  H   H1422     1.0  0.86255  0.67913  0.20210  1.0000
  C   C1200     1.0  0.92310  0.73735  0.22130  1.0000
  H   H1423     1.0  0.62011  0.97471  0.05001  1.0000
  H   H1424     1.0  0.62165  0.90223  0.11187  1.0000
  H   H1425     1.0  0.92558  0.72147  0.21598  1.0000
  C   C1201     1.0  0.86114  0.69363  0.19477  1.0000
  H   H1426     1.0  0.58837  0.83823  0.07127  1.0000
  C   C1202     1.0  0.96707  0.71290  0.08305  1.0000
  C   C1203     1.0  0.58917  0.87456  0.09034  1.0000
  C   C1204     1.0  0.65951  0.69904  0.10475  1.0000
  H   H1427     1.0  0.96294  0.68310  0.22209  1.0000
  H   H1428     1.0  0.87009  0.94068  0.12757  1.0000
  C   C1205     1.0  0.85851  0.94561  0.15072  1.0000
  C   C1206     1.0  0.85212  0.93529  0.16565  1.0000
  H   H1429     1.0  0.85558  0.84687  0.17972  1.0000
  H   H1430     1.0  0.52498  0.73810  0.00893  1.0000
  H   H1431     1.0  0.81993  0.85133  0.15356  1.0000
  C   C1207     1.0  0.86570  0.93283  0.13928  1.0000
  H   H1432     1.0  0.83162  0.74882  0.20768  1.0000
  H   H1433     1.0  0.88922  0.87690  0.14421  1.0000
  C   C1208     1.0  0.86008  0.89853  0.15784  1.0000
  C   C1209     1.0  0.86648  0.90963  0.14273  1.0000
  H   H1434     1.0  0.48211  0.93463  0.05842  1.0000
  C   C1210     1.0  0.88536  0.87462  0.15701  1.0000
  H   H1435     1.0  0.90170  0.89122  0.16345  1.0000
  C   C1211     1.0  0.54073  0.75469  0.00374  1.0000
  H   H1436     1.0  0.87147  0.90009  0.13332  1.0000
  C   C1212     1.0  0.68693  0.97905  0.10315  1.0000
  C   C1213     1.0  0.83922  0.85259  0.15099  1.0000
  N   N80       1.0  0.85992  0.87333  0.16095  1.0000
  H   H1437     1.0  0.48001  0.92839  0.02110  1.0000
  C   C1214     1.0  0.66637  0.97575  0.11284  1.0000
  H   H1438     1.0  0.82504  0.68700  0.20407  1.0000
  Fe  Fe165     1.0  0.59070  0.67729  0.06271  1.0000
  C   C1215     1.0  0.91745  0.77866  0.23482  1.0000
  H   H1439     1.0  0.65895  0.68012  0.10383  1.0000
  H   H1440     1.0  0.83806  0.83314  0.15303  1.0000
  C   C1216     1.0  0.48211  0.94312  0.99777  1.0000
  C   C1217     1.0  0.91962  0.77700  0.21848  1.0000
  C   C1218     1.0  0.63692  0.88999  0.09158  1.0000
  H   H1441     1.0  0.83496  0.86189  0.18104  1.0000
  C   C1219     1.0  0.85482  0.86546  0.17763  1.0000
  H   H1442     1.0  0.97232  0.68635  0.09821  1.0000
  H   H1443     1.0  0.70233  0.90888  0.08882  1.0000
  H   H1444     1.0  0.57094  0.86346  0.08311  1.0000
  H   H1445     1.0  0.66114  0.88428  0.07409  1.0000
  C   C1220     1.0  0.68131  0.97218  0.08700  1.0000
  H   H1446     1.0  0.52502  0.70341  0.99175  1.0000
  C   C1221     1.0  0.97244  0.69232  0.08615  1.0000
  H   H1447     1.0  0.61984  0.91103  0.06985  1.0000
  H   H1448     1.0  0.66304  0.92598  0.12588  1.0000
  H   H1449     1.0  0.85701  0.96310  0.14786  1.0000
  H   H1450     1.0  0.69700  0.97477  0.07934  1.0000
  H   H1451     1.0  0.92502  0.75570  0.19914  1.0000
  C   C1222     1.0  0.88103  0.70761  0.18447  1.0000
  C   C1223     1.0  0.87952  0.72648  0.17517  1.0000
  C   C1224     1.0  0.56269  0.75351  0.99732  1.0000
  Fe  Fe166     1.0  0.96475  0.78804  0.16609  1.0000
  H   H1452     1.0  0.89781  0.70406  0.18380  1.0000
  H   H1453     1.0  0.59069  0.89428  0.09260  1.0000
  H   H1454     1.0  0.60411  0.74908  0.00786  1.0000
  C   C1225     1.0  0.96588  0.66182  0.03415  1.0000
  H   H1455     1.0  0.53438  0.70564  0.01240  1.0000
  C   C1226     1.0  0.72774  0.77066  0.23711  1.0000
  C   C1227     1.0  0.92138  0.73902  0.23769  1.0000
  H   H1456     1.0  0.50183  0.94607  0.99610  1.0000
  N   N81       1.0  0.56555  0.72934  0.99708  1.0000
  H   H1457     1.0  0.54189  0.65478  0.10658  1.0000
  H   H1458     1.0  0.96298  0.73674  0.06525  1.0000
  H   H1459     1.0  0.70632  0.65947  0.03386  1.0000
  H   H1460     1.0  0.95826  0.67449  0.02890  1.0000
  S   S330      1.0  0.97477  0.72259  0.20024  1.0000
  S   S331      1.0  0.47840  0.88475  0.04607  1.0000
  C   C1228     1.0  0.97580  0.72438  0.22117  1.0000
  Fe  Fe167     1.0  0.78471  0.98586  0.14647  1.0000
  H   H1461     1.0  0.67025  0.98108  0.12524  1.0000
  C   C1229     1.0  0.59809  0.98378  0.99222  1.0000
  H   H1462     1.0  0.74565  0.65320  0.03233  1.0000
  H   H1463     1.0  0.97338  0.71518  0.04350  1.0000
  C   C1230     1.0  0.97361  0.70850  0.05528  1.0000
  H   H1464     1.0  0.60458  0.98329  0.03415  1.0000
  H   H1465     1.0  0.71520  0.77976  0.23828  1.0000
  C   C1231     1.0  0.58110  0.80052  0.99271  1.0000
  C   C1232     1.0  0.58302  0.77729  0.99204  1.0000
  H   H1466     1.0  0.59698  0.81854  0.98884  1.0000
  H   H1467     1.0  0.95711  0.79411  0.26370  1.0000
  C   C1233     1.0  0.91898  0.76011  0.24499  1.0000
  S   S332      1.0  0.94168  0.80101  0.31409  1.0000
  S   S333      1.0  0.55541  0.68108  0.40916  1.0000
  Fe  Fe168     1.0  0.76758  0.96985  0.31765  1.0000
  C   C1234     1.0  0.54959  0.97053  0.44936  1.0000
  H   H1468     1.0  0.82381  0.81180  0.37298  1.0000
  C   C1235     1.0  0.48414  0.94556  0.46902  1.0000
  S   S334      1.0  0.75695  0.93087  0.32850  1.0000
  H   H1469     1.0  0.81214  0.70373  0.35519  1.0000
  Fe  Fe169     1.0  0.79094  0.76551  0.31146  1.0000
  S   S335      1.0  0.74710  0.74076  0.30921  1.0000
  S   S336      1.0  0.81697  0.74537  0.31164  1.0000
  Fe  Fe170     1.0  0.78639  0.81601  0.31379  1.0000
  S   S337      1.0  0.74285  0.79535  0.31204  1.0000
  S   S338      1.0  0.81092  0.85983  0.31360  1.0000
  Fe  Fe171     1.0  0.74460  0.76637  0.32886  1.0000
  S   S339      1.0  0.72347  0.75542  0.35261  1.0000
  Fe  Fe172     1.0  0.74871  0.77160  0.29257  1.0000
  S   S340      1.0  0.72694  0.76905  0.26946  1.0000
  S   S341      1.0  0.78848  0.78926  0.33197  1.0000
  S   S342      1.0  0.79221  0.79406  0.29347  1.0000
  Fe  Fe173     1.0  0.60974  0.93961  0.40776  1.0000
  S   S343      1.0  0.61508  0.91877  0.42880  1.0000
  S   S344      1.0  0.64726  0.95878  0.39328  1.0000
  Fe  Fe174     1.0  0.55189  0.92304  0.41655  1.0000
  S   S345      1.0  0.55472  0.90110  0.43741  1.0000
  Fe  Fe175     1.0  0.59370  0.93658  0.44256  1.0000
  S   S346      1.0  0.60059  0.95257  0.46833  1.0000
  Fe  Fe176     1.0  0.57592  0.88540  0.42182  1.0000
  S   S347      1.0  0.56395  0.84215  0.41514  1.0000
  S   S348      1.0  0.59034  0.95902  0.42203  1.0000
  S   S349      1.0  0.57116  0.90582  0.40046  1.0000
  Fe  Fe177     1.0  0.57737  0.70565  0.43052  1.0000
  C   C1236     1.0  0.92314  0.74410  0.27135  1.0000
  S   S350      1.0  0.58263  0.74634  0.43869  1.0000
  Fe  Fe178     1.0  0.59229  0.67758  0.40490  1.0000
  S   S351      1.0  0.60964  0.68445  0.38008  1.0000
  S   S352      1.0  0.61428  0.70290  0.42577  1.0000
  C   C1237     1.0  0.56994  0.81602  0.42182  1.0000
  C   C1238     1.0  0.56111  0.79301  0.41237  1.0000
  C   C1239     1.0  0.56465  0.77153  0.41727  1.0000
  C   C1240     1.0  0.57696  0.77256  0.43182  1.0000
  C   C1241     1.0  0.58600  0.79566  0.44117  1.0000
  C   C1242     1.0  0.58263  0.81720  0.43622  1.0000
  H   H1470     1.0  0.55127  0.79171  0.40120  1.0000
  H   H1471     1.0  0.55759  0.75407  0.40986  1.0000
  H   H1472     1.0  0.59564  0.79688  0.45241  1.0000
  H   H1473     1.0  0.58955  0.83458  0.44369  1.0000
  C   C1243     1.0  0.89153  0.75918  0.26640  1.0000
  C   C1244     1.0  0.75654  0.92711  0.26381  1.0000
  H   H1474     1.0  0.79972  0.71028  0.33701  1.0000
  C   C1245     1.0  0.69175  0.73478  0.35992  1.0000
  C   C1246     1.0  0.67039  0.71900  0.35003  1.0000
  C   C1247     1.0  0.64562  0.70369  0.35643  1.0000
  C   C1248     1.0  0.64172  0.70364  0.37279  1.0000
  C   C1249     1.0  0.66316  0.71915  0.38269  1.0000
  C   C1250     1.0  0.68788  0.73465  0.37629  1.0000
  H   H1475     1.0  0.67287  0.71872  0.33744  1.0000
  H   H1476     1.0  0.62930  0.69174  0.34861  1.0000
  H   H1477     1.0  0.70412  0.74675  0.38411  1.0000
  S   S353      1.0  0.73718  0.96885  0.30056  1.0000
  C   C1251     1.0  0.73689  0.76356  0.25071  1.0000
  H   H1478     1.0  0.91490  0.79481  0.23944  1.0000
  N   N82       1.0  0.53010  0.95750  0.46164  1.0000
  H   H1479     1.0  0.75982  0.74578  0.25938  1.0000
  C   C1252     1.0  0.77252  0.91174  0.32420  1.0000
  C   C1253     1.0  0.76023  0.88538  0.32822  1.0000
  C   C1254     1.0  0.77186  0.86933  0.32501  1.0000
  C   C1255     1.0  0.79610  0.87966  0.31799  1.0000
  C   C1256     1.0  0.80856  0.90611  0.31409  1.0000
  C   C1257     1.0  0.79669  0.92211  0.31705  1.0000
  H   H1480     1.0  0.74164  0.87732  0.33387  1.0000
  H   H1481     1.0  0.76230  0.84907  0.32822  1.0000
  H   H1482     1.0  0.82735  0.91419  0.30865  1.0000
  H   H1483     1.0  0.80632  0.94244  0.31396  1.0000
  C   C1258     1.0  0.66076  0.96991  0.37437  1.0000
  H   H1484     1.0  0.76589  0.69348  0.37420  1.0000
  H   H1485     1.0  0.52281  0.85606  0.39021  1.0000
  C   C1259     1.0  0.75435  0.91184  0.25044  1.0000
  H   H1486     1.0  0.92325  0.74750  0.28434  1.0000
  C   C1260     1.0  0.48173  0.91719  0.41557  1.0000
  H   H1487     1.0  0.80371  0.87456  0.26441  1.0000
  H   H1488     1.0  0.97283  0.70694  0.37319  1.0000
  H   H1489     1.0  0.92263  0.72386  0.24435  1.0000
  C   C1261     1.0  0.52646  0.93048  0.46281  1.0000
  S   S354      1.0  0.96706  0.74584  0.31702  1.0000
  H   H1490     1.0  0.51800  0.91920  0.45160  1.0000
  C   C1262     1.0  0.90699  0.78488  0.31299  1.0000
  C   C1263     1.0  0.89379  0.80005  0.31232  1.0000
  C   C1264     1.0  0.86633  0.78832  0.31167  1.0000
  C   C1265     1.0  0.85165  0.76115  0.31174  1.0000
  C   C1266     1.0  0.86484  0.74593  0.31226  1.0000
  C   C1267     1.0  0.89233  0.75768  0.31288  1.0000
  H   H1491     1.0  0.90488  0.82111  0.31241  1.0000
  H   H1492     1.0  0.85653  0.80033  0.31131  1.0000
  H   H1493     1.0  0.85370  0.72490  0.31233  1.0000
  H   H1494     1.0  0.90215  0.74571  0.31348  1.0000
  H   H1495     1.0  0.51283  0.97401  0.43472  1.0000
  C   C1268     1.0  0.74497  0.83945  0.28094  1.0000
  H   H1496     1.0  0.76540  0.89086  0.29170  1.0000
  H   H1497     1.0  0.56866  0.97118  0.45242  1.0000
  C   C1269     1.0  0.75983  0.87983  0.26670  1.0000
  N   N83       1.0  0.76259  0.85580  0.26862  1.0000
  C   C1270     1.0  0.93735  0.78958  0.26778  1.0000
  C   C1271     1.0  0.50460  0.95673  0.45819  1.0000
  H   H1498     1.0  0.56117  0.97368  0.47931  1.0000
  H   H1499     1.0  0.73609  0.83300  0.24966  1.0000
  C   C1272     1.0  0.50451  0.85796  0.39011  1.0000
  H   H1500     1.0  0.79579  0.87529  0.28458  1.0000
  N   N84       1.0  0.78879  0.72363  0.35812  1.0000
  C   C1273     1.0  0.76584  0.72325  0.34991  1.0000
  C   C1274     1.0  0.79523  0.70484  0.34954  1.0000
  C   C1275     1.0  0.78153  0.71408  0.37432  1.0000
  C   C1276     1.0  0.81036  0.75066  0.35888  1.0000
  C   C1277     1.0  0.80716  0.77084  0.36674  1.0000
  C   C1278     1.0  0.83475  0.75790  0.35182  1.0000
  C   C1279     1.0  0.82699  0.79663  0.36730  1.0000
  C   C1280     1.0  0.85444  0.78374  0.35246  1.0000
  C   C1281     1.0  0.85054  0.80307  0.36011  1.0000
  H   H1501     1.0  0.77089  0.73124  0.33790  1.0000
  H   H1502     1.0  0.74930  0.70321  0.34859  1.0000
  H   H1503     1.0  0.54318  0.95986  0.43777  1.0000
  H   H1504     1.0  0.48914  0.84100  0.42801  1.0000
  H   H1505     1.0  0.88674  0.77376  0.26086  1.0000
  H   H1506     1.0  0.51952  0.85227  0.41850  1.0000
  H   H1507     1.0  0.79864  0.71515  0.38109  1.0000
  H   H1508     1.0  0.77389  0.72561  0.38105  1.0000
  H   H1509     1.0  0.75096  0.84839  0.29298  1.0000
  H   H1510     1.0  0.78898  0.76699  0.37210  1.0000
  H   H1511     1.0  0.83893  0.74418  0.34527  1.0000
  H   H1512     1.0  0.49527  0.85155  0.37816  1.0000
  H   H1513     1.0  0.75821  0.73505  0.35631  1.0000
  C   C1282     1.0  0.75597  0.88852  0.25176  1.0000
  N   N85       1.0  0.68288  0.90791  0.34856  1.0000
  C   C1283     1.0  0.70748  0.92830  0.35591  1.0000
  C   C1284     1.0  0.68994  0.89446  0.33592  1.0000
  C   C1285     1.0  0.66877  0.92071  0.34087  1.0000
  C   C1286     1.0  0.66649  0.89029  0.36082  1.0000
  C   C1287     1.0  0.65851  0.86302  0.36056  1.0000
  C   C1288     1.0  0.65756  0.90024  0.37344  1.0000
  C   C1289     1.0  0.64197  0.84681  0.37194  1.0000
  C   C1290     1.0  0.64106  0.88391  0.38475  1.0000
  C   C1291     1.0  0.63309  0.85721  0.38394  1.0000
  H   H1514     1.0  0.71891  0.91951  0.36160  1.0000
  H   H1515     1.0  0.72019  0.94209  0.34701  1.0000
  H   H1516     1.0  0.70411  0.94031  0.36501  1.0000
  H   H1517     1.0  0.70224  0.88585  0.34061  1.0000
  H   H1518     1.0  0.70168  0.90830  0.32675  1.0000
  H   H1519     1.0  0.67242  0.87902  0.32967  1.0000
  H   H1520     1.0  0.66377  0.93234  0.34936  1.0000
  H   H1521     1.0  0.68064  0.93451  0.33171  1.0000
  H   H1522     1.0  0.65019  0.90608  0.33514  1.0000
  H   H1523     1.0  0.66462  0.85369  0.35161  1.0000
  H   H1524     1.0  0.66301  0.92078  0.37463  1.0000
  H   H1525     1.0  0.63579  0.82604  0.37130  1.0000
  H   H1526     1.0  0.63421  0.89208  0.39409  1.0000
  H   H1527     1.0  0.61991  0.84466  0.39264  1.0000
  N   N86       1.0  0.63825  0.77362  0.40013  1.0000
  C   C1292     1.0  0.63286  0.79547  0.40467  1.0000
  C   C1293     1.0  0.61281  0.74991  0.39758  1.0000
  C   C1294     1.0  0.65192  0.76864  0.41358  1.0000
  C   C1295     1.0  0.65475  0.78056  0.38609  1.0000
  C   C1296     1.0  0.64627  0.76668  0.37138  1.0000
  C   C1297     1.0  0.68036  0.80173  0.38692  1.0000
  C   C1298     1.0  0.66270  0.77331  0.35853  1.0000
  C   C1299     1.0  0.69674  0.80795  0.37404  1.0000
  C   C1300     1.0  0.68798  0.79362  0.35992  1.0000
  H   H1528     1.0  0.62105  0.79878  0.39538  1.0000
  H   H1529     1.0  0.62174  0.79137  0.41573  1.0000
  H   H1530     1.0  0.65092  0.81405  0.40694  1.0000
  H   H1531     1.0  0.60101  0.74495  0.40836  1.0000
  H   H1532     1.0  0.61549  0.73254  0.39445  1.0000
  H   H1533     1.0  0.60067  0.75249  0.38818  1.0000
  H   H1534     1.0  0.66975  0.78632  0.41764  1.0000
  H   H1535     1.0  0.63934  0.76190  0.42407  1.0000
  H   H1536     1.0  0.65764  0.75329  0.41038  1.0000
  H   H1537     1.0  0.62738  0.74992  0.36960  1.0000
  H   H1538     1.0  0.68814  0.81329  0.39766  1.0000
  H   H1539     1.0  0.65621  0.76177  0.34763  1.0000
  H   H1540     1.0  0.71657  0.82352  0.37511  1.0000
  H   H1541     1.0  0.70105  0.79774  0.35015  1.0000
  C   C1301     1.0  0.75281  0.75150  0.24902  1.0000
  C   C1302     1.0  0.75641  0.83928  0.25399  1.0000
  H   H1542     1.0  0.87623  0.73944  0.26251  1.0000
  H   H1543     1.0  0.93853  0.79170  0.28088  1.0000
  C   C1303     1.0  0.64577  0.96984  0.36123  1.0000
  H   H1544     1.0  0.51071  0.87920  0.39184  1.0000
  H   H1545     1.0  0.72454  0.83548  0.27850  1.0000
  H   H1546     1.0  0.48682  0.93768  0.47995  1.0000
  C   C1304     1.0  0.68761  0.97860  0.37247  1.0000
  H   H1547     1.0  0.93269  0.80508  0.26365  1.0000
  H   H1548     1.0  0.76225  0.93114  0.28900  1.0000
  H   H1549     1.0  0.77865  0.68475  0.34920  1.0000
  H   H1550     1.0  0.87263  0.78889  0.34661  1.0000
  H   H1551     1.0  0.94259  0.74579  0.26866  1.0000
  H   H1552     1.0  0.50075  0.81388  0.39963  1.0000
  C   C1305     1.0  0.76203  0.89595  0.28003  1.0000
  H   H1553     1.0  0.79251  0.84560  0.27595  1.0000
  C   C1306     1.0  0.61771  0.98428  0.47772  1.0000
  C   C1307     1.0  0.76034  0.91915  0.27859  1.0000
  S   S355      1.0  0.56249  0.67064  0.44630  1.0000
  C   C1308     1.0  0.96891  0.70037  0.24536  1.0000
  C   C1309     1.0  0.78980  0.86310  0.27355  1.0000
  S   S356      1.0  0.51455  0.92638  0.40971  1.0000
  H   H1554     1.0  0.75807  0.82110  0.25602  1.0000
  H   H1555     1.0  0.96322  0.68195  0.25103  1.0000
  Fe  Fe179     1.0  0.97209  0.78617  0.31271  1.0000
  H   H1556     1.0  0.66072  0.71912  0.39528  1.0000
  N   N87       1.0  0.91781  0.76300  0.26232  1.0000
  C   C1310     1.0  0.49895  0.96605  0.44397  1.0000
  H   H1557     1.0  0.86566  0.82316  0.36024  1.0000
  H   H1558     1.0  0.88986  0.76118  0.27937  1.0000
  H   H1559     1.0  0.90811  0.72360  0.26893  1.0000
  H   H1560     1.0  0.74495  0.82026  0.28163  1.0000
  H   H1561     1.0  0.54526  0.93020  0.46528  1.0000
  Fe  Fe180     1.0  0.59764  0.66606  0.43976  1.0000
  S   S357      1.0  0.62455  0.65492  0.45453  1.0000
  H   H1562     1.0  0.62514  0.96331  0.36242  1.0000
  C   C1311     1.0  0.50044  0.85257  0.41799  1.0000
  C   C1312     1.0  0.48207  0.81502  0.40029  1.0000
  C   C1313     1.0  0.65750  0.97832  0.34650  1.0000
  H   H1563     1.0  0.50421  0.87308  0.42011  1.0000
  H   H1564     1.0  0.75547  0.94527  0.26271  1.0000
  N   N88       1.0  0.48672  0.84236  0.40259  1.0000
  H   H1565     1.0  0.52952  0.96149  0.48705  1.0000
  H   H1566     1.0  0.64563  0.97818  0.33647  1.0000
  H   H1567     1.0  0.97395  0.67082  0.38699  1.0000
  H   H1568     1.0  0.51335  0.91969  0.47242  1.0000
  S   S358      1.0  0.97554  0.71985  0.27528  1.0000
  H   H1569     1.0  0.77014  0.84937  0.24446  1.0000
  H   H1570     1.0  0.75155  0.91831  0.23896  1.0000
  H   H1571     1.0  0.75427  0.87775  0.24092  1.0000
  C   C1314     1.0  0.54134  0.97172  0.47684  1.0000
  H   H1572     1.0  0.48064  0.89261  0.43460  1.0000
  H   H1573     1.0  0.69950  0.97889  0.38252  1.0000
  C   C1315     1.0  0.97634  0.72310  0.25454  1.0000
  S   S359      1.0  0.96105  0.75220  0.66230  1.0000
  C   C1316     1.0  0.66687  0.69269  0.57327  1.0000
  S   S360      1.0  0.93931  0.79614  0.63828  1.0000
  H   H1574     1.0  0.95347  0.80068  0.71354  1.0000
  H   H1575     1.0  0.65260  0.66609  0.59315  1.0000
  C   C1317     1.0  0.76662  0.67121  0.61787  1.0000
  S   S361      1.0  0.77024  0.93913  0.64062  1.0000
  H   H1576     1.0  0.97258  0.70471  0.58031  1.0000
  C   C1318     1.0  0.83108  0.71913  0.62760  1.0000
  Fe  Fe181     1.0  0.78805  0.81056  0.66001  1.0000
  S   S362      1.0  0.74538  0.78223  0.65978  1.0000
  S   S363      1.0  0.80780  0.85518  0.66002  1.0000
  Fe  Fe182     1.0  0.80303  0.76746  0.66872  1.0000
  S   S364      1.0  0.76130  0.73647  0.66970  1.0000
  S   S365      1.0  0.83388  0.75546  0.67544  1.0000
  Fe  Fe183     1.0  0.75579  0.75353  0.64710  1.0000
  S   S366      1.0  0.73893  0.73182  0.62325  1.0000
  Fe  Fe184     1.0  0.75481  0.76757  0.68233  1.0000
  S   S367      1.0  0.73484  0.76887  0.70494  1.0000
  S   S368      1.0  0.79821  0.78342  0.64574  1.0000
  S   S369      1.0  0.79681  0.79687  0.68292  1.0000
  C   C1319     1.0  0.74216  0.76002  0.72360  1.0000
  C   C1320     1.0  0.74782  0.73911  0.72512  1.0000
  N   N89       1.0  0.65756  0.67292  0.56019  1.0000
  H   H1577     1.0  0.74908  0.72883  0.71467  1.0000
  H   H1578     1.0  0.84295  0.72272  0.61693  1.0000
  C   C1321     1.0  0.78014  0.91565  0.64669  1.0000
  C   C1322     1.0  0.76691  0.88994  0.64045  1.0000
  C   C1323     1.0  0.77461  0.87095  0.64470  1.0000
  C   C1324     1.0  0.79608  0.87769  0.65494  1.0000
  C   C1325     1.0  0.80924  0.90338  0.66118  1.0000
  C   C1326     1.0  0.80113  0.92215  0.65726  1.0000
  H   H1579     1.0  0.75066  0.88467  0.63226  1.0000
  H   H1580     1.0  0.76441  0.85134  0.63971  1.0000
  H   H1581     1.0  0.82597  0.90889  0.66902  1.0000
  H   H1582     1.0  0.81154  0.94182  0.66214  1.0000
  H   H1583     1.0  0.79050  0.69828  0.64632  1.0000
  S   S370      1.0  0.74592  0.98127  0.70558  1.0000
  H   H1584     1.0  0.81799  0.75780  0.62379  1.0000
  C   C1327     1.0  0.90999  0.78485  0.64867  1.0000
  C   C1328     1.0  0.89260  0.79494  0.64539  1.0000
  C   C1329     1.0  0.86915  0.78620  0.65352  1.0000
  C   C1330     1.0  0.86286  0.76705  0.66485  1.0000
  C   C1331     1.0  0.87992  0.75657  0.66785  1.0000
  C   C1332     1.0  0.90344  0.76558  0.65992  1.0000
  H   H1585     1.0  0.89748  0.80989  0.63672  1.0000
  H   H1586     1.0  0.85619  0.79452  0.65115  1.0000
  H   H1587     1.0  0.87483  0.74122  0.67624  1.0000
  H   H1588     1.0  0.91626  0.75727  0.66237  1.0000
  N   N90       1.0  0.74037  0.97105  0.60506  1.0000
  C   C1333     1.0  0.88830  0.76144  0.71507  1.0000
  H   H1589     1.0  0.90860  0.72843  0.71402  1.0000
  Fe  Fe185     1.0  0.97105  0.78685  0.64734  1.0000
  H   H1590     1.0  0.79034  0.84642  0.70285  1.0000
  Fe  Fe186     1.0  0.78131  0.97779  0.65385  1.0000
  H   H1591     1.0  0.74205  0.93706  0.68669  1.0000
  H   H1592     1.0  0.62983  0.66091  0.54062  1.0000
  C   C1334     1.0  0.72274  0.69245  0.60040  1.0000
  C   C1335     1.0  0.72236  0.69843  0.61654  1.0000
  C   C1336     1.0  0.70764  0.67805  0.62651  1.0000
  H   H1593     1.0  0.73393  0.70797  0.59253  1.0000
  H   H1594     1.0  0.70689  0.68224  0.63891  1.0000
  H   H1595     1.0  0.77459  0.97974  0.61947  1.0000
  H   H1596     1.0  0.87529  0.74239  0.72032  1.0000
  C   C1337     1.0  0.80746  0.74004  0.61608  1.0000
  S   S371      1.0  0.97756  0.70344  0.63856  1.0000
  H   H1597     1.0  0.91822  0.68538  0.62731  1.0000
  C   C1338     1.0  0.78569  0.67018  0.58799  1.0000
  H   H1598     1.0  0.70316  0.94734  0.61555  1.0000
  C   C1339     1.0  0.90033  0.66754  0.60480  1.0000
  H   H1599     1.0  0.91695  0.74748  0.69669  1.0000
  C   C1340     1.0  0.89083  0.69492  0.58733  1.0000
  C   C1341     1.0  0.81713  0.74861  0.73799  1.0000
  H   H1600     1.0  0.75884  0.93280  0.71275  1.0000
  C   C1342     1.0  0.79202  0.71491  0.63923  1.0000
  C   C1343     1.0  0.96848  0.69267  0.59055  1.0000
  C   C1344     1.0  0.68597  0.73145  0.59785  1.0000
  H   H1601     1.0  0.83600  0.79019  0.70741  1.0000
  H   H1602     1.0  0.78803  0.73845  0.61293  1.0000
  H   H1603     1.0  0.91893  0.72752  0.62188  1.0000
  N   N91       1.0  0.91611  0.76838  0.71790  1.0000
  N   N92       1.0  0.75744  0.85358  0.69846  1.0000
  C   C1345     1.0  0.78578  0.86290  0.70091  1.0000
  C   C1346     1.0  0.74390  0.84060  0.71293  1.0000
  C   C1347     1.0  0.74820  0.83334  0.68559  1.0000
  C   C1348     1.0  0.75269  0.87609  0.69507  1.0000
  C   C1349     1.0  0.75847  0.89609  0.70672  1.0000
  C   C1350     1.0  0.74308  0.87934  0.68018  1.0000
  H   H1604     1.0  0.90170  0.73386  0.59639  1.0000
  C   C1351     1.0  0.73930  0.90111  0.67730  1.0000
  C   C1352     1.0  0.74492  0.92019  0.68903  1.0000
  H   H1605     1.0  0.68787  0.69519  0.54386  1.0000
  H   H1606     1.0  0.79665  0.87333  0.69040  1.0000
  H   H1607     1.0  0.79387  0.87659  0.71123  1.0000
  H   H1608     1.0  0.75176  0.85322  0.72370  1.0000
  H   H1609     1.0  0.74590  0.82265  0.71518  1.0000
  H   H1610     1.0  0.72270  0.83461  0.71185  1.0000
  H   H1611     1.0  0.75873  0.84100  0.67453  1.0000
  H   H1612     1.0  0.75173  0.81658  0.68862  1.0000
  C   C1353     1.0  0.92188  0.77047  0.73511  1.0000
  H   H1613     1.0  0.76636  0.89532  0.71821  1.0000
  H   H1614     1.0  0.73870  0.86561  0.67044  1.0000
  H   H1615     1.0  0.70907  0.66250  0.58188  1.0000
  H   H1616     1.0  0.64587  0.69524  0.54474  1.0000
  H   H1617     1.0  0.80633  0.74445  0.71320  1.0000
  C   C1354     1.0  0.95867  0.66551  0.58845  1.0000
  S   S372      1.0  0.74721  0.98514  0.65898  1.0000
  H   H1618     1.0  0.67338  0.66094  0.54064  1.0000
  H   H1619     1.0  0.81862  0.74390  0.60510  1.0000
  C   C1355     1.0  0.93248  0.79376  0.71055  1.0000
  N   N93       1.0  0.80472  0.71623  0.62398  1.0000
  H   H1620     1.0  0.77224  0.71327  0.63743  1.0000
  C   C1356     1.0  0.96922  0.68935  0.61911  1.0000
  H   H1621     1.0  0.84232  0.73597  0.63591  1.0000
  C   C1357     1.0  0.97346  0.70450  0.60575  1.0000
  C   C1358     1.0  0.95876  0.66210  0.61703  1.0000
  C   C1359     1.0  0.69008  0.73870  0.58218  1.0000
  H   H1622     1.0  0.69317  0.94737  0.58904  1.0000
  H   H1623     1.0  0.73079  0.95336  0.62780  1.0000
  H   H1624     1.0  0.93032  0.79234  0.69743  1.0000
  H   H1625     1.0  0.80327  0.73279  0.64672  1.0000
  H   H1626     1.0  0.88320  0.75997  0.70226  1.0000
  C   C1360     1.0  0.75445  0.91770  0.70372  1.0000
  H   H1627     1.0  0.94184  0.75269  0.71101  1.0000
  C   C1361     1.0  0.72974  0.98285  0.59351  1.0000
  H   H1628     1.0  0.86332  0.82079  0.72882  1.0000
  C   C1362     1.0  0.68053  0.71968  0.57003  1.0000
  C   C1363     1.0  0.85071  0.80054  0.73139  1.0000
  H   H1629     1.0  0.82989  0.70137  0.63321  1.0000
  H   H1630     1.0  0.75328  0.95372  0.58689  1.0000
  C   C1364     1.0  0.67199  0.70523  0.60143  1.0000
  H   H1631     1.0  0.88323  0.77624  0.72017  1.0000
  H   H1632     1.0  0.75777  0.67045  0.62907  1.0000
  H   H1633     1.0  0.72196  0.97894  0.62472  1.0000
  C   C1365     1.0  0.90100  0.71517  0.59875  1.0000
  C   C1366     1.0  0.69403  0.97844  0.57562  1.0000
  C   C1367     1.0  0.67957  0.67645  0.55009  1.0000
  H   H1634     1.0  0.66927  0.69971  0.61368  1.0000
  H   H1635     1.0  0.69557  0.67576  0.55717  1.0000
  C   C1368     1.0  0.81860  0.75754  0.72263  1.0000
  H   H1636     1.0  0.73244  0.90349  0.66577  1.0000
  H   H1637     1.0  0.60778  0.96913  0.50106  1.0000
  C   C1369     1.0  0.63776  0.67595  0.55039  1.0000
  H   H1638     1.0  0.92748  0.80929  0.71439  1.0000
  C   C1370     1.0  0.79009  0.69301  0.61346  1.0000
  H   H1639     1.0  0.89034  0.67476  0.55741  1.0000
  C   C1371     1.0  0.91072  0.71166  0.61313  1.0000
  H   H1640     1.0  0.72205  0.93206  0.59453  1.0000
  C   C1372     1.0  0.92105  0.74831  0.70962  1.0000
  C   C1373     1.0  0.74162  0.94818  0.59775  1.0000
  C   C1374     1.0  0.83528  0.78342  0.71934  1.0000
  C   C1375     1.0  0.79933  0.69169  0.59824  1.0000
  H   H1641     1.0  0.68412  0.72628  0.55806  1.0000
  H   H1642     1.0  0.70097  0.75917  0.57947  1.0000
  H   H1643     1.0  0.75080  0.93974  0.60597  1.0000
  H   H1644     1.0  0.81705  0.70745  0.59410  1.0000
  C   C1376     1.0  0.70840  0.66665  0.59427  1.0000
  H   H1645     1.0  0.72692  0.82529  0.68317  1.0000
  C   C1377     1.0  0.72328  0.96227  0.61883  1.0000
  H   H1646     1.0  0.69398  0.74613  0.60729  1.0000
  C   C1378     1.0  0.91022  0.68786  0.61617  1.0000
  H   H1647     1.0  0.88357  0.69860  0.57636  1.0000
  C   C1379     1.0  0.66255  0.68602  0.58940  1.0000
  H   H1648     1.0  0.91533  0.66740  0.56474  1.0000
  C   C1380     1.0  0.89040  0.67051  0.58994  1.0000
  H   H1649     1.0  0.93383  0.73952  0.73684  1.0000
  H   H1650     1.0  0.62111  0.67399  0.55759  1.0000
  C   C1381     1.0  0.89391  0.65925  0.56269  1.0000
  H   H1651     1.0  0.79274  0.66978  0.57628  1.0000
  H   H1652     1.0  0.84843  0.65757  0.57003  1.0000
  C   C1382     1.0  0.70478  0.96763  0.58628  1.0000
  H   H1653     1.0  0.74006  0.96058  0.73655  1.0000
  H   H1654     1.0  0.67471  0.96668  0.57048  1.0000
  H   H1655     1.0  0.73528  0.78872  0.73633  1.0000
  C   C1383     1.0  0.73998  0.77277  0.73733  1.0000
  C   C1384     1.0  0.74711  0.98140  0.73795  1.0000
  H   H1656     1.0  0.74439  0.69138  0.88444  1.0000
  Fe  Fe187     1.0  0.95938  0.76050  0.81135  1.0000
  S   S373      1.0  0.91574  0.74620  0.80969  1.0000
  H   H1657     1.0  0.80316  0.76988  0.77330  1.0000
  H   H1658     1.0  0.57509  0.70596  0.98087  1.0000
  C   C1385     1.0  0.97642  0.68998  0.85934  1.0000
  C   C1386     1.0  0.81766  0.90046  0.82895  1.0000
  Fe  Fe188     1.0  0.76507  0.96706  0.81243  1.0000
  S   S374      1.0  0.76116  0.92803  0.80297  1.0000
  C   C1387     1.0  0.85396  0.91570  0.81138  1.0000
  Fe  Fe189     1.0  0.80484  0.78271  0.81622  1.0000
  S   S375      1.0  0.78127  0.73951  0.81217  1.0000
  S   S376      1.0  0.84856  0.80674  0.81416  1.0000
  Fe  Fe190     1.0  0.75651  0.79040  0.82069  1.0000
  S   S377      1.0  0.72907  0.74739  0.81639  1.0000
  S   S378      1.0  0.74338  0.81917  0.83078  1.0000
  Fe  Fe191     1.0  0.75638  0.73980  0.83224  1.0000
  S   S379      1.0  0.74764  0.71446  0.85432  1.0000
  Fe  Fe192     1.0  0.75605  0.75036  0.79657  1.0000
  S   S380      1.0  0.74800  0.72947  0.77254  1.0000
  S   S381      1.0  0.78245  0.78272  0.83744  1.0000
  S   S382      1.0  0.78097  0.79366  0.79974  1.0000
  H   H1659     1.0  0.72321  0.74609  0.85349  1.0000
  C   C1388     1.0  0.74747  0.74285  0.75392  1.0000
  H   H1660     1.0  0.93591  0.77677  0.78084  1.0000
  H   H1661     1.0  0.66906  0.76176  0.88794  1.0000
  H   H1662     1.0  0.74085  0.77423  0.76287  1.0000
  C   C1389     1.0  0.75665  0.89821  0.81121  1.0000
  C   C1390     1.0  0.76145  0.88067  0.80183  1.0000
  C   C1391     1.0  0.75796  0.85664  0.80771  1.0000
  C   C1392     1.0  0.74922  0.84969  0.82300  1.0000
  C   C1393     1.0  0.74459  0.86730  0.83243  1.0000
  C   C1394     1.0  0.74847  0.89152  0.82663  1.0000
  H   H1663     1.0  0.76775  0.88562  0.78988  1.0000
  H   H1664     1.0  0.76158  0.84332  0.80031  1.0000
  H   H1665     1.0  0.73784  0.86213  0.84428  1.0000
  H   H1666     1.0  0.74462  0.90477  0.83395  1.0000
  C   C1395     1.0  0.81302  0.72900  0.76907  1.0000
  C   C1396     1.0  0.57475  0.72511  0.98158  1.0000
  H   H1667     1.0  0.81884  0.71613  0.76216  1.0000
  C   C1397     1.0  0.89839  0.76417  0.81216  1.0000
  C   C1398     1.0  0.90969  0.79105  0.80984  1.0000
  C   C1399     1.0  0.89431  0.80404  0.81067  1.0000
  C   C1400     1.0  0.86771  0.79029  0.81395  1.0000
  C   C1401     1.0  0.85661  0.76355  0.81653  1.0000
  C   C1402     1.0  0.87185  0.75053  0.81552  1.0000
  H   H1668     1.0  0.93013  0.80168  0.80722  1.0000
  H   H1669     1.0  0.90304  0.82478  0.80873  1.0000
  H   H1670     1.0  0.83627  0.75282  0.81929  1.0000
  H   H1671     1.0  0.86303  0.72974  0.81734  1.0000
  C   C1403     1.0  0.70042  0.78692  0.86659  1.0000
  H   H1672     1.0  0.69632  0.77122  0.83690  1.0000
  C   C1404     1.0  0.81662  0.87579  0.82875  1.0000
  H   H1673     1.0  0.79601  0.65959  0.87216  1.0000
  C   C1405     1.0  0.95108  0.68628  0.86162  1.0000
  H   H1674     1.0  0.92202  0.80639  0.76791  1.0000
  C   C1406     1.0  0.72325  0.68492  0.86229  1.0000
  H   H1675     1.0  0.84630  0.95378  0.79532  1.0000
  C   C1407     1.0  0.72685  0.67854  0.87779  1.0000
  H   H1676     1.0  0.80335  0.72847  0.73972  1.0000
  H   H1677     1.0  0.86834  0.93029  0.80417  1.0000
  C   C1408     1.0  0.67776  0.71394  0.86874  1.0000
  H   H1678     1.0  0.60372  0.66183  0.96926  1.0000
  C   C1409     1.0  0.68025  0.97962  0.89989  1.0000
  H   H1679     1.0  0.74696  0.98069  0.76345  1.0000
  C   C1410     1.0  0.66436  0.97961  0.87331  1.0000
  H   H1680     1.0  0.56194  0.72546  0.97177  1.0000
  H   H1681     1.0  0.75299  0.71328  0.74122  1.0000
  N   N94       1.0  0.83817  0.94763  0.82013  1.0000
  C   C1411     1.0  0.83664  0.92133  0.82038  1.0000
  H   H1682     1.0  0.62644  0.97093  0.92659  1.0000
  C   C1412     1.0  0.82014  0.95093  0.83110  1.0000
  C   C1413     1.0  0.83418  0.87106  0.82001  1.0000
  H   H1683     1.0  0.71306  0.80262  0.85859  1.0000
  H   H1684     1.0  0.87964  0.96895  0.81617  1.0000
  C   C1414     1.0  0.82261  0.77235  0.77730  1.0000
  H   H1685     1.0  0.68692  0.70968  0.85890  1.0000
  H   H1686     1.0  0.70995  0.79238  0.87852  1.0000
  H   H1687     1.0  0.80176  0.86003  0.83520  1.0000
  H   H1688     1.0  0.85681  0.75306  0.78442  1.0000
  H   H1689     1.0  0.69328  0.97557  0.90719  1.0000
  H   H1690     1.0  0.79944  0.93802  0.82765  1.0000
  H   H1691     1.0  0.66122  0.67418  0.87628  1.0000
  H   H1692     1.0  0.86621  0.88703  0.80440  1.0000
  C   C1415     1.0  0.83257  0.76558  0.75058  1.0000
  H   H1693     1.0  0.94186  0.74386  0.76508  1.0000
  H   H1694     1.0  0.68306  0.73702  0.83982  1.0000
  C   C1416     1.0  0.85279  0.89097  0.81131  1.0000
  H   H1695     1.0  0.80301  0.90245  0.83568  1.0000
  H   H1696     1.0  0.64371  0.72558  0.90467  1.0000
  C   C1417     1.0  0.74308  0.76454  0.75242  1.0000
  H   H1697     1.0  0.66482  0.75372  0.84538  1.0000
  C   C1418     1.0  0.92401  0.79162  0.76087  1.0000
  H   H1698     1.0  0.87145  0.78259  0.77418  1.0000
  C   C1419     1.0  0.94377  0.65322  0.88157  1.0000
  C   C1420     1.0  0.68473  0.75544  0.84516  1.0000
  H   H1699     1.0  0.83318  0.85184  0.81984  1.0000
  H   H1700     1.0  0.91548  0.66555  0.87419  1.0000
  H   H1701     1.0  0.66755  0.96462  0.93184  1.0000
  H   H1702     1.0  0.79271  0.72439  0.76556  1.0000
  C   C1421     1.0  0.86489  0.96794  0.82466  1.0000
  H   H1703     1.0  0.86226  0.65505  0.91056  1.0000
  C   C1422     1.0  0.65325  0.72241  0.89459  1.0000
  C   C1423     1.0  0.85750  0.76153  0.77266  1.0000
  H   H1704     1.0  0.81218  0.72340  0.78164  1.0000
  H   H1705     1.0  0.86587  0.75238  0.76446  1.0000
  C   C1424     1.0  0.93512  0.75635  0.75929  1.0000
  C   C1425     1.0  0.66799  0.74312  0.88484  1.0000
  N   N95       1.0  0.83132  0.75705  0.76705  1.0000
  H   H1706     1.0  0.73768  0.65307  0.96891  1.0000
  C   C1426     1.0  0.65089  0.69767  0.89151  1.0000
  C   C1427     1.0  0.93497  0.66812  0.87264  1.0000
  H   H1707     1.0  0.73698  0.78050  0.85381  1.0000
  H   H1708     1.0  0.66489  0.97620  0.86075  1.0000
  H   H1709     1.0  0.83632  0.79357  0.77769  1.0000
  C   C1428     1.0  0.68095  0.73951  0.87165  1.0000
  H   H1710     1.0  0.73219  0.76363  0.87201  1.0000
  H   H1711     1.0  0.69736  0.67242  0.84194  1.0000
  H   H1712     1.0  0.68156  0.78759  0.86665  1.0000
  C   C1429     1.0  0.72340  0.76286  0.86013  1.0000
  H   H1713     1.0  0.91277  0.80264  0.73943  1.0000
  C   C1430     1.0  0.70043  0.66799  0.85389  1.0000
  H   H1714     1.0  0.69246  0.96656  0.87912  1.0000
  C   C1431     1.0  0.66304  0.69344  0.87859  1.0000
  H   H1715     1.0  0.82103  0.76617  0.78973  1.0000
  N   N96       1.0  0.69705  0.76095  0.86117  1.0000
  H   H1716     1.0  0.87244  0.66622  0.89100  1.0000
  C   C1432     1.0  0.83168  0.95260  0.80398  1.0000
  S   S383      1.0  0.96794  0.72716  0.80566  1.0000
  H   H1717     1.0  0.94386  0.69737  0.85484  1.0000
  H   H1718     1.0  0.63972  0.68170  0.89917  1.0000
  H   H1719     1.0  0.87085  0.96424  0.83651  1.0000
  C   C1433     1.0  0.93194  0.77504  0.76821  1.0000
  H   H1720     1.0  0.47847  0.95632  0.97483  1.0000
  H   H1721     1.0  0.83035  0.97120  0.80349  1.0000
  H   H1722     1.0  0.81251  0.93668  0.79972  1.0000
  H   H1723     1.0  0.82358  0.94695  0.84346  1.0000
  C   C1434     1.0  0.93030  0.75404  0.74298  1.0000
  H   H1724     1.0  0.86154  0.80583  0.75581  1.0000
  C   C1435     1.0  0.96918  0.65703  0.87935  1.0000
  C   C1436     1.0  0.67988  0.97415  0.88374  1.0000
  C   C1437     1.0  0.75002  0.73033  0.74020  1.0000
  C   C1438     1.0  0.84951  0.79180  0.74678  1.0000
  H   H1725     1.0  0.59506  0.73983  0.97936  1.0000
  H   H1726     1.0  0.82251  0.97118  0.83106  1.0000
  H   H1727     1.0  0.60087  0.77830  0.98776  1.0000
  C   C1439     1.0  0.70791  0.65589  0.88488  1.0000
  H   H1728     1.0  0.83709  0.65758  0.87481  1.0000
  C   C1440     1.0  0.91890  0.78936  0.74458  1.0000
  S   S384      1.0  0.73562  0.98249  0.81070  1.0000
