data_image0
_chemical_formula_structural       CFeS2FeSFeSFeS3FeS2FeS2FeSFeHS3H2CH2CH4C2H3CH2C4H2C6H4C6H2CH3CH4CHCHC4H3CNH8CHCHCHCHCHC2H2CH3CHCH5NCH3CHC4H2CH2C6H5NCHCHCHC2HNHCHSCHCSCH3C5H2CH2C3NCNH3C2HC2H2CH3CHC3H4SH2C2FeSFeS2FeSFeS3FeS2FeSCFeSFeS3FeSFeS2FeSFeSC2H2CHC3H2CH3CH2C2HC6H10C2SH2C6H4C2H2C2HCH2C2H3C2HSNHCH6C5HCH2CHCHC3H2CSH4CHC2H2CHCNCH5CH2CHC2HCH2CHC3HC3HCHC2H2NCH2CNHCH2NCH2CH6CH2C2H5CH4FeS2FeS2Fe2S3CH2CH2FeSFeSFeSFeS2FeS2FeS2FeSFeS3HCHC2HSH4C5H2NCH3C6H4CH8C3HSCHC7H4C4HCH3C2H4CHCH2C2H3NH5CHCSC2H4SHC2H3C2HC3H2NCH3CHC2HCHNCH3CH3C2NC9H14NC5H2C2HCHCH2CHCHCH2CHCH2C2HC3HFeS2FeSFeSFeS3FeSFeS4CHFeH2SFeHCH3C4HC7H4CSHC2SH4C2HC4NH3CH3C2H3C2HC5H4C3HCHCHCHC2H3NHC2HCH3CH2C2HC3H2CHC2HC4H3C2NH2CH2CHSC4H8CH2CHCHC3NH3CHCNCH3CHCHCH2CNHFeS2FeS2FeSFeS3FeSHSFeHFeS3FeSHSFeHFeS2NH4C12H4C6H4C6H6C2HC2H2C3HSH2CH3NC9H14SNCHCH2C2H2CH2C2H2CNC2SCH3C3FeH2FeNCSCHCH2CH2SH2C2HCHCH2C3H3CNH3CH2SCH2CH4CHCH5CHC2H3C2H2CSHCH2FeSHFeS2FeSFeS2CS2FeSFeCSFeS2FeS2FeSFeS3HC6H3C2H2C6H6FeC6H5CSH3NH2C2H2CHNHCHCHSC4NC2H2C3HC2HCHCHCHCHCH2CHCNH3CHC4H4FeHCHCH5NC9H14SH4C2H3C2HC3HCHCHSCH3CHC2H5C2H2CHSHC4HCSH4CH2CHFeSFeS3FeS2HSFeS2Fe2S2FeS2FeS2FeSFeS4C6HCHC6HC6H8C6H4CHCH6NC9H18C2FeSCH2CHCH2CH2CH2CHNHCHC2SHCH2C2H5CHC2HCH5CHSC4NH3CHCHC4H3CHFeCHC2H4NCSC3H2CH3NH2C2HCH3CH3C5H3CH3C3FeS2FeS2FeSFeS3FeS2FeHFeHS2CH3FeSHFeS2FeCFeHS3H3CSH3CHNHNC2SHSC2HC7H4C6H4C6H5FeCH2CH3C2HCHC2H2CH4C5HCH2CHCH4C2HC4HCNC9H15SNCH2CHC2SC2H3SHC3HCH10C2H2CH2CHCHC2HCFeS2FeSFeSFeS3H2CFeSCFeSHFeSFeS3FeS2FeS2FeHFeNS2CSCHCHCH2C6H6CH4C2HCHCH2C2H3C8H4C2H2C6H6C2HC2HC3H3C2H3NC9H20N2HCH3CH4S2CHCH2CSNC3HC2SHCHC3SH2CH3C2H4CH6C2HCH4NC2HC4H2CFeSFeS2FeSFeS3HFeHSFeS2FeNFeHS2H2C2H6C3H3C6H4C6H4C2H2NH3C4SCH2C2H3NC2H5CHCNHCH6CH2CS2CH3C5HCH2CH2C3H2C5H2CH2C2HC2HC2H2SCH3CH3CH4CHCHC2HCHC3H5CH2C4H3CFeS2FeSFeSFeS3HFeS2FeSFeCFeCS4CHC2H2C2H3CHC3H4CHC9H4C6H7SH2SNC9H14NHC3H5C2HC2H2CSH2C2H5CHCH5CH2C2HC3H2C3HCNHCH2CHC2H2SHNHC2HC3HCHCH2CH2CHCHFeS2FeSCFeSFeS3H4FeS2FeS2FeCFeHS2FeS2FeSH3S2HC8H3CHCH3CFeC2H2C4HC2HC6H4C2HCH2CHC5NHCH2CH3C2H3NCH2C2S3CH2CHC2FeC2NH2CH3C2H5SNC9H16SC6HCH2NHC3H2CH2C2H9C2H2N2H2C2HC2HCH2CHCH9C2H2C2HCH2NCH2CHCHCHCHCHFeSHFeS2FeSFeS3CH6FeS2FeSHS2FeS2FeS2FeCFeHS2H3C5H6CSH2C3H7C4H4NHCHCHC6H4CHFeHC7H5C2HC2HCHCHCH2C2HC2H3CHCNC3HCHCHCH6CHCS2H2CFeSH2CNH6C2H2CH2NC9H3CSHC2H4C4H4SH2CHC2H2CH2FeS2FeSCFeSFeS3FeS2FeSFe2S2C2H4C3SH4C3HCHC8H4CHC2HC8H3NH2CH2C2HCH2CH6SCHSC3H4CHC2HC2NC2HC3H4CHCH2C2H5NH3CSHCNC3HC2H8NHCH2CNC9H9CNCH5CHCH5SCH2C2HC2FeSFeS2FeSFeS3FeS2FeS2FeCFeS3HCH7CH8CHCH2C6H5CHC6H6CH3C3HCH3C5HCHC2NC2HCH3CHC2SHCH3C2HCHCH4CHCHCH3NCHC2HCHCHC2HC3H3CHC5H2NCHCH5CHNCH2NC2HCFeSFeS2FeSFeS3C3SH2FeS2FeS2FeSFeS3FeS2FeCSFeCFeHS2C9H5CH2C2HCH3CHCHC3H3C8H4SC2H2C6H3NHSHCH3CH2CHCH3C2H5C3H3CHC4H2C4H2C2HCH6CH3CH3NHNCHNHCHCHCHCHCH2CNC9H11CHCH3C6HCH2CHC2H2SCH2C2HCHCH8CNH2CH3SHCH2CHCHCSFeS2FeS2FeSFeS3FeS2Fe2S2CHFeS2FeS2FeCFeHS2C2HCH3C3HCH2CH2C2HC6H4C6H4C2H2C5H3C2NC6H2C2H8CSCH3C2H2C4NHCH4CH3NH2FeH2C2H8C3H5C3HC3H2CHSCSCH4CH2CNC2HC3H6NHCHC3NH2C2HFeCFeS2FeHFeS2FeSFeSCFeSHSFeS2FeS2FeSFeS3HCH2SC6H6CFeC7H3C3H2C6H5NCHSHCH5C4H3CH3C2HCH3CH3CH3C2H2CHC5HC2HCH4CHNCHCN2H2CH2CHCSHCHSNH4CHC2H5CHCSH2NHCHC3H2CHSHCH3CHCHCH5CH4C2H3SC2H3S2CH2Fe2SCFeSCFeSFeS3HFeSCS2FeS2FeS2FeSFeS3C4HC6H4C7H3CH2C6H7FeHC2H2C2HCH2CHCHFeH6C2HC2H4NHC4HCH3CNH2SC2SCH4C4SH3CH5C3HC2H4SH4CNC9H15NH2C2HC2HC3H3C3HC2H4CSCHNH2C4HNC2FeS2FeS2FeSFeS3Fe2S3FeS2FeSHFeSFeCSH4C2HC2H2CHC6H4C6H4CSH2C9H3SFeHNH2CSCH8CNCHCSC2HNC9H13CHCNHCHC2SH3CH2CHCH3CHCHCH2CH2SH4CH2C2HCNHCHCHFeCHC2H3C4H6C3H2CH2C2H2CHSC3H2FeS2FeS2Fe2S3FeS2FeSFeHFeCS2CH2SCH2C3H2CNH2C2HCHC3HC6H4C2HC3HCH5C2SHCH3C3H5C3NCNSH2NC9H16NC3H2CHC3HCH4CH2CHC2HC2H3CH4CHC5H3CH9CSHC4HCFeS2FeS2FeSFeHS2CHFeSFeSFeSFeS2FeS2FeS2FeSFeS3HCHCHC3SHC2HCHC6H4CH2C3HC2H3C7H4C6H4C2HNC9H12NC8H16CH2CH4CH2CH2C2HC2HNSCH2CHNC2H2NH4CHCH2CH2C2HC2SHSH2CH4CHC5H3CH4CH3CHC2FeS2FeS2Fe2S3NFeS2FeS2FeHFeCS2FeSFeS2FeHFeHS3HC2H2CHC3H2CHCH2C6H5C3H4CH4C6H4C6HCH7CN2C9H14C2HC5HCNH3CH2C2H3C2HC3HCH3SCSHCH6CSCSHC3HC2H2CHCHCH4CNHCHCH4SH2CHCH2SC3HC2H2C2HCFeS2FeSHFeSFeS3HFeS2FeS2FeCFeHS2H6C4H4CH5C6H4C4HCH5C2H2C3H3C2SC2HCHC3H2C2H2C2HC3NHCH2NH2SC3NCHCHC3H3CH6C6H6CH2CH4SCHC2H4C3H3
_chemical_formula_sum              "C1920 Fe256 S512 H2304 N128"
_cell_length_a       61.3533
_cell_length_b       61.2481
_cell_length_c       82.302
_cell_angle_alpha    84.2982
_cell_angle_beta     84.3762
_cell_angle_gamma    86.2916

_space_group_name_H-M_alt    "P 1"
_space_group_IT_number       1

loop_
  _space_group_symop_operation_xyz
  'x, y, z'

loop_
  _atom_site_type_symbol
  _atom_site_label
  _atom_site_symmetry_multiplicity
  _atom_site_fract_x
  _atom_site_fract_y
  _atom_site_fract_z
  _atom_site_occupancy
  C   C1        1.0  0.10372  0.33043  0.19978  1.0000
  Fe  Fe1       1.0  0.07581  0.10546  0.07508  1.0000
  S   S1        1.0  0.07219  0.14215  0.06904  1.0000
  S   S2        1.0  0.10717  0.08530  0.07899  1.0000
  Fe  Fe2       1.0  0.02685  0.09983  0.08006  1.0000
  S   S3        1.0  0.01914  0.13590  0.07492  1.0000
  Fe  Fe3       1.0  0.04545  0.13371  0.05391  1.0000
  S   S4        1.0  0.03464  0.14765  0.02916  1.0000
  Fe  Fe4       1.0  0.04631  0.14103  0.09055  1.0000
  S   S5        1.0  0.03976  0.16164  0.11247  1.0000
  S   S6        1.0  0.05140  0.09720  0.05837  1.0000
  S   S7        1.0  0.05168  0.10478  0.09730  1.0000
  Fe  Fe5       1.0  0.11718  0.25253  0.19902  1.0000
  S   S8        1.0  0.09469  0.23832  0.22025  1.0000
  S   S9        1.0  0.13916  0.27710  0.20817  1.0000
  Fe  Fe6       1.0  0.10014  0.22138  0.17608  1.0000
  S   S10       1.0  0.07720  0.20508  0.19594  1.0000
  S   S11       1.0  0.10564  0.21123  0.14999  1.0000
  Fe  Fe7       1.0  0.06838  0.23935  0.20304  1.0000
  S   S12       1.0  0.03349  0.25479  0.20735  1.0000
  Fe  Fe8       1.0  0.10542  0.20541  0.21155  1.0000
  H   H1        1.0  0.00365  0.11524  0.00265  1.0000
  S   S13       1.0  0.08997  0.25594  0.18216  1.0000
  S   S14       1.0  0.12916  0.21920  0.19131  1.0000
  S   S15       1.0  0.20969  0.13249  0.23020  1.0000
  H   H2        1.0  0.06892  0.01771  0.09075  1.0000
  H   H3        1.0  0.12319  0.04057  0.08628  1.0000
  C   C2        1.0  0.04776  0.14152  0.00989  1.0000
  H   H4        1.0  0.10209  0.08592  0.13597  1.0000
  H   H5        1.0  0.04034  0.09414  0.02286  1.0000
  C   C3        1.0  0.20330  0.08163  0.20210  1.0000
  H   H6        1.0  0.01290  0.07426  0.03871  1.0000
  H   H7        1.0  0.16429  0.20788  0.22206  1.0000
  H   H8        1.0  0.07785  0.12766  0.01899  1.0000
  H   H9        1.0  0.25980  0.03424  0.23223  1.0000
  C   C4        1.0  0.17581  0.15600  0.21616  1.0000
  C   C5        1.0  0.15466  0.16633  0.21616  1.0000
  H   H10       1.0  0.18698  0.15748  0.20513  1.0000
  H   H11       1.0  0.14958  0.17560  0.20517  1.0000
  H   H12       1.0  0.08016  0.29843  0.22864  1.0000
  C   C6        1.0  0.45958  0.29490  0.20995  1.0000
  H   H13       1.0  0.15190  0.29663  0.17454  1.0000
  H   H14       1.0  0.01495  0.05104  0.02672  1.0000
  C   C7        1.0  0.48629  0.32661  0.07014  1.0000
  C   C8        1.0  0.16906  0.30816  0.21061  1.0000
  C   C9        1.0  0.15755  0.29773  0.19982  1.0000
  C   C10       1.0  0.06889  0.13145  0.00828  1.0000
  H   H15       1.0  0.43698  0.25975  0.21925  1.0000
  H   H16       1.0  0.21437  0.00872  0.07849  1.0000
  C   C11       1.0  0.05794  0.17642  0.12234  1.0000
  C   C12       1.0  0.07865  0.18184  0.11495  1.0000
  C   C13       1.0  0.09295  0.19258  0.12354  1.0000
  C   C14       1.0  0.08661  0.19846  0.13949  1.0000
  C   C15       1.0  0.06558  0.19378  0.14666  1.0000
  C   C16       1.0  0.05138  0.18279  0.13813  1.0000
  H   H17       1.0  0.08353  0.17800  0.10253  1.0000
  H   H18       1.0  0.10901  0.19647  0.11776  1.0000
  H   H19       1.0  0.06037  0.19837  0.15885  1.0000
  H   H20       1.0  0.03528  0.17900  0.14388  1.0000
  C   C17       1.0  0.11076  0.02578  0.04960  1.0000
  C   C18       1.0  0.10236  0.04616  0.04300  1.0000
  C   C19       1.0  0.10131  0.06448  0.05201  1.0000
  C   C20       1.0  0.10882  0.06249  0.06760  1.0000
  C   C21       1.0  0.11743  0.04214  0.07418  1.0000
  C   C22       1.0  0.11817  0.02370  0.06524  1.0000
  H   H21       1.0  0.09665  0.04778  0.03091  1.0000
  H   H22       1.0  0.09513  0.08027  0.04674  1.0000
  C   C23       1.0  0.20562  0.04359  0.21239  1.0000
  H   H23       1.0  0.19687  0.03156  0.07217  1.0000
  H   H24       1.0  0.06304  0.03031  0.06137  1.0000
  H   H25       1.0  0.14497  0.23073  0.22188  1.0000
  C   C24       1.0  0.06506  0.30848  0.18983  1.0000
  H   H26       1.0  0.45223  0.29233  0.18480  1.0000
  H   H27       1.0  0.40995  0.27285  0.22051  1.0000
  H   H28       1.0  0.15063  0.05795  0.03440  1.0000
  H   H29       1.0  0.02014  0.15452  0.99697  1.0000
  C   C25       1.0  0.17481  0.32130  0.17718  1.0000
  H   H30       1.0  0.18816  0.08020  0.19597  1.0000
  C   C26       1.0  0.42686  0.27418  0.21429  1.0000
  H   H31       1.0  0.04135  0.09838  0.00120  1.0000
  C   C27       1.0  0.16061  0.30437  0.18303  1.0000
  C   C28       1.0  0.18269  0.14414  0.23041  1.0000
  C   C29       1.0  0.25160  0.01897  0.23401  1.0000
  C   C30       1.0  0.17110  0.01052  0.01928  1.0000
  H   H32       1.0  0.07861  0.09995  0.12735  1.0000
  H   H33       1.0  0.09814  0.05976  0.00160  1.0000
  H   H34       1.0  0.17682  0.32640  0.16418  1.0000
  C   C31       1.0  0.47992  0.23775  0.23355  1.0000
  N   N1        1.0  0.20371  0.06640  0.21732  1.0000
  H   H35       1.0  0.03563  0.33210  0.20761  1.0000
  H   H36       1.0  0.22428  0.28322  0.21781  1.0000
  H   H37       1.0  0.22302  0.08751  0.22862  1.0000
  H   H38       1.0  0.03435  0.30375  0.21484  1.0000
  H   H39       1.0  0.05784  0.32272  0.18230  1.0000
  H   H40       1.0  0.17349  0.23512  0.21655  1.0000
  H   H41       1.0  0.16670  0.30342  0.22364  1.0000
  H   H42       1.0  0.08117  0.30370  0.18340  1.0000
  C   C32       1.0  0.16028  0.03118  0.01978  1.0000
  H   H43       1.0  0.10041  0.12274  0.09692  1.0000
  C   C33       1.0  0.18344  0.32493  0.20474  1.0000
  H   H44       1.0  0.31489  0.23837  0.22565  1.0000
  C   C34       1.0  0.04449  0.31833  0.21454  1.0000
  H   H45       1.0  0.19027  0.03931  0.20758  1.0000
  C   C35       1.0  0.07864  0.12678  0.99268  1.0000
  H   H46       1.0  0.05442  0.29439  0.18975  1.0000
  C   C36       1.0  0.22355  0.07037  0.22521  1.0000
  H   H47       1.0  0.11110  0.02061  0.00122  1.0000
  C   C37       1.0  0.18420  0.06949  0.22915  1.0000
  C   C38       1.0  0.42349  0.31367  0.20890  1.0000
  H   H48       1.0  0.16759  0.04113  0.05844  1.0000
  H   H49       1.0  0.00897  0.19152  0.21850  1.0000
  C   C39       1.0  0.48667  0.29287  0.18596  1.0000
  H   H50       1.0  0.20439  0.09906  0.20467  1.0000
  H   H51       1.0  0.23884  0.06761  0.21705  1.0000
  H   H52       1.0  0.31508  0.29803  0.23104  1.0000
  C   C40       1.0  0.03640  0.14654  0.99584  1.0000
  H   H53       1.0  0.12461  0.00798  0.07036  1.0000
  C   C41       1.0  0.16948  0.03235  0.04759  1.0000
  H   H54       1.0  0.04470  0.32203  0.22750  1.0000
  H   H55       1.0  0.09856  0.08623  0.11447  1.0000
  H   H56       1.0  0.49042  0.29154  0.17292  1.0000
  H   H57       1.0  0.06579  0.28054  0.21790  1.0000
  H   H58       1.0  0.15200  0.03850  0.00937  1.0000
  N   N2        1.0  0.01264  0.08246  0.01255  1.0000
  C   C42       1.0  0.49668  0.31717  0.08366  1.0000
  H   H59       1.0  0.04068  0.02486  0.09614  1.0000
  H   H60       1.0  0.32077  0.27783  0.21674  1.0000
  H   H61       1.0  0.00718  0.02492  0.08596  1.0000
  C   C43       1.0  0.07681  0.29450  0.21623  1.0000
  H   H62       1.0  0.42581  0.27240  0.20110  1.0000
  C   C44       1.0  0.15959  0.04213  0.03388  1.0000
  C   C45       1.0  0.27168  0.29125  0.23407  1.0000
  C   C46       1.0  0.28215  0.26985  0.23418  1.0000
  C   C47       1.0  0.18081  0.01138  0.04749  1.0000
  H   H63       1.0  0.03502  0.03699  0.06765  1.0000
  H   H64       1.0  0.04677  0.07108  0.01101  1.0000
  C   C48       1.0  0.46489  0.29338  0.19289  1.0000
  H   H65       1.0  0.20914  0.03110  0.22269  1.0000
  H   H66       1.0  0.21945  0.04115  0.20280  1.0000
  C   C49       1.0  0.10758  0.12866  0.13663  1.0000
  C   C50       1.0  0.08690  0.13350  0.14525  1.0000
  C   C51       1.0  0.12622  0.13700  0.14241  1.0000
  C   C52       1.0  0.08512  0.14505  0.15918  1.0000
  C   C53       1.0  0.12415  0.14899  0.15616  1.0000
  C   C54       1.0  0.10368  0.15289  0.16457  1.0000
  H   H67       1.0  0.14028  0.09964  0.12551  1.0000
  H   H68       1.0  0.14250  0.13500  0.13632  1.0000
  H   H69       1.0  0.06910  0.14892  0.16535  1.0000
  H   H70       1.0  0.13839  0.15589  0.16008  1.0000
  H   H71       1.0  0.10209  0.16278  0.17489  1.0000
  N   N3        1.0  0.43638  0.29504  0.21699  1.0000
  C   C55       1.0  0.16909  0.08806  0.22767  1.0000
  H   H72       1.0  0.40614  0.31475  0.21446  1.0000
  C   C56       1.0  0.18635  0.33172  0.18796  1.0000
  H   H73       1.0  0.11059  0.31530  0.19513  1.0000
  C   C57       1.0  0.31987  0.28043  0.22998  1.0000
  H   H74       1.0  0.14160  0.12423  0.11125  1.0000
  C   C58       1.0  0.04659  0.02333  0.06373  1.0000
  C   C59       1.0  0.13184  0.10979  0.11578  1.0000
  H   H75       1.0  0.07180  0.12916  0.14095  1.0000
  N   N4        1.0  0.10901  0.11658  0.12180  1.0000
  H   H76       1.0  0.09519  0.11950  0.99146  1.0000
  C   C60       1.0  0.25476  0.00397  0.22184  1.0000
  H   H77       1.0  0.10821  0.14637  0.10571  1.0000
  S   S16       1.0  0.11423  0.17890  0.23138  1.0000
  C   C61       1.0  0.00594  0.00796  0.08370  1.0000
  H   H78       1.0  0.13221  0.09981  0.10511  1.0000
  C   C62       1.0  0.09944  0.13090  0.10846  1.0000
  S   S17       1.0  0.00242  0.07362  0.08601  1.0000
  C   C63       1.0  0.09657  0.09633  0.12512  1.0000
  H   H79       1.0  0.08183  0.13554  0.11168  1.0000
  H   H80       1.0  0.33677  0.27786  0.23399  1.0000
  H   H81       1.0  0.47522  0.29635  0.23275  1.0000
  C   C64       1.0  0.14026  0.16480  0.23044  1.0000
  C   C65       1.0  0.43356  0.29731  0.23488  1.0000
  C   C66       1.0  0.47745  0.29577  0.21962  1.0000
  C   C67       1.0  0.01220  0.24575  0.22235  1.0000
  C   C68       1.0  0.00664  0.07253  0.99802  1.0000
  H   H82       1.0  0.42270  0.31221  0.19563  1.0000
  H   H83       1.0  0.04188  0.01868  0.05187  1.0000
  C   C69       1.0  0.16181  0.22520  0.22500  1.0000
  H   H84       1.0  0.21761  0.07818  0.19313  1.0000
  H   H85       1.0  0.17102  0.10106  0.21786  1.0000
  C   C70       1.0  0.03633  0.08654  0.01183  1.0000
  C   C71       1.0  0.00720  0.06784  0.02773  1.0000
  C   C72       1.0  0.05216  0.01134  0.09189  1.0000
  N   N5        1.0  0.06705  0.31396  0.20676  1.0000
  C   C73       1.0  0.49916  0.29535  0.21253  1.0000
  N   N6        1.0  0.04669  0.00406  0.07618  1.0000
  H   H86       1.0  0.47367  0.22903  0.22434  1.0000
  H   H87       1.0  0.16342  0.01151  0.07907  1.0000
  H   H88       1.0  0.09251  0.28818  0.21006  1.0000
  C   C74       1.0  0.08142  0.33261  0.20621  1.0000
  C   C75       1.0  0.49641  0.32489  0.05438  1.0000
  H   H89       1.0  0.24109  0.24530  0.21831  1.0000
  C   C76       1.0  0.24970  0.25812  0.22275  1.0000
  C   C77       1.0  0.20570  0.01647  0.06791  1.0000
  H   H90       1.0  0.21834  0.02161  0.05785  1.0000
  H   H91       1.0  0.00443  0.11219  0.02449  1.0000
  C   C78       1.0  0.24014  0.27942  0.22251  1.0000
  H   H92       1.0  0.01801  0.21030  0.19095  1.0000
  H   H93       1.0  0.43069  0.32960  0.21009  1.0000
  H   H94       1.0  0.27681  0.23646  0.22833  1.0000
  C   C79       1.0  0.25109  0.29593  0.22824  1.0000
  H   H95       1.0  0.24374  0.31257  0.22803  1.0000
  C   C80       1.0  0.27037  0.25327  0.22853  1.0000
  C   C81       1.0  0.10851  0.03052  0.98979  1.0000
  C   C82       1.0  0.10113  0.05250  0.99006  1.0000
  H   H96       1.0  0.19200  0.33284  0.21323  1.0000
  H   H97       1.0  0.48860  0.33274  0.04387  1.0000
  H   H98       1.0  0.26519  0.00808  0.21072  1.0000
  H   H99       1.0  0.23705  0.33575  0.12836  1.0000
  S   S18       1.0  0.11182  0.00330  0.03796  1.0000
  H   H100      1.0  0.48887  0.31888  0.09591  1.0000
  H   H101      1.0  0.47057  0.33565  0.07188  1.0000
  C   C83       1.0  0.50189  0.24385  0.23141  1.0000
  C   C84       1.0  0.01624  0.23004  0.23540  1.0000
  Fe  Fe9       1.0  0.12068  0.02009  0.42053  1.0000
  S   S19       1.0  0.14593  0.04126  0.42778  1.0000
  Fe  Fe10      1.0  0.09424  0.05933  0.40516  1.0000
  S   S20       1.0  0.11730  0.08384  0.41116  1.0000
  S   S21       1.0  0.06414  0.06478  0.39130  1.0000
  Fe  Fe11      1.0  0.14405  0.05931  0.40247  1.0000
  S   S22       1.0  0.17560  0.06344  0.38540  1.0000
  Fe  Fe12      1.0  0.11721  0.06367  0.43586  1.0000
  S   S23       1.0  0.10617  0.07507  0.46107  1.0000
  S   S24       1.0  0.12075  0.03629  0.39502  1.0000
  S   S25       1.0  0.09218  0.04104  0.43007  1.0000
  Fe  Fe13      1.0  0.40926  0.24669  0.26624  1.0000
  S   S26       1.0  0.39219  0.23094  0.28969  1.0000
  S   S27       1.0  0.43874  0.23392  0.24988  1.0000
  Fe  Fe14      1.0  0.37488  0.28483  0.26430  1.0000
  S   S28       1.0  0.35565  0.27281  0.28782  1.0000
  C   C85       1.0  0.15880  0.25112  0.24512  1.0000
  Fe  Fe15      1.0  0.38881  0.26560  0.29763  1.0000
  S   S29       1.0  0.40013  0.27019  0.32284  1.0000
  Fe  Fe16      1.0  0.36005  0.23903  0.27838  1.0000
  S   S30       1.0  0.32787  0.22150  0.27712  1.0000
  S   S31       1.0  0.40760  0.28039  0.27474  1.0000
  S   S32       1.0  0.37756  0.25201  0.25438  1.0000
  Fe  Fe17      1.0  0.23607  0.06889  0.26764  1.0000
  S   S33       1.0  0.20309  0.08736  0.26796  1.0000
  Fe  Fe18      1.0  0.25830  0.11089  0.27571  1.0000
  S   S34       1.0  0.22649  0.13121  0.27607  1.0000
  S   S35       1.0  0.29026  0.12481  0.28197  1.0000
  Fe  Fe19      1.0  0.21168  0.10156  0.29051  1.0000
  S   S36       1.0  0.18540  0.10749  0.31153  1.0000
  Fe  Fe20      1.0  0.22088  0.11488  0.25372  1.0000
  S   S37       1.0  0.24371  0.08169  0.29132  1.0000
  C   C86       1.0  0.13912  0.04820  0.34695  1.0000
  C   C87       1.0  0.13593  0.01022  0.36015  1.0000
  H   H102      1.0  0.27794  0.14463  0.32012  1.0000
  H   H103      1.0  0.09665  0.03483  0.48306  1.0000
  C   C88       1.0  0.45422  0.32539  0.32864  1.0000
  H   H104      1.0  0.15684  0.04608  0.34263  1.0000
  C   C89       1.0  0.40030  0.29351  0.33426  1.0000
  C   C90       1.0  0.41057  0.29121  0.34897  1.0000
  C   C91       1.0  0.41183  0.30928  0.35818  1.0000
  H   H105      1.0  0.38322  0.31629  0.31766  1.0000
  H   H106      1.0  0.32025  0.26739  0.26195  1.0000
  C   C92       1.0  0.39119  0.31420  0.32891  1.0000
  H   H107      1.0  0.41754  0.27529  0.35335  1.0000
  H   H108      1.0  0.41975  0.30717  0.36945  1.0000
  H   H109      1.0  0.13213  0.06123  0.33821  1.0000
  C   C93       1.0  0.39206  0.33219  0.33830  1.0000
  H   H110      1.0  0.13121  0.21945  0.25054  1.0000
  H   H111      1.0  0.13760  0.05488  0.35915  1.0000
  C   C94       1.0  0.47437  0.25396  0.25933  1.0000
  C   C95       1.0  0.32616  0.32309  0.25717  1.0000
  H   H112      1.0  0.46395  0.25773  0.27018  1.0000
  C   C96       1.0  0.31799  0.19435  0.27829  1.0000
  C   C97       1.0  0.33113  0.17532  0.28209  1.0000
  C   C98       1.0  0.32238  0.15433  0.28307  1.0000
  C   C99       1.0  0.30046  0.15188  0.28009  1.0000
  C   C100      1.0  0.28732  0.17090  0.27621  1.0000
  C   C101      1.0  0.29600  0.19192  0.27539  1.0000
  H   H113      1.0  0.34801  0.17674  0.28439  1.0000
  H   H114      1.0  0.33276  0.13983  0.28610  1.0000
  H   H115      1.0  0.27042  0.16942  0.27400  1.0000
  H   H116      1.0  0.28555  0.20642  0.27258  1.0000
  H   H117      1.0  0.23254  0.07881  0.38032  1.0000
  H   H118      1.0  0.24646  0.19833  0.25582  1.0000
  H   H119      1.0  0.17333  0.13311  0.25564  1.0000
  H   H120      1.0  0.27759  0.13942  0.34208  1.0000
  H   H121      1.0  0.09777  0.04675  0.34341  1.0000
  H   H122      1.0  0.15039  0.19662  0.25077  1.0000
  C   C102      1.0  0.49646  0.25963  0.25735  1.0000
  C   C103      1.0  0.20979  0.12790  0.36589  1.0000
  S   S38       1.0  0.23402  0.03190  0.26468  1.0000
  H   H123      1.0  0.33001  0.31343  0.26836  1.0000
  H   H124      1.0  0.19782  0.25123  0.25311  1.0000
  C   C104      1.0  0.17754  0.07514  0.36471  1.0000
  C   C105      1.0  0.19532  0.06849  0.35382  1.0000
  C   C106      1.0  0.19793  0.07803  0.33747  1.0000
  C   C107      1.0  0.18280  0.09446  0.33186  1.0000
  C   C108      1.0  0.16496  0.10099  0.34272  1.0000
  C   C109      1.0  0.16232  0.09141  0.35904  1.0000
  H   H125      1.0  0.20724  0.05599  0.35810  1.0000
  H   H126      1.0  0.21170  0.07277  0.32926  1.0000
  H   H127      1.0  0.15319  0.11372  0.33852  1.0000
  H   H128      1.0  0.14868  0.09686  0.36730  1.0000
  C   C110      1.0  0.04572  0.08649  0.39708  1.0000
  C   C111      1.0  0.02435  0.08776  0.39224  1.0000
  H   H129      1.0  0.23430  0.23711  0.25917  1.0000
  H   H130      1.0  0.00604  0.11286  0.44265  1.0000
  C   C112      1.0  0.03737  0.12025  0.41020  1.0000
  C   C113      1.0  0.05213  0.10264  0.40623  1.0000
  H   H131      1.0  0.09361  0.01892  0.35068  1.0000
  C   C114      1.0  0.01469  0.00485  0.40446  1.0000
  H   H132      1.0  0.04254  0.13293  0.41701  1.0000
  H   H133      1.0  0.06860  0.10180  0.40998  1.0000
  C   C115      1.0  0.12056  0.07400  0.47883  1.0000
  C   C116      1.0  0.10398  0.03280  0.35176  1.0000
  H   H134      1.0  0.45768  0.25841  0.31191  1.0000
  H   H135      1.0  0.01937  0.07540  0.38506  1.0000
  H   H136      1.0  0.44841  0.28838  0.29254  1.0000
  C   C117      1.0  0.16818  0.14228  0.24460  1.0000
  C   C118      1.0  0.44939  0.29967  0.30222  1.0000
  H   H137      1.0  0.49620  0.28757  0.33661  1.0000
  S   S39       1.0  0.25373  0.09608  0.25221  1.0000
  N   N7        1.0  0.46648  0.29176  0.31337  1.0000
  H   H138      1.0  0.18447  0.18662  0.24006  1.0000
  C   C119      1.0  0.14845  0.21425  0.25296  1.0000
  H   H139      1.0  0.15302  0.07136  0.46640  1.0000
  H   H140      1.0  0.16041  0.04554  0.26555  1.0000
  H   H141      1.0  0.29254  0.33076  0.26607  1.0000
  H   H142      1.0  0.28334  0.10000  0.33700  1.0000
  H   H143      1.0  0.20202  0.10540  0.38717  1.0000
  H   H144      1.0  0.28115  0.10641  0.31563  1.0000
  C   C120      1.0  0.24110  0.11678  0.34692  1.0000
  C   C121      1.0  0.22321  0.22627  0.25493  1.0000
  C   C122      1.0  0.23848  0.01382  0.24864  1.0000
  C   C123      1.0  0.24090  0.12456  0.31747  1.0000
  C   C124      1.0  0.46605  0.24270  0.24752  1.0000
  H   H145      1.0  0.14167  0.25610  0.24229  1.0000
  C   C125      1.0  0.01006  0.11648  0.45501  1.0000
  H   H146      1.0  0.23046  0.11040  0.31741  1.0000
  H   H147      1.0  0.44154  0.28307  0.24194  1.0000
  C   C126      1.0  0.18052  0.05429  0.24322  1.0000
  H   H148      1.0  0.48625  0.27931  0.29277  1.0000
  C   C127      1.0  0.19482  0.19815  0.24419  1.0000
  H   H149      1.0  0.49301  0.30594  0.29763  1.0000
  C   C128      1.0  0.22362  0.13196  0.35151  1.0000
  C   C129      1.0  0.30496  0.33294  0.25585  1.0000
  C   C130      1.0  0.46076  0.26972  0.32114  1.0000
  H   H150      1.0  0.02077  0.13068  0.45287  1.0000
  H   H151      1.0  0.29275  0.25867  0.26530  1.0000
  C   C131      1.0  0.31350  0.24274  0.23853  1.0000
  S   S40       1.0  0.36883  0.31305  0.24500  1.0000
  H   H152      1.0  0.39278  0.32003  0.46575  1.0000
  H   H153      1.0  0.40548  0.28471  0.47987  1.0000
  H   H154      1.0  0.01967  0.10173  0.46002  1.0000
  H   H155      1.0  0.45269  0.31621  0.29593  1.0000
  C   C132      1.0  0.23012  0.20445  0.25305  1.0000
  H   H156      1.0  0.30348  0.23062  0.24648  1.0000
  C   C133      1.0  0.00937  0.10495  0.39667  1.0000
  C   C134      1.0  0.27132  0.10283  0.32763  1.0000
  H   H157      1.0  0.22130  0.17343  0.24612  1.0000
  H   H158      1.0  0.19609  0.13934  0.36888  1.0000
  C   C135      1.0  0.16254  0.05718  0.25478  1.0000
  H   H159      1.0  0.01071  0.19174  0.35533  1.0000
  C   C136      1.0  0.48760  0.28956  0.30304  1.0000
  N   N8        1.0  0.25495  0.12109  0.33127  1.0000
  C   C137      1.0  0.14697  0.15245  0.24456  1.0000
  H   H160      1.0  0.13587  0.15113  0.25564  1.0000
  H   H161      1.0  0.15015  0.21529  0.26619  1.0000
  H   H162      1.0  0.25589  0.15600  0.33306  1.0000
  H   H163      1.0  0.25695  0.08502  0.35549  1.0000
  H   H164      1.0  0.25089  0.12658  0.30543  1.0000
  C   C138      1.0  0.24424  0.09760  0.35789  1.0000
  H   H165      1.0  0.44553  0.27085  0.32961  1.0000
  H   H166      1.0  0.22969  0.13949  0.31799  1.0000
  C   C139      1.0  0.18713  0.22020  0.24604  1.0000
  H   H167      1.0  0.26319  0.08729  0.32677  1.0000
  C   C140      1.0  0.26708  0.14116  0.33168  1.0000
  C   C141      1.0  0.46854  0.30651  0.32631  1.0000
  H   H168      1.0  0.44974  0.32964  0.47820  1.0000
  C   C142      1.0  0.23041  0.09383  0.37234  1.0000
  H   H169      1.0  0.29782  0.28704  0.25942  1.0000
  H   H170      1.0  0.22024  0.14691  0.34384  1.0000
  C   C143      1.0  0.21315  0.10885  0.37626  1.0000
  H   H171      1.0  0.22506  0.05946  0.23668  1.0000
  C   C144      1.0  0.01596  0.12139  0.40547  1.0000
  C   C145      1.0  0.34232  0.32589  0.24405  1.0000
  C   C146      1.0  0.13114  0.01901  0.33144  1.0000
  H   H172      1.0  0.13250  0.02749  0.46858  1.0000
  C   C147      1.0  0.09175  0.01914  0.47916  1.0000
  C   C148      1.0  0.21596  0.19044  0.24763  1.0000
  C   C149      1.0  0.30369  0.26994  0.25734  1.0000
  H   H173      1.0  0.10055  0.03770  0.36449  1.0000
  C   C150      1.0  0.48745  0.31563  0.34957  1.0000
  H   H174      1.0  0.16478  0.02662  0.36595  1.0000
  C   C151      1.0  0.40240  0.32988  0.35297  1.0000
  C   C152      1.0  0.14347  0.07215  0.47811  1.0000
  H   H175      1.0  0.15990  0.25421  0.25810  1.0000
  H   H176      1.0  0.43277  0.30041  0.30893  1.0000
  N   N9        1.0  0.12778  0.02735  0.34783  1.0000
  C   C153      1.0  0.48508  0.30192  0.33730  1.0000
  H   H177      1.0  0.03035  0.12103  0.47993  1.0000
  H   H178      1.0  0.12559  0.03151  0.32171  1.0000
  C   C154      1.0  0.15501  0.01239  0.36829  1.0000
  N   N10       1.0  0.30436  0.26563  0.23987  1.0000
  H   H179      1.0  0.44018  0.31278  0.23785  1.0000
  C   C155      1.0  0.20207  0.23417  0.25144  1.0000
  H   H180      1.0  0.08562  0.02328  0.46686  1.0000
  H   H181      1.0  0.33029  0.24030  0.24275  1.0000
  N   N11       1.0  0.16453  0.22773  0.24240  1.0000
  C   C156      1.0  0.39370  0.31849  0.47892  1.0000
  H   H182      1.0  0.44062  0.32986  0.32137  1.0000
  H   H183      1.0  0.02611  0.03768  0.40272  1.0000
  C   C157      1.0  0.01190  0.02771  0.40442  1.0000
  H   H184      1.0  0.12198  0.00403  0.33093  1.0000
  H   H185      1.0  0.19199  0.04048  0.24578  1.0000
  H   H186      1.0  0.12321  0.01206  0.45384  1.0000
  H   H187      1.0  0.41591  0.29783  0.23966  1.0000
  H   H188      1.0  0.47384  0.26162  0.32843  1.0000
  H   H189      1.0  0.13425  0.07784  0.26198  1.0000
  C   C158      1.0  0.12808  0.01069  0.46659  1.0000
  H   H190      1.0  0.00233  0.21146  0.25721  1.0000
  H   H191      1.0  0.16946  0.26236  0.23687  1.0000
  C   C159      1.0  0.14790  0.07539  0.25283  1.0000
  C   C160      1.0  0.47334  0.33413  0.35136  1.0000
  H   H192      1.0  0.14883  0.01459  0.32816  1.0000
  H   H193      1.0  0.49838  0.16805  0.27474  1.0000
  H   H194      1.0  0.27940  0.30470  0.23836  1.0000
  H   H195      1.0  0.50017  0.31192  0.35786  1.0000
  H   H196      1.0  0.14009  0.10527  0.23806  1.0000
  C   C161      1.0  0.15119  0.09080  0.23932  1.0000
  H   H197      1.0  0.50101  0.28147  0.30999  1.0000
  H   H198      1.0  0.00230  0.18891  0.37677  1.0000
  H   H199      1.0  0.03269  0.22289  0.23648  1.0000
  H   H200      1.0  0.50144  0.20327  0.25737  1.0000
  Fe  Fe21      1.0  0.14025  0.06399  0.55136  1.0000
  S   S41       1.0  0.11607  0.03772  0.55428  1.0000
  S   S42       1.0  0.15585  0.07409  0.52572  1.0000
  Fe  Fe22      1.0  0.14141  0.06528  0.58875  1.0000
  S   S43       1.0  0.11755  0.03848  0.59392  1.0000
  S   S44       1.0  0.14723  0.07894  0.61283  1.0000
  Fe  Fe23      1.0  0.13666  0.02201  0.57363  1.0000
  Fe  Fe24      1.0  0.09900  0.05661  0.57420  1.0000
  S   S45       1.0  0.06227  0.05667  0.57944  1.0000
  S   S46       1.0  0.16229  0.04699  0.56981  1.0000
  S   S47       1.0  0.12136  0.08464  0.56996  1.0000
  C   C162      1.0  0.09497  0.13996  0.65705  1.0000
  H   H201      1.0  0.25365  0.01505  0.68718  1.0000
  H   H202      1.0  0.22497  0.06137  0.66571  1.0000
  C   C163      1.0  0.06432  0.28974  0.73011  1.0000
  H   H203      1.0  0.03174  0.02671  0.54021  1.0000
  H   H204      1.0  0.04329  0.10836  0.62139  1.0000
  Fe  Fe25      1.0  0.38320  0.27239  0.71449  1.0000
  S   S48       1.0  0.36749  0.26697  0.69179  1.0000
  Fe  Fe26      1.0  0.42895  0.25255  0.70216  1.0000
  S   S49       1.0  0.41581  0.24482  0.67867  1.0000
  Fe  Fe27      1.0  0.39887  0.27855  0.67789  1.0000
  S   S50       1.0  0.40092  0.30836  0.65888  1.0000
  Fe  Fe28      1.0  0.38527  0.23354  0.69446  1.0000
  S   S51       1.0  0.36997  0.20041  0.69290  1.0000
  S   S52       1.0  0.41296  0.28652  0.70063  1.0000
  Fe  Fe29      1.0  0.22956  0.10622  0.67589  1.0000
  S   S53       1.0  0.21225  0.08518  0.69635  1.0000
  S   S54       1.0  0.22917  0.10408  0.64835  1.0000
  Fe  Fe30      1.0  0.25539  0.12929  0.69944  1.0000
  S   S55       1.0  0.23999  0.10924  0.72187  1.0000
  S   S56       1.0  0.27440  0.16103  0.69817  1.0000
  Fe  Fe31      1.0  0.24476  0.07977  0.70689  1.0000
  S   S57       1.0  0.25944  0.04453  0.71171  1.0000
  Fe  Fe32      1.0  0.20838  0.11570  0.70989  1.0000
  S   S58       1.0  0.17447  0.12380  0.72219  1.0000
  S   S59       1.0  0.26263  0.09938  0.68552  1.0000
  S   S60       1.0  0.22310  0.13715  0.68848  1.0000
  H   H205      1.0  0.30064  0.32014  0.71182  1.0000
  C   C164      1.0  0.00582  0.00494  0.56354  1.0000
  H   H206      1.0  0.05046  0.13297  0.60820  1.0000
  C   C165      1.0  0.01593  0.12569  0.48771  1.0000
  C   C166      1.0  0.01098  0.24154  0.72999  1.0000
  H   H207      1.0  0.33647  0.33400  0.69219  1.0000
  S   S61       1.0  0.00357  0.14428  0.56789  1.0000
  H   H208      1.0  0.07413  0.29151  0.71800  1.0000
  H   H209      1.0  0.12742  0.12582  0.65113  1.0000
  H   H210      1.0  0.20613  0.28014  0.72643  1.0000
  H   H211      1.0  0.02669  0.02405  0.58535  1.0000
  C   C167      1.0  0.40832  0.31002  0.63740  1.0000
  C   C168      1.0  0.40976  0.29161  0.62846  1.0000
  C   C169      1.0  0.41494  0.29404  0.61129  1.0000
  C   C170      1.0  0.41893  0.31480  0.60295  1.0000
  C   C171      1.0  0.18781  0.02969  0.63900  1.0000
  H   H212      1.0  0.40910  0.28123  0.50934  1.0000
  H   H213      1.0  0.40652  0.27560  0.63469  1.0000
  N   N12       1.0  0.02978  0.00698  0.56344  1.0000
  C   C172      1.0  0.49102  0.32571  0.64251  1.0000
  H   H214      1.0  0.13074  0.03062  0.49527  1.0000
  H   H215      1.0  0.43687  0.31566  0.52514  1.0000
  H   H216      1.0  0.24723  0.05214  0.67740  1.0000
  C   C173      1.0  0.34313  0.18990  0.69490  1.0000
  C   C174      1.0  0.34110  0.16696  0.69656  1.0000
  C   C175      1.0  0.32035  0.15779  0.69767  1.0000
  C   C176      1.0  0.30119  0.17145  0.69711  1.0000
  C   C177      1.0  0.30321  0.19440  0.69541  1.0000
  C   C178      1.0  0.32397  0.20356  0.69423  1.0000
  H   H217      1.0  0.35575  0.15615  0.69694  1.0000
  H   H218      1.0  0.31921  0.14014  0.69896  1.0000
  H   H219      1.0  0.28859  0.20518  0.69469  1.0000
  H   H220      1.0  0.32516  0.22115  0.69228  1.0000
  C   C179      1.0  0.07355  0.14279  0.65261  1.0000
  H   H221      1.0  0.44608  0.31251  0.66682  1.0000
  H   H222      1.0  0.32395  0.24285  0.71477  1.0000
  H   H223      1.0  0.46876  0.26337  0.64631  1.0000
  H   H224      1.0  0.05106  0.10702  0.60017  1.0000
  H   H225      1.0  0.38908  0.29578  0.55327  1.0000
  H   H226      1.0  0.45819  0.29426  0.68236  1.0000
  H   H227      1.0  0.41579  0.27977  0.60444  1.0000
  H   H228      1.0  0.05090  0.13650  0.63610  1.0000
  C   C180      1.0  0.03497  0.00908  0.58040  1.0000
  C   C181      1.0  0.11071  0.12794  0.64773  1.0000
  C   C182      1.0  0.38702  0.29741  0.53986  1.0000
  H   H229      1.0  0.46638  0.31605  0.60237  1.0000
  S   S62       1.0  0.39986  0.23866  0.71795  1.0000
  C   C183      1.0  0.10842  0.07521  0.49416  1.0000
  H   H230      1.0  0.14381  0.02444  0.52238  1.0000
  C   C184      1.0  0.12842  0.01476  0.50196  1.0000
  C   C185      1.0  0.17054  0.08533  0.62238  1.0000
  C   C186      1.0  0.19164  0.08563  0.61423  1.0000
  C   C187      1.0  0.20942  0.09130  0.62236  1.0000
  C   C188      1.0  0.20638  0.09644  0.63876  1.0000
  C   C189      1.0  0.18535  0.09575  0.64699  1.0000
  C   C190      1.0  0.16756  0.09031  0.63882  1.0000
  H   H231      1.0  0.19422  0.08178  0.60161  1.0000
  H   H232      1.0  0.22561  0.09175  0.61587  1.0000
  H   H233      1.0  0.18271  0.09969  0.65959  1.0000
  H   H234      1.0  0.15136  0.08993  0.64530  1.0000
  C   C191      1.0  0.04616  0.08079  0.57487  1.0000
  C   C192      1.0  0.05551  0.09994  0.56744  1.0000
  C   C193      1.0  0.04231  0.11944  0.56521  1.0000
  C   C194      1.0  0.01973  0.11964  0.57003  1.0000
  H   H235      1.0  0.45856  0.29116  0.62668  1.0000
  C   C195      1.0  0.02356  0.08095  0.57949  1.0000
  H   H236      1.0  0.07289  0.09982  0.56362  1.0000
  H   H237      1.0  0.04957  0.13438  0.55971  1.0000
  H   H238      1.0  0.17263  0.26708  0.73461  1.0000
  C   C196      1.0  0.39817  0.33438  0.53830  1.0000
  C   C197      1.0  0.14192  0.07331  0.50791  1.0000
  H   H239      1.0  0.42858  0.28804  0.52990  1.0000
  H   H240      1.0  0.10947  0.07560  0.52035  1.0000
  H   H241      1.0  0.36877  0.32502  0.70929  1.0000
  H   H242      1.0  0.19392  0.04996  0.65738  1.0000
  C   C198      1.0  0.19879  0.03467  0.65217  1.0000
  H   H243      1.0  0.09999  0.08207  0.61803  1.0000
  C   C199      1.0  0.41244  0.33071  0.62905  1.0000
  H   H244      1.0  0.25804  0.00798  0.66659  1.0000
  H   H245      1.0  0.38994  0.28068  0.53567  1.0000
  C   C200      1.0  0.41782  0.33310  0.61195  1.0000
  C   C201      1.0  0.48145  0.23592  0.73302  1.0000
  H   H246      1.0  0.47149  0.31845  0.67416  1.0000
  H   H247      1.0  0.20292  0.15273  0.73520  1.0000
  H   H248      1.0  0.09013  0.13808  0.59820  1.0000
  N   N13       1.0  0.47393  0.29253  0.65787  1.0000
  H   H249      1.0  0.49267  0.27121  0.67458  1.0000
  H   H250      1.0  0.04915  0.28181  0.72807  1.0000
  H   H251      1.0  0.21973  0.03221  0.69759  1.0000
  H   H252      1.0  0.28832  0.24726  0.72844  1.0000
  H   H253      1.0  0.09070  0.07675  0.49484  1.0000
  C   C202      1.0  0.21581  0.02034  0.65838  1.0000
  H   H254      1.0  0.19854  0.04142  0.68480  1.0000
  C   C203      1.0  0.46909  0.30431  0.62775  1.0000
  S   S63       1.0  0.46632  0.25407  0.70316  1.0000
  C   C204      1.0  0.15408  0.07212  0.49258  1.0000
  C   C205      1.0  0.21151  0.02817  0.68685  1.0000
  H   H255      1.0  0.06137  0.15226  0.65987  1.0000
  H   H256      1.0  0.07282  0.07945  0.62797  1.0000
  H   H257      1.0  0.33411  0.29516  0.71288  1.0000
  H   H258      1.0  0.08731  0.11359  0.58843  1.0000
  S   S64       1.0  0.42524  0.31731  0.58132  1.0000
  H   H259      1.0  0.02987  0.31779  0.72519  1.0000
  C   C206      1.0  0.24956  0.02111  0.72429  1.0000
  C   C207      1.0  0.39852  0.31527  0.51307  1.0000
  H   H260      1.0  0.08928  0.32380  0.72423  1.0000
  H   H261      1.0  0.07784  0.01350  0.48793  1.0000
  H   H262      1.0  0.34879  0.22688  0.71838  1.0000
  C   C208      1.0  0.03691  0.02676  0.55279  1.0000
  C   C209      1.0  0.04546  0.32544  0.72662  1.0000
  H   H263      1.0  0.22854  0.31206  0.71993  1.0000
  C   C210      1.0  0.46195  0.30504  0.67083  1.0000
  C   C211      1.0  0.10508  0.11864  0.63399  1.0000
  C   C212      1.0  0.40327  0.29695  0.50374  1.0000
  H   H264      1.0  0.07804  0.07859  0.60613  1.0000
  H   H265      1.0  0.03034  0.04236  0.55770  1.0000
  N   N14       1.0  0.22737  0.02622  0.67218  1.0000
  C   C213      1.0  0.16905  0.14678  0.73363  1.0000
  H   H266      1.0  0.13398  0.14503  0.73439  1.0000
  H   H267      1.0  0.05508  0.02787  0.55180  1.0000
  H   H268      1.0  0.18497  0.00675  0.62130  1.0000
  C   C214      1.0  0.47342  0.31859  0.61360  1.0000
  H   H269      1.0  0.40151  0.33249  0.55147  1.0000
  C   C215      1.0  0.22348  0.30666  0.73261  1.0000
  C   C216      1.0  0.11901  0.07452  0.50865  1.0000
  H   H270      1.0  0.17497  0.04097  0.63439  1.0000
  C   C217      1.0  0.23743  0.04763  0.66764  1.0000
  H   H271      1.0  0.11790  0.10956  0.62714  1.0000
  N   N15       1.0  0.40207  0.31328  0.53073  1.0000
  C   C218      1.0  0.47794  0.30736  0.64266  1.0000
  H   H272      1.0  0.09941  0.14715  0.66771  1.0000
  H   H273      1.0  0.24848  0.04735  0.65609  1.0000
  H   H274      1.0  0.10957  0.11495  0.60055  1.0000
  C   C219      1.0  0.31069  0.31999  0.72192  1.0000
  H   H275      1.0  0.20326  0.01254  0.69049  1.0000
  H   H276      1.0  0.02208  0.24104  0.71897  1.0000
  H   H277      1.0  0.05291  0.01040  0.58100  1.0000
  C   C220      1.0  0.32964  0.30585  0.72250  1.0000
  C   C221      1.0  0.48546  0.24959  0.71849  1.0000
  N   N16       1.0  0.27590  0.15738  0.64562  1.0000
  C   C222      1.0  0.25435  0.16445  0.65383  1.0000
  C   C223      1.0  0.27293  0.15351  0.62847  1.0000
  C   C224      1.0  0.28297  0.13597  0.65414  1.0000
  C   C225      1.0  0.29166  0.17468  0.64584  1.0000
  C   C226      1.0  0.28765  0.19592  0.63771  1.0000
  C   C227      1.0  0.31105  0.17125  0.65415  1.0000
  C   C228      1.0  0.30220  0.21258  0.63780  1.0000
  C   C229      1.0  0.32554  0.18798  0.65406  1.0000
  C   C230      1.0  0.32112  0.20859  0.64597  1.0000
  H   H278      1.0  0.24696  0.17955  0.64747  1.0000
  H   H279      1.0  0.24223  0.15154  0.65426  1.0000
  H   H280      1.0  0.25595  0.16789  0.66670  1.0000
  H   H281      1.0  0.26541  0.16812  0.62157  1.0000
  H   H282      1.0  0.26177  0.13990  0.62802  1.0000
  H   H283      1.0  0.28890  0.14897  0.62168  1.0000
  H   H284      1.0  0.28421  0.13735  0.66742  1.0000
  H   H285      1.0  0.27101  0.12322  0.65346  1.0000
  H   H286      1.0  0.29903  0.12949  0.64855  1.0000
  H   H287      1.0  0.27309  0.19984  0.63136  1.0000
  H   H288      1.0  0.31531  0.15591  0.66107  1.0000
  H   H289      1.0  0.29875  0.22870  0.63160  1.0000
  H   H290      1.0  0.34017  0.18502  0.66058  1.0000
  H   H291      1.0  0.33233  0.22152  0.64616  1.0000
  N   N17       1.0  0.07799  0.11095  0.61450  1.0000
  C   C231      1.0  0.09185  0.11981  0.59983  1.0000
  C   C232      1.0  0.08238  0.08678  0.61680  1.0000
  C   C233      1.0  0.05468  0.11512  0.61103  1.0000
  C   C234      1.0  0.08342  0.12104  0.62913  1.0000
  C   C235      1.0  0.06774  0.13354  0.63886  1.0000
  H   H292      1.0  0.45860  0.26257  0.66741  1.0000
  H   H293      1.0  0.44389  0.27923  0.65264  1.0000
  C   C236      1.0  0.37814  0.33376  0.69863  1.0000
  C   C237      1.0  0.01033  0.10028  0.57696  1.0000
  H   H294      1.0  0.34538  0.25489  0.72341  1.0000
  C   C238      1.0  0.46072  0.27366  0.65584  1.0000
  H   H295      1.0  0.01627  0.06620  0.58531  1.0000
  C   C239      1.0  0.33678  0.23947  0.72345  1.0000
  H   H296      1.0  0.17181  0.07128  0.49189  1.0000
  H   H297      1.0  0.38285  0.32168  0.68951  1.0000
  C   C240      1.0  0.19341  0.01038  0.63162  1.0000
  H   H298      1.0  0.36959  0.30275  0.53830  1.0000
  C   C241      1.0  0.01936  0.13034  0.50357  1.0000
  H   H299      1.0  0.49802  0.32925  0.65344  1.0000
  C   C242      1.0  0.13584  0.01142  0.51757  1.0000
  H   H300      1.0  0.03582  0.12916  0.50747  1.0000
  H   H301      1.0  0.05365  0.32902  0.71404  1.0000
  C   C243      1.0  0.24517  0.00989  0.67693  1.0000
  H   H302      1.0  0.00440  0.13989  0.52682  1.0000
  C   C244      1.0  0.49514  0.28336  0.66362  1.0000
  H   H303      1.0  0.42884  0.30531  0.54598  1.0000
  H   H304      1.0  0.30371  0.21331  0.73067  1.0000
  C   C245      1.0  0.42503  0.30522  0.53299  1.0000
  C   C246      1.0  0.40107  0.29867  0.48690  1.0000
  H   H305      1.0  0.35404  0.33361  0.67360  1.0000
  C   C247      1.0  0.30470  0.33400  0.73431  1.0000
  C   C248      1.0  0.39050  0.33512  0.50461  1.0000
  C   C249      1.0  0.34272  0.30562  0.73552  1.0000
  H   H306      1.0  0.46595  0.22822  0.73555  1.0000
  Fe  Fe33      1.0  0.04693  0.08624  0.92039  1.0000
  S   S65       1.0  0.07841  0.10323  0.91800  1.0000
  S   S66       1.0  0.04313  0.04989  0.92507  1.0000
  Fe  Fe34      1.0  0.01926  0.12877  0.91992  1.0000
  S   S67       1.0  0.04845  0.14988  0.91807  1.0000
  Fe  Fe35      1.0  0.06316  0.12745  0.89920  1.0000
  S   S68       1.0  0.07955  0.13539  0.87318  1.0000
  Fe  Fe36      1.0  0.06130  0.12408  0.93704  1.0000
  S   S69       1.0  0.08018  0.12580  0.95927  1.0000
  S   S70       1.0  0.03315  0.10804  0.90008  1.0000
  S   S71       1.0  0.03076  0.10547  0.94037  1.0000
  Fe  Fe37      1.0  0.10814  0.26944  0.77607  1.0000
  S   S72       1.0  0.12317  0.30282  0.76826  1.0000
  Fe  Fe38      1.0  0.08772  0.23236  0.79998  1.0000
  S   S73       1.0  0.08717  0.20920  0.78041  1.0000
  S   S74       1.0  0.07562  0.22558  0.82704  1.0000
  S   S75       1.0  0.12235  0.24194  0.79246  1.0000
  S   S76       1.0  0.07310  0.26191  0.78511  1.0000
  C   C250      1.0  0.49788  0.23148  0.74404  1.0000
  H   H307      1.0  0.13977  0.19379  0.80281  1.0000
  Fe  Fe39      1.0  0.07390  0.23914  0.76516  1.0000
  H   H308      1.0  0.12472  0.14724  0.77965  1.0000
  H   H309      1.0  0.02346  0.18184  0.88420  1.0000
  S   S77       1.0  0.36682  0.28835  0.73658  1.0000
  Fe  Fe40      1.0  0.12079  0.22107  0.77168  1.0000
  H   H310      1.0  0.12542  0.17686  0.75096  1.0000
  C   C251      1.0  0.31637  0.26266  0.75895  1.0000
  H   H311      1.0  0.12590  0.17422  0.78529  1.0000
  H   H312      1.0  0.08350  0.00824  0.94649  1.0000
  H   H313      1.0  0.14090  0.11628  0.79392  1.0000
  C   C252      1.0  0.16935  0.26598  0.74816  1.0000
  C   C253      1.0  0.14620  0.31493  0.77490  1.0000
  C   C254      1.0  0.15334  0.30954  0.79052  1.0000
  C   C255      1.0  0.28299  0.28541  0.75576  1.0000
  H   H314      1.0  0.14499  0.29742  0.79893  1.0000
  C   C256      1.0  0.13838  0.16129  0.81637  1.0000
  C   C257      1.0  0.07730  0.16052  0.86049  1.0000
  C   C258      1.0  0.07235  0.18066  0.86704  1.0000
  C   C259      1.0  0.07163  0.20033  0.85658  1.0000
  C   C260      1.0  0.07607  0.20017  0.83950  1.0000
  C   C261      1.0  0.08061  0.17999  0.83290  1.0000
  C   C262      1.0  0.08117  0.16028  0.84336  1.0000
  H   H315      1.0  0.06960  0.18117  0.88019  1.0000
  H   H316      1.0  0.06811  0.21585  0.86180  1.0000
  H   H317      1.0  0.08394  0.17962  0.81979  1.0000
  H   H318      1.0  0.08501  0.14479  0.83818  1.0000
  C   C263      1.0  0.21060  0.28849  0.73648  1.0000
  S   S78       1.0  0.10788  0.24886  0.75495  1.0000
  H   H319      1.0  0.33120  0.26010  0.76511  1.0000
  C   C264      1.0  0.09771  0.06521  0.97545  1.0000
  C   C265      1.0  0.27819  0.27324  0.74327  1.0000
  S   S79       1.0  0.15419  0.20434  0.76540  1.0000
  H   H320      1.0  0.13625  0.13313  0.83522  1.0000
  H   H321      1.0  0.09873  0.06703  0.94965  1.0000
  H   H322      1.0  0.01581  0.19285  0.85517  1.0000
  H   H323      1.0  0.13058  0.15465  0.85851  1.0000
  C   C266      1.0  0.01675  0.29367  0.77191  1.0000
  C   C267      1.0  0.34622  0.22687  0.75042  1.0000
  H   H324      1.0  0.35725  0.21318  0.74582  1.0000
  C   C268      1.0  0.05968  0.03414  0.91160  1.0000
  C   C269      1.0  0.07245  0.04409  0.89823  1.0000
  C   C270      1.0  0.08661  0.03108  0.88820  1.0000
  C   C271      1.0  0.14231  0.17162  0.74761  1.0000
  N   N18       1.0  0.18965  0.26216  0.75671  1.0000
  H   H325      1.0  0.07161  0.06180  0.89573  1.0000
  H   H326      1.0  0.09671  0.03877  0.87797  1.0000
  H   H327      1.0  0.17249  0.24285  0.77683  1.0000
  C   C272      1.0  0.01513  0.06087  0.97024  1.0000
  H   H328      1.0  0.34663  0.31935  0.75811  1.0000
  H   H329      1.0  0.13317  0.21447  0.82685  1.0000
  H   H330      1.0  0.11254  0.03030  0.91785  1.0000
  C   C273      1.0  0.04591  0.14132  0.98033  1.0000
  C   C274      1.0  0.02012  0.10436  0.85924  1.0000
  H   H331      1.0  0.22786  0.32066  0.77093  1.0000
  H   H332      1.0  0.11953  0.05318  0.92779  1.0000
  H   H333      1.0  0.48379  0.30936  0.88368  1.0000
  C   C275      1.0  0.18117  0.17567  0.74825  1.0000
  C   C276      1.0  0.02159  0.06979  0.98390  1.0000
  H   H334      1.0  0.00518  0.17294  0.84373  1.0000
  C   C277      1.0  0.22322  0.31144  0.76132  1.0000
  C   C278      1.0  0.13802  0.01670  0.94191  1.0000
  C   C279      1.0  0.01501  0.17493  0.85410  1.0000
  C   C280      1.0  0.04825  0.30747  0.75392  1.0000
  C   C281      1.0  0.10138  0.00394  0.94418  1.0000
  H   H335      1.0  0.14298  0.00450  0.95199  1.0000
  H   H336      1.0  0.03746  0.13348  0.85785  1.0000
  H   H337      1.0  0.09174  0.04444  0.93021  1.0000
  H   H338      1.0  0.35684  0.24107  0.75008  1.0000
  C   C282      1.0  0.06075  0.01126  0.91475  1.0000
  C   C283      1.0  0.10934  0.03860  0.92938  1.0000
  C   C284      1.0  0.05624  0.31475  0.76802  1.0000
  H   H339      1.0  0.49221  0.30827  0.90374  1.0000
  C   C285      1.0  0.16300  0.15260  0.79279  1.0000
  H   H340      1.0  0.30591  0.28996  0.77303  1.0000
  C   C286      1.0  0.01965  0.24070  0.74531  1.0000
  H   H341      1.0  0.19721  0.25346  0.78173  1.0000
  C   C287      1.0  0.10943  0.03374  0.95968  1.0000
  H   H342      1.0  0.03656  0.15588  0.87975  1.0000
  C   C288      1.0  0.17085  0.32041  0.79554  1.0000
  C   C289      1.0  0.10173  0.05609  0.96044  1.0000
  H   H343      1.0  0.15240  0.11747  0.81284  1.0000
  H   H344      1.0  0.16543  0.14427  0.78124  1.0000
  H   H345      1.0  0.12297  0.12109  0.81190  1.0000
  N   N19       1.0  0.11437  0.02360  0.94402  1.0000
  H   H346      1.0  0.10725  0.15606  0.79700  1.0000
  C   C290      1.0  0.12399  0.15694  0.79047  1.0000
  C   C291      1.0  0.21013  0.29346  0.76534  1.0000
  H   H347      1.0  0.16547  0.17028  0.78917  1.0000
  C   C292      1.0  0.13310  0.16296  0.84624  1.0000
  H   H348      1.0  0.15802  0.25240  0.75152  1.0000
  H   H349      1.0  0.01623  0.29833  0.79750  1.0000
  H   H350      1.0  0.01124  0.24067  0.77129  1.0000
  C   C293      1.0  0.06719  0.13166  0.97865  1.0000
  H   H351      1.0  0.03453  0.09472  0.85479  1.0000
  H   H352      1.0  0.21770  0.23920  0.75681  1.0000
  C   C294      1.0  0.04461  0.31163  0.78349  1.0000
  C   C295      1.0  0.02158  0.12669  0.86096  1.0000
  H   H353      1.0  0.11853  0.00417  0.97523  1.0000
  C   C296      1.0  0.15716  0.33108  0.76433  1.0000
  C   C297      1.0  0.13450  0.19664  0.82843  1.0000
  C   C298      1.0  0.13619  0.15075  0.83262  1.0000
  H   H354      1.0  0.03145  0.02389  0.88667  1.0000
  H   H355      1.0  0.01340  0.15674  0.89447  1.0000
  C   C299      1.0  0.20205  0.24233  0.75096  1.0000
  H   H356      1.0  0.21167  0.00529  0.75567  1.0000
  C   C300      1.0  0.20337  0.28140  0.75298  1.0000
  C   C301      1.0  0.00328  0.13969  0.86729  1.0000
  H   H357      1.0  0.27232  0.29940  0.75908  1.0000
  C   C302      1.0  0.18285  0.25733  0.77447  1.0000
  C   C303      1.0  0.11265  0.02124  0.97484  1.0000
  C   C304      1.0  0.15932  0.18262  0.75271  1.0000
  C   C305      1.0  0.13204  0.18584  0.84414  1.0000
  H   H358      1.0  0.17633  0.14640  0.80058  1.0000
  H   H359      1.0  0.03702  0.14533  0.96960  1.0000
  H   H360      1.0  0.05119  0.31696  0.79411  1.0000
  C   C306      1.0  0.02039  0.16453  0.88250  1.0000
  C   C307      1.0  0.13788  0.18462  0.81473  1.0000
  N   N20       1.0  0.14107  0.14900  0.80160  1.0000
  H   H361      1.0  0.20516  0.28975  0.77823  1.0000
  H   H362      1.0  0.17585  0.31639  0.80778  1.0000
  C   C308      1.0  0.13922  0.12491  0.80532  1.0000
  H   H363      1.0  0.12873  0.19521  0.85470  1.0000
  H   H364      1.0  0.30771  0.20637  0.75199  1.0000
  C   C309      1.0  0.00495  0.24131  0.75941  1.0000
  H   H365      1.0  0.02674  0.05901  0.95955  1.0000
  S   S80       1.0  0.04886  0.23902  0.74593  1.0000
  C   C310      1.0  0.02814  0.29682  0.75638  1.0000
  C   C311      1.0  0.08821  0.00820  0.89169  1.0000
  C   C312      1.0  0.01806  0.01291  0.88867  1.0000
  C   C313      1.0  0.33659  0.31946  0.74800  1.0000
  H   H366      1.0  0.17276  0.27134  0.77945  1.0000
  H   H367      1.0  0.14230  0.00861  0.93037  1.0000
  H   H368      1.0  0.49471  0.22044  0.75499  1.0000
  H   H369      1.0  0.14843  0.03098  0.94159  1.0000
  H   H370      1.0  0.34042  0.22177  0.76339  1.0000
  H   H371      1.0  0.03219  0.16909  0.85060  1.0000
  H   H372      1.0  0.09252  0.31117  0.74440  1.0000
  H   H373      1.0  0.19444  0.18398  0.75225  1.0000
  C   C314      1.0  0.31199  0.24987  0.74624  1.0000
  H   H374      1.0  0.15180  0.33556  0.75225  1.0000
  H   H375      1.0  0.23946  0.33241  0.74202  1.0000
  C   C315      1.0  0.30195  0.28004  0.76363  1.0000
  H   H376      1.0  0.19244  0.22739  0.75394  1.0000
  C   C316      1.0  0.02495  0.30107  0.78544  1.0000
  H   H377      1.0  0.49422  0.28362  0.89324  1.0000
  C   C317      1.0  0.49635  0.30164  0.89160  1.0000
  C   C318      1.0  0.18604  0.15795  0.73861  1.0000
  C   C319      1.0  0.22972  0.31814  0.74502  1.0000
  N   N21       1.0  0.32752  0.23225  0.74024  1.0000
  H   H378      1.0  0.16028  0.28152  0.75140  1.0000
  H   H379      1.0  0.07165  0.32250  0.76756  1.0000
  H   H380      1.0  0.09206  0.08237  0.97566  1.0000
  C   C320      1.0  0.31611  0.21168  0.73976  1.0000
  H   H381      1.0  0.02113  0.29058  0.74632  1.0000
  C   C321      1.0  0.31765  0.33365  0.74741  1.0000
  N   N22       1.0  0.00553  0.16312  0.86957  1.0000
  C   C322      1.0  0.22515  0.00375  0.74628  1.0000
  H   H382      1.0  0.49674  0.31279  0.85712  1.0000
  H   H383      1.0  0.26363  0.27777  0.73698  1.0000
  H   H384      1.0  0.22328  0.03844  0.73778  1.0000
  C   C323      1.0  0.14719  0.15362  0.73823  1.0000
  H   H385      1.0  0.20606  0.24375  0.73745  1.0000
  C   C324      1.0  0.29242  0.25574  0.73854  1.0000
  H   H386      1.0  0.03833  0.07462  0.98293  1.0000
  C   C325      1.0  0.23170  0.02263  0.73614  1.0000
  H   H387      1.0  0.32775  0.19793  0.73598  1.0000
  H   H388      1.0  0.07362  0.27791  0.73839  1.0000
  C   C326      1.0  0.08094  0.32153  0.73687  1.0000
  N   N23       1.0  0.05969  0.31105  0.73724  1.0000
  H   H389      1.0  0.05065  0.00353  0.92496  1.0000
  Fe  Fe41      1.0  0.36273  0.45527  0.03578  1.0000
  S   S81       1.0  0.39674  0.45336  0.04380  1.0000
  S   S82       1.0  0.36016  0.46920  0.00926  1.0000
  Fe  Fe42      1.0  0.34289  0.43952  0.07057  1.0000
  S   S83       1.0  0.37567  0.43565  0.08072  1.0000
  S   S84       1.0  0.31077  0.43587  0.08687  1.0000
  Fe  Fe43      1.0  0.38198  0.46812  0.06640  1.0000
  S   S85       1.0  0.40077  0.49156  0.07841  1.0000
  Fe  Fe44      1.0  0.38760  0.42126  0.05719  1.0000
  S   S86       1.0  0.41300  0.39347  0.05397  1.0000
  S   S87       1.0  0.34854  0.47315  0.05748  1.0000
  S   S88       1.0  0.35419  0.42203  0.04796  1.0000
  Fe  Fe45      1.0  0.44371  0.63642  0.04478  1.0000
  S   S89       1.0  0.44109  0.60103  0.05414  1.0000
  H   H390      1.0  0.39389  0.66199  0.14848  1.0000
  S   S90       1.0  0.42762  0.61749  0.09098  1.0000
  Fe  Fe46      1.0  0.45855  0.60915  0.07522  1.0000
  H   H391      1.0  0.38909  0.59908  0.01459  1.0000
  Fe  Fe47      1.0  0.41061  0.61281  0.06867  1.0000
  S   S91       1.0  0.38033  0.59418  0.06784  1.0000
  S   S92       1.0  0.41196  0.64810  0.05805  1.0000
  S   S93       1.0  0.25646  0.53999  0.22937  1.0000
  Fe  Fe48      1.0  0.26226  0.37414  0.21615  1.0000
  S   S94       1.0  0.26307  0.35990  0.19200  1.0000
  H   H392      1.0  0.47155  0.62192  0.10920  1.0000
  S   S95       1.0  0.23733  0.40623  0.17867  1.0000
  Fe  Fe49      1.0  0.22800  0.37307  0.19135  1.0000
  H   H393      1.0  0.48098  0.54113  0.07015  1.0000
  Fe  Fe50      1.0  0.27229  0.39357  0.18079  1.0000
  S   S96       1.0  0.30165  0.39477  0.16145  1.0000
  S   S97       1.0  0.27437  0.40670  0.20526  1.0000
  N   N24       1.0  0.48279  0.64889  0.12074  1.0000
  H   H394      1.0  0.22777  0.38550  0.10509  1.0000
  H   H395      1.0  0.35115  0.64235  0.16617  1.0000
  H   H396      1.0  0.37680  0.57972  0.03000  1.0000
  H   H397      1.0  0.26529  0.44438  0.23530  1.0000
  C   C327      1.0  0.25241  0.48037  0.21183  1.0000
  C   C328      1.0  0.08815  0.37037  0.21132  1.0000
  C   C329      1.0  0.35767  0.43086  0.99416  1.0000
  C   C330      1.0  0.41892  0.63645  0.00468  1.0000
  C   C331      1.0  0.44184  0.63619  0.00262  1.0000
  C   C332      1.0  0.29099  0.37698  0.10258  1.0000
  C   C333      1.0  0.30873  0.42519  0.10780  1.0000
  C   C334      1.0  0.32632  0.41337  0.11478  1.0000
  C   C335      1.0  0.32379  0.40420  0.13120  1.0000
  C   C336      1.0  0.30378  0.40687  0.14088  1.0000
  C   C337      1.0  0.28631  0.41907  0.13402  1.0000
  C   C338      1.0  0.28876  0.42805  0.11752  1.0000
  H   H398      1.0  0.34173  0.41089  0.10743  1.0000
  H   H399      1.0  0.33743  0.39486  0.13642  1.0000
  H   H400      1.0  0.27100  0.42167  0.14142  1.0000
  H   H401      1.0  0.27508  0.43720  0.11223  1.0000
  C   C339      1.0  0.43760  0.39887  0.06177  1.0000
  C   C340      1.0  0.43825  0.41619  0.07157  1.0000
  C   C341      1.0  0.45779  0.42005  0.07810  1.0000
  C   C342      1.0  0.47690  0.40695  0.07456  1.0000
  C   C343      1.0  0.47644  0.39001  0.06438  1.0000
  C   C344      1.0  0.45675  0.38583  0.05813  1.0000
  H   H402      1.0  0.42362  0.42641  0.07436  1.0000
  H   H403      1.0  0.45804  0.43317  0.08595  1.0000
  H   H404      1.0  0.26289  0.46996  0.20413  1.0000
  H   H405      1.0  0.45637  0.37252  0.05048  1.0000
  C   C345      1.0  0.39433  0.51996  0.07558  1.0000
  C   C346      1.0  0.40831  0.53432  0.08103  1.0000
  C   C347      1.0  0.40411  0.55711  0.07861  1.0000
  C   C348      1.0  0.38535  0.56566  0.07134  1.0000
  C   C349      1.0  0.37081  0.55131  0.06649  1.0000
  C   C350      1.0  0.37549  0.52846  0.06833  1.0000
  H   H406      1.0  0.42249  0.52783  0.08715  1.0000
  H   H407      1.0  0.41523  0.56808  0.08259  1.0000
  H   H408      1.0  0.35622  0.55791  0.06091  1.0000
  H   H409      1.0  0.36449  0.51748  0.06425  1.0000
  H   H410      1.0  0.40602  0.44447  0.00827  1.0000
  H   H411      1.0  0.38935  0.63372  0.99292  1.0000
  C   C351      1.0  0.39277  0.58577  0.02426  1.0000
  C   C352      1.0  0.22816  0.38774  0.13952  1.0000
  H   H412      1.0  0.39699  0.58831  0.98797  1.0000
  C   C353      1.0  0.43541  0.40504  0.98749  1.0000
  C   C354      1.0  0.07396  0.35322  0.21192  1.0000
  H   H413      1.0  0.35598  0.42237  0.00635  1.0000
  H   H414      1.0  0.40311  0.43754  0.98826  1.0000
  C   C355      1.0  0.46703  0.50980  0.07006  1.0000
  C   C356      1.0  0.28059  0.38633  0.08907  1.0000
  C   C357      1.0  0.47077  0.48706  0.07191  1.0000
  H   H415      1.0  0.39122  0.52532  0.01729  1.0000
  S   S98       1.0  0.45716  0.64325  0.01819  1.0000
  H   H416      1.0  0.45087  0.51685  0.06771  1.0000
  H   H417      1.0  0.24985  0.39662  0.07962  1.0000
  C   C358      1.0  0.23169  0.47364  0.21825  1.0000
  H   H418      1.0  0.21849  0.38418  0.15159  1.0000
  H   H419      1.0  0.30877  0.37519  0.10171  1.0000
  H   H420      1.0  0.26606  0.37307  0.15109  1.0000
  N   N25       1.0  0.34495  0.48822  0.11744  1.0000
  C   C359      1.0  0.34565  0.51162  0.11070  1.0000
  C   C360      1.0  0.36726  0.48091  0.12205  1.0000
  C   C361      1.0  0.33975  0.47539  0.10410  1.0000
  C   C362      1.0  0.32865  0.48443  0.13182  1.0000
  C   C363      1.0  0.32649  0.46299  0.13989  1.0000
  C   C364      1.0  0.31459  0.50157  0.13822  1.0000
  C   C365      1.0  0.31150  0.45901  0.15364  1.0000
  C   C366      1.0  0.29953  0.49735  0.15192  1.0000
  C   C367      1.0  0.29801  0.47613  0.15962  1.0000
  H   H421      1.0  0.34996  0.52226  0.11998  1.0000
  H   H422      1.0  0.35833  0.51385  0.10012  1.0000
  H   H423      1.0  0.32977  0.51789  0.10603  1.0000
  H   H424      1.0  0.37146  0.48939  0.13259  1.0000
  H   H425      1.0  0.38005  0.48438  0.11168  1.0000
  H   H426      1.0  0.36895  0.46291  0.12549  1.0000
  H   H427      1.0  0.32267  0.47936  0.10079  1.0000
  H   H428      1.0  0.35108  0.47865  0.09282  1.0000
  H   H429      1.0  0.34129  0.45739  0.10749  1.0000
  H   H430      1.0  0.33630  0.44905  0.13558  1.0000
  H   H431      1.0  0.31480  0.51837  0.13285  1.0000
  H   H432      1.0  0.31021  0.44248  0.15964  1.0000
  H   H433      1.0  0.28891  0.51061  0.15662  1.0000
  H   H434      1.0  0.28629  0.47291  0.17022  1.0000
  S   S99       1.0  0.20362  0.35341  0.17980  1.0000
  N   N26       1.0  0.40721  0.56766  0.01776  1.0000
  C   C368      1.0  0.38939  0.53649  0.00645  1.0000
  H   H435      1.0  0.49115  0.37993  0.06149  1.0000
  C   C369      1.0  0.24624  0.51461  0.22537  1.0000
  H   H436      1.0  0.30354  0.63912  0.19608  1.0000
  H   H437      1.0  0.41968  0.55896  0.04137  1.0000
  C   C370      1.0  0.41507  0.43702  0.99758  1.0000
  C   C371      1.0  0.37924  0.52839  0.99394  1.0000
  H   H438      1.0  0.44457  0.39909  0.02050  1.0000
  H   H439      1.0  0.32175  0.64453  0.16884  1.0000
  C   C372      1.0  0.25548  0.37400  0.11905  1.0000
  H   H440      1.0  0.49303  0.64231  0.14509  1.0000
  H   H441      1.0  0.41172  0.38353  0.01281  1.0000
  C   C373      1.0  0.40710  0.63288  0.99144  1.0000
  C   C374      1.0  0.08068  0.66451  0.23437  1.0000
  H   H442      1.0  0.33747  0.63102  0.18488  1.0000
  H   H443      1.0  0.40746  0.65509  0.11989  1.0000
  C   C375      1.0  0.10999  0.36755  0.20506  1.0000
  N   N27       1.0  0.42403  0.41439  0.00218  1.0000
  C   C376      1.0  0.21831  0.48755  0.22821  1.0000
  C   C377      1.0  0.25951  0.50079  0.21525  1.0000
  S   S100      1.0  0.22654  0.38511  0.21638  1.0000
  C   C378      1.0  0.30214  0.65573  0.19951  1.0000
  H   H444      1.0  0.08361  0.65786  0.22223  1.0000
  H   H445      1.0  0.39641  0.54479  0.03810  1.0000
  H   H446      1.0  0.27549  0.50590  0.21012  1.0000
  C   C379      1.0  0.39653  0.55834  0.00480  1.0000
  C   C380      1.0  0.48404  0.52339  0.07130  1.0000
  C   C381      1.0  0.39256  0.57142  0.99003  1.0000
  Fe  Fe51      1.0  0.43142  0.65210  0.07949  1.0000
  H   H447      1.0  0.21564  0.35583  0.12308  1.0000
  H   H448      1.0  0.46408  0.64027  0.14389  1.0000
  Fe  Fe52      1.0  0.23876  0.41721  0.20401  1.0000
  N   N28       1.0  0.33744  0.66647  0.18236  1.0000
  C   C382      1.0  0.40566  0.40063  0.00900  1.0000
  S   S101      1.0  0.46347  0.64388  0.06493  1.0000
  C   C383      1.0  0.49160  0.47773  0.07485  1.0000
  H   H449      1.0  0.42654  0.59024  0.00119  1.0000
  C   C384      1.0  0.25782  0.38920  0.09017  1.0000
  H   H450      1.0  0.12096  0.38082  0.20467  1.0000
  H   H451      1.0  0.42833  0.44797  0.99248  1.0000
  C   C385      1.0  0.42849  0.57650  0.01087  1.0000
  H   H452      1.0  0.40036  0.59357  0.03384  1.0000
  H   H453      1.0  0.43713  0.58327  0.02039  1.0000
  S   S102      1.0  0.48517  0.58568  0.08511  1.0000
  H   H454      1.0  0.34959  0.34092  0.21945  1.0000
  H   H455      1.0  0.39663  0.40723  0.02007  1.0000
  C   C386      1.0  0.24537  0.38296  0.10487  1.0000
  C   C387      1.0  0.35934  0.45367  0.99224  1.0000
  H   H456      1.0  0.45733  0.47658  0.07115  1.0000
  C   C388      1.0  0.27876  0.37100  0.11742  1.0000
  H   H457      1.0  0.47056  0.63085  0.98592  1.0000
  C   C389      1.0  0.22735  0.35058  0.13238  1.0000
  H   H458      1.0  0.29029  0.39182  0.07784  1.0000
  H   H459      1.0  0.45258  0.42597  0.01141  1.0000
  C   C390      1.0  0.35746  0.66564  0.19115  1.0000
  C   C391      1.0  0.28396  0.66102  0.21032  1.0000
  C   C392      1.0  0.46768  0.63969  0.11059  1.0000
  H   H460      1.0  0.28807  0.36468  0.12752  1.0000
  H   H461      1.0  0.39338  0.39967  0.00009  1.0000
  H   H462      1.0  0.27232  0.64868  0.21478  1.0000
  C   C393      1.0  0.33681  0.64515  0.17527  1.0000
  N   N29       1.0  0.24193  0.36822  0.13461  1.0000
  H   H463      1.0  0.43953  0.56355  0.00533  1.0000
  H   H464      1.0  0.13479  0.34543  0.19448  1.0000
  H   H465      1.0  0.37370  0.51177  0.99551  1.0000
  C   C394      1.0  0.11775  0.34762  0.19930  1.0000
  H   H466      1.0  0.41029  0.64019  0.01627  1.0000
  H   H467      1.0  0.42285  0.53743  0.02788  1.0000
  S   S103      1.0  0.22192  0.44782  0.21474  1.0000
  C   C395      1.0  0.43843  0.41569  0.01553  1.0000
  H   H468      1.0  0.42942  0.42320  0.02620  1.0000
  H   H469      1.0  0.49325  0.45998  0.07614  1.0000
  C   C396      1.0  0.41178  0.55141  0.03182  1.0000
  H   H470      1.0  0.31195  0.35775  0.21700  1.0000
  H   H471      1.0  0.46863  0.64840  0.09806  1.0000
  H   H472      1.0  0.23847  0.40173  0.14061  1.0000
  H   H473      1.0  0.48274  0.61897  0.13723  1.0000
  C   C397      1.0  0.48066  0.63710  0.13744  1.0000
  H   H474      1.0  0.35672  0.65280  0.20168  1.0000
  C   C398      1.0  0.45782  0.39719  0.98659  1.0000
  H   H475      1.0  0.26519  0.34504  0.14606  1.0000
  H   H476      1.0  0.21599  0.39347  0.13069  1.0000
  H   H477      1.0  0.05729  0.35651  0.21694  1.0000
  H   H478      1.0  0.37251  0.66182  0.18300  1.0000
  H   H479      1.0  0.24447  0.35629  0.15999  1.0000
  C   C399      1.0  0.34109  0.64867  0.23472  1.0000
  H   H480      1.0  0.46776  0.39722  0.99672  1.0000
  C   C400      1.0  0.45283  0.63148  0.98749  1.0000
  C   C401      1.0  0.33716  0.33865  0.22965  1.0000
  H   H481      1.0  0.08220  0.38596  0.21576  1.0000
  H   H482      1.0  0.45029  0.64156  0.11581  1.0000
  H   H483      1.0  0.21726  0.34549  0.14401  1.0000
  C   C402      1.0  0.31584  0.34819  0.22823  1.0000
  C   C403      1.0  0.22559  0.50778  0.23188  1.0000
  H   H484      1.0  0.35236  0.63602  0.22996  1.0000
  H   H485      1.0  0.20223  0.48259  0.23322  1.0000
  C   C404      1.0  0.25509  0.36032  0.14847  1.0000
  S   S104      1.0  0.50108  0.41194  0.08311  1.0000
  H   H486      1.0  0.49690  0.66438  0.22713  1.0000
  C   C405      1.0  0.41769  0.63186  0.44930  1.0000
  H   H487      1.0  0.42208  0.62822  0.40119  1.0000
  H   H488      1.0  0.40070  0.59335  0.42656  1.0000
  Fe  Fe53      1.0  0.24976  0.56753  0.24674  1.0000
  S   S105      1.0  0.22552  0.57583  0.26813  1.0000
  H   H489      1.0  0.27056  0.41580  0.23955  1.0000
  Fe  Fe54      1.0  0.27924  0.60495  0.25244  1.0000
  S   S106      1.0  0.25783  0.61569  0.27424  1.0000
  S   S107      1.0  0.48342  0.58425  0.42644  1.0000
  Fe  Fe55      1.0  0.25526  0.57945  0.28191  1.0000
  S   S108      1.0  0.26379  0.55920  0.30553  1.0000
  Fe  Fe56      1.0  0.22951  0.61193  0.25907  1.0000
  S   S109      1.0  0.20501  0.64106  0.25227  1.0000
  S   S110      1.0  0.27865  0.56926  0.26111  1.0000
  C   C406      1.0  0.15241  0.66621  0.28113  1.0000
  S   S111      1.0  0.44794  0.38539  0.37619  1.0000
  S   S112      1.0  0.46152  0.38375  0.41378  1.0000
  Fe  Fe57      1.0  0.43596  0.40127  0.39893  1.0000
  S   S113      1.0  0.43450  0.43828  0.39643  1.0000
  Fe  Fe58      1.0  0.47147  0.36581  0.39166  1.0000
  C   C407      1.0  0.35446  0.59503  0.33908  1.0000
  S   S114      1.0  0.41019  0.37696  0.40679  1.0000
  Fe  Fe59      1.0  0.32820  0.57055  0.38457  1.0000
  S   S115      1.0  0.35586  0.54615  0.37800  1.0000
  S   S116      1.0  0.30553  0.58966  0.36718  1.0000
  Fe  Fe60      1.0  0.34157  0.57108  0.41996  1.0000
  S   S117      1.0  0.37017  0.54703  0.41598  1.0000
  S   S118      1.0  0.33142  0.58443  0.44450  1.0000
  Fe  Fe61      1.0  0.37636  0.56623  0.39143  1.0000
  S   S119      1.0  0.40883  0.57778  0.37969  1.0000
  Fe  Fe62      1.0  0.34717  0.52917  0.40312  1.0000
  S   S120      1.0  0.34459  0.49278  0.40972  1.0000
  S   S121      1.0  0.34946  0.59190  0.39636  1.0000
  S   S122      1.0  0.31778  0.55192  0.40877  1.0000
  H   H490      1.0  0.46631  0.52845  0.40920  1.0000
  C   C408      1.0  0.46365  0.58147  0.41290  1.0000
  C   C409      1.0  0.44572  0.56872  0.41830  1.0000
  C   C410      1.0  0.42913  0.56697  0.40800  1.0000
  C   C411      1.0  0.43027  0.57820  0.39232  1.0000
  C   C412      1.0  0.44841  0.59063  0.38682  1.0000
  C   C413      1.0  0.46507  0.59234  0.39711  1.0000
  H   H491      1.0  0.44462  0.56027  0.43052  1.0000
  H   H492      1.0  0.41544  0.55706  0.41222  1.0000
  H   H493      1.0  0.44942  0.59926  0.37466  1.0000
  C   C414      1.0  0.50007  0.43219  0.40267  1.0000
  C   C415      1.0  0.34778  0.58103  0.46118  1.0000
  H   H494      1.0  0.48764  0.60893  0.45514  1.0000
  H   H495      1.0  0.37780  0.57196  0.44708  1.0000
  C   C416      1.0  0.40955  0.45312  0.40095  1.0000
  C   C417      1.0  0.39080  0.44257  0.40777  1.0000
  C   C418      1.0  0.37085  0.45485  0.41055  1.0000
  C   C419      1.0  0.36974  0.47769  0.40671  1.0000
  C   C420      1.0  0.38865  0.48828  0.40031  1.0000
  C   C421      1.0  0.40847  0.47598  0.39733  1.0000
  H   H496      1.0  0.39168  0.42499  0.41086  1.0000
  H   H497      1.0  0.35625  0.44664  0.41556  1.0000
  H   H498      1.0  0.38790  0.50589  0.39724  1.0000
  H   H499      1.0  0.42290  0.48418  0.39191  1.0000
  H   H500      1.0  0.35637  0.62709  0.28192  1.0000
  H   H501      1.0  0.41711  0.38491  0.45266  1.0000
  Fe  Fe63      1.0  0.42408  0.35941  0.38469  1.0000
  C   C422      1.0  0.27645  0.56822  0.32202  1.0000
  C   C423      1.0  0.28762  0.55265  0.33243  1.0000
  C   C424      1.0  0.29715  0.55898  0.34605  1.0000
  C   C425      1.0  0.29518  0.58092  0.34959  1.0000
  C   C426      1.0  0.28415  0.59651  0.33910  1.0000
  C   C427      1.0  0.27506  0.59027  0.32528  1.0000
  H   H502      1.0  0.28871  0.53555  0.33004  1.0000
  H   H503      1.0  0.30550  0.54681  0.35403  1.0000
  H   H504      1.0  0.28242  0.61349  0.34180  1.0000
  H   H505      1.0  0.26626  0.60236  0.31751  1.0000
  H   H506      1.0  0.25552  0.47491  0.24708  1.0000
  C   C428      1.0  0.17083  0.65279  0.27569  1.0000
  S   S123      1.0  0.43514  0.34111  0.44614  1.0000
  H   H507      1.0  0.23017  0.41816  0.24989  1.0000
  H   H508      1.0  0.17631  0.63858  0.28342  1.0000
  H   H509      1.0  0.26710  0.46997  0.30599  1.0000
  N   N30       1.0  0.39949  0.62855  0.42312  1.0000
  H   H510      1.0  0.37363  0.60570  0.42488  1.0000
  H   H511      1.0  0.31875  0.64011  0.29153  1.0000
  C   C429      1.0  0.26131  0.41115  0.27067  1.0000
  C   C430      1.0  0.48001  0.60573  0.46756  1.0000
  H   H512      1.0  0.47516  0.34464  0.36095  1.0000
  H   H513      1.0  0.36306  0.62800  0.44545  1.0000
  C   C431      1.0  0.32027  0.64314  0.24194  1.0000
  H   H514      1.0  0.44750  0.49347  0.41284  1.0000
  N   N31       1.0  0.33034  0.60604  0.29116  1.0000
  H   H515      1.0  0.22828  0.44740  0.24914  1.0000
  C   C432      1.0  0.49821  0.51286  0.40381  1.0000
  H   H516      1.0  0.32391  0.54197  0.47545  1.0000
  C   C433      1.0  0.34895  0.61200  0.27899  1.0000
  H   H517      1.0  0.37356  0.48983  0.45915  1.0000
  S   S124      1.0  0.27254  0.35639  0.23995  1.0000
  C   C434      1.0  0.31281  0.62385  0.28965  1.0000
  C   C435      1.0  0.37022  0.57522  0.45906  1.0000
  C   C436      1.0  0.47563  0.51300  0.40778  1.0000
  C   C437      1.0  0.33114  0.61610  0.32042  1.0000
  N   N32       1.0  0.34063  0.50477  0.45955  1.0000
  C   C438      1.0  0.39119  0.60719  0.42028  1.0000
  C   C439      1.0  0.33075  0.48382  0.45746  1.0000
  H   H518      1.0  0.43096  0.63354  0.47244  1.0000
  H   H519      1.0  0.39053  0.66287  0.41789  1.0000
  C   C440      1.0  0.32902  0.52245  0.44945  1.0000
  C   C441      1.0  0.41985  0.38722  0.47846  1.0000
  C   C442      1.0  0.47708  0.47339  0.40773  1.0000
  H   H520      1.0  0.37186  0.51910  0.45411  1.0000
  C   C443      1.0  0.42194  0.62983  0.41459  1.0000
  C   C444      1.0  0.35406  0.58510  0.31138  1.0000
  H   H521      1.0  0.24975  0.40903  0.28193  1.0000
  C   C445      1.0  0.33823  0.60241  0.30772  1.0000
  H   H522      1.0  0.41090  0.40301  0.47855  1.0000
  C   C446      1.0  0.33925  0.61238  0.33581  1.0000
  H   H523      1.0  0.47886  0.60223  0.39288  1.0000
  C   C447      1.0  0.49796  0.38182  0.48418  1.0000
  H   H524      1.0  0.32945  0.51878  0.43645  1.0000
  C   C448      1.0  0.36193  0.58145  0.32687  1.0000
  H   H525      1.0  0.33024  0.48137  0.44425  1.0000
  C   C449      1.0  0.39862  0.63028  0.44100  1.0000
  H   H526      1.0  0.31142  0.52471  0.45403  1.0000
  H   H527      1.0  0.43397  0.63233  0.44298  1.0000
  C   C450      1.0  0.32129  0.58570  0.28684  1.0000
  H   H528      1.0  0.30687  0.62570  0.27720  1.0000
  C   C451      1.0  0.33931  0.50846  0.47716  1.0000
  N   N33       1.0  0.25631  0.43204  0.26057  1.0000
  H   H529      1.0  0.39926  0.53193  0.47601  1.0000
  H   H530      1.0  0.28798  0.43447  0.24684  1.0000
  H   H531      1.0  0.33679  0.53840  0.44912  1.0000
  C   C452      1.0  0.25946  0.45199  0.26874  1.0000
  H   H532      1.0  0.42224  0.50181  0.46410  1.0000
  C   C453      1.0  0.26265  0.45136  0.28569  1.0000
  C   C454      1.0  0.45674  0.33895  0.34097  1.0000
  C   C455      1.0  0.26478  0.47069  0.29306  1.0000
  C   C456      1.0  0.26372  0.49108  0.28389  1.0000
  H   H533      1.0  0.28997  0.65517  0.25429  1.0000
  H   H534      1.0  0.36561  0.50095  0.43954  1.0000
  H   H535      1.0  0.31898  0.62950  0.31895  1.0000
  H   H536      1.0  0.07062  0.65278  0.24267  1.0000
  Fe  Fe64      1.0  0.43699  0.35795  0.42013  1.0000
  H   H537      1.0  0.43319  0.61624  0.41936  1.0000
  C   C457      1.0  0.26054  0.49223  0.26732  1.0000
  H   H538      1.0  0.37375  0.56795  0.32952  1.0000
  C   C458      1.0  0.43387  0.35606  0.46362  1.0000
  H   H539      1.0  0.36020  0.59194  0.35120  1.0000
  H   H540      1.0  0.36129  0.62933  0.47501  1.0000
  H   H541      1.0  0.25955  0.50815  0.26019  1.0000
  H   H542      1.0  0.27844  0.41024  0.27417  1.0000
  H   H543      1.0  0.26520  0.50609  0.28964  1.0000
  N   N34       1.0  0.37446  0.41781  0.36515  1.0000
  C   C459      1.0  0.39880  0.41673  0.36410  1.0000
  C   C460      1.0  0.36666  0.40376  0.38006  1.0000
  C   C461      1.0  0.36803  0.40832  0.35054  1.0000
  C   C462      1.0  0.36445  0.44042  0.36586  1.0000
  C   C463      1.0  0.34127  0.44413  0.36727  1.0000
  C   C464      1.0  0.37708  0.45924  0.36517  1.0000
  C   C465      1.0  0.33139  0.46526  0.36816  1.0000
  C   C466      1.0  0.36700  0.48032  0.36585  1.0000
  C   C467      1.0  0.34424  0.48331  0.36747  1.0000
  H   H544      1.0  0.40577  0.39958  0.36347  1.0000
  H   H545      1.0  0.40597  0.42636  0.35291  1.0000
  H   H546      1.0  0.40485  0.42275  0.37508  1.0000
  H   H547      1.0  0.37017  0.41093  0.39135  1.0000
  H   H548      1.0  0.37477  0.38691  0.38033  1.0000
  H   H549      1.0  0.34876  0.40155  0.38090  1.0000
  H   H550      1.0  0.37314  0.41869  0.33908  1.0000
  H   H551      1.0  0.37578  0.39146  0.34944  1.0000
  H   H552      1.0  0.35005  0.40672  0.35101  1.0000
  H   H553      1.0  0.33060  0.43066  0.36789  1.0000
  H   H554      1.0  0.39479  0.45816  0.36449  1.0000
  H   H555      1.0  0.31367  0.46771  0.36960  1.0000
  H   H556      1.0  0.37690  0.49441  0.36566  1.0000
  H   H557      1.0  0.33655  0.49962  0.36854  1.0000
  S   S125      1.0  0.40258  0.35309  0.36446  1.0000
  H   H558      1.0  0.34364  0.61529  0.26638  1.0000
  H   H559      1.0  0.29823  0.62029  0.29846  1.0000
  H   H560      1.0  0.46781  0.45883  0.40944  1.0000
  H   H561      1.0  0.36209  0.59868  0.27842  1.0000
  C   C468      1.0  0.29967  0.34535  0.24134  1.0000
  C   C469      1.0  0.37700  0.63044  0.46776  1.0000
  H   H562      1.0  0.09708  0.66435  0.23919  1.0000
  H   H563      1.0  0.31472  0.58821  0.27461  1.0000
  H   H564      1.0  0.30762  0.58031  0.29596  1.0000
  C   C470      1.0  0.33816  0.58515  0.47686  1.0000
  C   C471      1.0  0.38311  0.57479  0.47234  1.0000
  H   H565      1.0  0.21514  0.51821  0.23960  1.0000
  C   C472      1.0  0.30601  0.65933  0.24861  1.0000
  C   C473      1.0  0.42338  0.37702  0.46374  1.0000
  C   C474      1.0  0.50012  0.47267  0.40336  1.0000
  H   H566      1.0  0.36044  0.57420  0.30230  1.0000
  C   C475      1.0  0.46511  0.49331  0.40981  1.0000
  H   H567      1.0  0.31359  0.48358  0.46329  1.0000
  C   C476      1.0  0.36395  0.50356  0.45284  1.0000
  H   H568      1.0  0.49194  0.42943  0.41534  1.0000
  S   S126      1.0  0.31303  0.61570  0.24254  1.0000
  C   C477      1.0  0.18195  0.65762  0.26017  1.0000
  H   H569      1.0  0.26342  0.43619  0.29353  1.0000
  H   H570      1.0  0.48137  0.37699  0.48357  1.0000
  H   H571      1.0  0.33371  0.57177  0.28610  1.0000
  C   C478      1.0  0.37823  0.62971  0.45078  1.0000
  H   H572      1.0  0.42908  0.64577  0.41582  1.0000
  C   C479      1.0  0.27068  0.43175  0.24496  1.0000
  C   C480      1.0  0.23315  0.43225  0.25684  1.0000
  H   H573      1.0  0.33304  0.62250  0.34554  1.0000
  H   H574      1.0  0.45423  0.58791  0.46012  1.0000
  H   H575      1.0  0.40068  0.57170  0.47039  1.0000
  H   H576      1.0  0.48724  0.43347  0.39386  1.0000
  H   H577      1.0  0.34016  0.46918  0.46273  1.0000
  C   C481      1.0  0.41645  0.50019  0.47703  1.0000
  C   C482      1.0  0.44175  0.34591  0.47817  1.0000
  H   H578      1.0  0.39250  0.60472  0.40698  1.0000
  H   H579      1.0  0.22172  0.43167  0.26821  1.0000
  C   C483      1.0  0.39598  0.63162  0.47554  1.0000
  H   H580      1.0  0.38464  0.34800  0.33415  1.0000
  S   S127      1.0  0.44885  0.33831  0.39866  1.0000
  H   H581      1.0  0.25969  0.39651  0.26388  1.0000
  C   C484      1.0  0.25836  0.47305  0.25986  1.0000
  C   C485      1.0  0.41624  0.63255  0.46632  1.0000
  C   C486      1.0  0.40354  0.51722  0.48369  1.0000
  C   C487      1.0  0.33032  0.52835  0.48329  1.0000
  H   H582      1.0  0.36783  0.64534  0.41978  1.0000
  C   C488      1.0  0.46117  0.59389  0.47036  1.0000
  S   S128      1.0  0.25180  0.60309  0.23675  1.0000
  H   H583      1.0  0.38292  0.35209  0.48143  1.0000
  H   H584      1.0  0.44544  0.35307  0.34273  1.0000
  H   H585      1.0  0.43217  0.46864  0.48099  1.0000
  H   H586      1.0  0.35528  0.47675  0.48497  1.0000
  C   C489      1.0  0.48920  0.61338  0.48065  1.0000
  H   H587      1.0  0.14392  0.66207  0.29307  1.0000
  H   H588      1.0  0.32081  0.58972  0.47859  1.0000
  C   C490      1.0  0.38547  0.64649  0.41536  1.0000
  H   H589      1.0  0.38646  0.64604  0.40179  1.0000
  Fe  Fe65      1.0  0.23885  0.61334  0.69662  1.0000
  S   S129      1.0  0.20807  0.63344  0.70610  1.0000
  Fe  Fe66      1.0  0.26973  0.58843  0.67198  1.0000
  S   S130      1.0  0.29530  0.58169  0.68973  1.0000
  S   S131      1.0  0.27720  0.56999  0.64905  1.0000
  S   S132      1.0  0.45588  0.34886  0.54310  1.0000
  Fe  Fe67      1.0  0.28824  0.61662  0.69553  1.0000
  S   S133      1.0  0.24193  0.57778  0.69076  1.0000
  S   S134      1.0  0.26439  0.62429  0.67633  1.0000
  H   H590      1.0  0.44370  0.47552  0.52681  1.0000
  S   S135      1.0  0.46007  0.37051  0.57787  1.0000
  Fe  Fe68      1.0  0.43497  0.37890  0.53561  1.0000
  S   S136      1.0  0.45794  0.40220  0.54312  1.0000
  S   S137      1.0  0.42010  0.38921  0.51159  1.0000
  Fe  Fe69      1.0  0.47727  0.37230  0.55247  1.0000
  Fe  Fe70      1.0  0.43882  0.39884  0.56767  1.0000
  S   S138      1.0  0.43300  0.42982  0.58030  1.0000
  S   S139      1.0  0.41391  0.37786  0.55970  1.0000
  Fe  Fe71      1.0  0.35312  0.57485  0.56481  1.0000
  S   S140      1.0  0.37124  0.54538  0.57656  1.0000
  S   S141      1.0  0.33104  0.59763  0.58042  1.0000
  Fe  Fe72      1.0  0.37860  0.57042  0.53082  1.0000
  S   S142      1.0  0.39865  0.54108  0.54072  1.0000
  S   S143      1.0  0.39040  0.57959  0.50410  1.0000
  Fe  Fe73      1.0  0.36694  0.53005  0.55350  1.0000
  S   S144      1.0  0.35942  0.49500  0.55157  1.0000
  Fe  Fe74      1.0  0.40119  0.55951  0.56253  1.0000
  S   S145      1.0  0.43321  0.55873  0.57410  1.0000
  S   S146      1.0  0.34631  0.55836  0.54248  1.0000
  S   S147      1.0  0.38356  0.58987  0.55188  1.0000
  S   S148      1.0  0.48604  0.64524  0.56779  1.0000
  C   C491      1.0  0.44745  0.58305  0.57248  1.0000
  C   C492      1.0  0.46894  0.58200  0.57703  1.0000
  C   C493      1.0  0.48080  0.60106  0.57577  1.0000
  C   C494      1.0  0.47111  0.62134  0.57014  1.0000
  C   C495      1.0  0.44947  0.62250  0.56589  1.0000
  C   C496      1.0  0.43771  0.60338  0.56696  1.0000
  H   H591      1.0  0.47647  0.56641  0.58154  1.0000
  C   C497      1.0  0.10701  0.65557  0.70545  1.0000
  H   H592      1.0  0.42112  0.60446  0.56360  1.0000
  C   C498      1.0  0.46034  0.59746  0.49950  1.0000
  C   C499      1.0  0.34627  0.49505  0.50547  1.0000
  C   C500      1.0  0.47912  0.61073  0.52725  1.0000
  C   C501      1.0  0.34055  0.59056  0.64839  1.0000
  C   C502      1.0  0.43871  0.35637  0.49280  1.0000
  C   C503      1.0  0.18814  0.65801  0.68053  1.0000
  H   H593      1.0  0.39485  0.49556  0.52298  1.0000
  C   C504      1.0  0.41144  0.44746  0.57340  1.0000
  C   C505      1.0  0.41093  0.46981  0.57583  1.0000
  C   C506      1.0  0.39478  0.48446  0.56933  1.0000
  C   C507      1.0  0.37862  0.47666  0.56089  1.0000
  C   C508      1.0  0.37853  0.45417  0.55913  1.0000
  C   C509      1.0  0.39518  0.43964  0.56508  1.0000
  H   H594      1.0  0.42321  0.47589  0.58254  1.0000
  H   H595      1.0  0.39490  0.50177  0.57084  1.0000
  H   H596      1.0  0.36580  0.44803  0.55287  1.0000
  H   H597      1.0  0.39524  0.42237  0.56343  1.0000
  H   H598      1.0  0.33711  0.35782  0.67726  1.0000
  H   H599      1.0  0.37010  0.38020  0.67327  1.0000
  H   H600      1.0  0.38602  0.52870  0.50538  1.0000
  H   H601      1.0  0.43128  0.43637  0.49662  1.0000
  C   C510      1.0  0.29339  0.57808  0.63056  1.0000
  C   C511      1.0  0.29720  0.60010  0.62550  1.0000
  C   C512      1.0  0.30888  0.60581  0.61018  1.0000
  C   C513      1.0  0.31723  0.58958  0.59990  1.0000
  C   C514      1.0  0.31407  0.56751  0.60523  1.0000
  C   C515      1.0  0.30199  0.56184  0.62038  1.0000
  H   H602      1.0  0.29065  0.61278  0.63316  1.0000
  H   H603      1.0  0.31122  0.62293  0.60618  1.0000
  H   H604      1.0  0.32029  0.55486  0.59744  1.0000
  H   H605      1.0  0.29907  0.54478  0.62410  1.0000
  C   C516      1.0  0.41510  0.47884  0.50402  1.0000
  H   H606      1.0  0.44188  0.63816  0.56154  1.0000
  C   C517      1.0  0.30660  0.65327  0.72635  1.0000
  H   H607      1.0  0.37943  0.63676  0.60323  1.0000
  H   H608      1.0  0.49757  0.39765  0.57299  1.0000
  H   H609      1.0  0.04101  0.34138  0.73187  1.0000
  H   H610      1.0  0.32256  0.54666  0.50439  1.0000
  H   H611      1.0  0.38941  0.37284  0.71151  1.0000
  H   H612      1.0  0.49539  0.37932  0.51056  1.0000
  N   N35       1.0  0.26737  0.50961  0.67643  1.0000
  C   C518      1.0  0.28505  0.50633  0.66309  1.0000
  C   C519      1.0  0.24734  0.51832  0.66861  1.0000
  C   C520      1.0  0.27367  0.52667  0.68635  1.0000
  C   C521      1.0  0.26435  0.48883  0.68705  1.0000
  C   C522      1.0  0.24378  0.47902  0.69032  1.0000
  C   C523      1.0  0.28227  0.47805  0.69487  1.0000
  C   C524      1.0  0.24152  0.45959  0.70068  1.0000
  C   C525      1.0  0.27981  0.45861  0.70515  1.0000
  C   C526      1.0  0.25949  0.44938  0.70803  1.0000
  H   H613      1.0  0.30135  0.50249  0.66779  1.0000
  H   H614      1.0  0.28153  0.49276  0.65586  1.0000
  H   H615      1.0  0.28689  0.52146  0.65442  1.0000
  H   H616      1.0  0.24175  0.50642  0.66074  1.0000
  H   H617      1.0  0.25030  0.53380  0.66056  1.0000
  H   H618      1.0  0.23372  0.52261  0.67792  1.0000
  H   H619      1.0  0.28892  0.52197  0.69240  1.0000
  H   H620      1.0  0.27658  0.54241  0.67875  1.0000
  H   H621      1.0  0.26052  0.53006  0.69620  1.0000
  H   H622      1.0  0.22907  0.48620  0.68531  1.0000
  H   H623      1.0  0.29822  0.48489  0.69339  1.0000
  H   H624      1.0  0.22559  0.45268  0.70348  1.0000
  H   H625      1.0  0.29356  0.45098  0.71133  1.0000
  H   H626      1.0  0.25741  0.43471  0.71645  1.0000
  H   H627      1.0  0.35189  0.66501  0.70056  1.0000
  H   H628      1.0  0.41141  0.34506  0.63582  1.0000
  H   H629      1.0  0.48959  0.34739  0.60288  1.0000
  H   H630      1.0  0.45682  0.51100  0.56725  1.0000
  C   C527      1.0  0.37637  0.62037  0.59952  1.0000
  C   C528      1.0  0.42720  0.37682  0.49309  1.0000
  Fe  Fe75      1.0  0.26760  0.57247  0.70870  1.0000
  S   S149      1.0  0.28140  0.35221  0.73263  1.0000
  C   C529      1.0  0.37921  0.36537  0.67870  1.0000
  H   H631      1.0  0.39411  0.44083  0.50887  1.0000
  H   H632      1.0  0.38735  0.45710  0.52581  1.0000
  C   C530      1.0  0.32720  0.38532  0.72155  1.0000
  H   H633      1.0  0.35245  0.48230  0.51422  1.0000
  C   C531      1.0  0.34236  0.39358  0.73052  1.0000
  H   H634      1.0  0.06433  0.64777  0.71103  1.0000
  H   H635      1.0  0.45174  0.59382  0.51147  1.0000
  C   C532      1.0  0.13607  0.63501  0.68961  1.0000
  H   H636      1.0  0.29190  0.64424  0.72717  1.0000
  H   H637      1.0  0.33174  0.61068  0.66828  1.0000
  C   C533      1.0  0.11799  0.65015  0.69022  1.0000
  H   H638      1.0  0.38576  0.56675  0.61293  1.0000
  H   H639      1.0  0.36432  0.57954  0.60097  1.0000
  C   C534      1.0  0.40155  0.49637  0.51028  1.0000
  H   H640      1.0  0.21522  0.49047  0.73160  1.0000
  N   N36       1.0  0.36503  0.35292  0.69155  1.0000
  H   H641      1.0  0.38533  0.35511  0.66854  1.0000
  C   C535      1.0  0.47211  0.50108  0.56795  1.0000
  H   H642      1.0  0.44446  0.34820  0.50396  1.0000
  C   C536      1.0  0.32938  0.53130  0.49999  1.0000
  C   C537      1.0  0.38119  0.58121  0.60440  1.0000
  S   S150      1.0  0.31618  0.63934  0.69527  1.0000
  H   H643      1.0  0.11355  0.65799  0.67857  1.0000
  C   C538      1.0  0.33421  0.37223  0.70883  1.0000
  H   H644      1.0  0.35775  0.63886  0.65774  1.0000
  H   H645      1.0  0.30979  0.38860  0.72475  1.0000
  C   C539      1.0  0.34729  0.34430  0.68334  1.0000
  C   C540      1.0  0.36471  0.38905  0.72667  1.0000
  H   H646      1.0  0.41700  0.47418  0.53778  1.0000
  H   H647      1.0  0.14000  0.62249  0.73029  1.0000
  H   H648      1.0  0.24766  0.65832  0.71432  1.0000
  H   H649      1.0  0.23184  0.52614  0.72248  1.0000
  H   H650      1.0  0.33634  0.51701  0.52401  1.0000
  C   C541      1.0  0.35690  0.36715  0.70465  1.0000
  H   H651      1.0  0.43478  0.45035  0.53796  1.0000
  C   C542      1.0  0.37009  0.62239  0.63635  1.0000
  C   C543      1.0  0.36908  0.60394  0.62730  1.0000
  H   H652      1.0  0.35852  0.62035  0.59799  1.0000
  C   C544      1.0  0.37345  0.57877  0.48804  1.0000
  H   H653      1.0  0.39400  0.37093  0.68352  1.0000
  H   H654      1.0  0.45285  0.45199  0.50273  1.0000
  H   H655      1.0  0.32143  0.36590  0.70279  1.0000
  H   H656      1.0  0.35110  0.57392  0.62750  1.0000
  H   H657      1.0  0.34330  0.58703  0.50231  1.0000
  C   C545      1.0  0.40063  0.44673  0.51971  1.0000
  H   H658      1.0  0.41736  0.60132  0.60274  1.0000
  S   S151      1.0  0.26284  0.60720  0.71603  1.0000
  C   C546      1.0  0.34214  0.60874  0.65701  1.0000
  C   C547      1.0  0.35370  0.58812  0.63372  1.0000
  C   C548      1.0  0.43745  0.44368  0.50704  1.0000
  C   C549      1.0  0.23220  0.49243  0.73339  1.0000
  N   N37       1.0  0.38298  0.60220  0.61165  1.0000
  H   H659      1.0  0.40389  0.43198  0.52841  1.0000
  H   H660      1.0  0.40999  0.62013  0.61772  1.0000
  H   H661      1.0  0.38088  0.63540  0.63202  1.0000
  C   C550      1.0  0.49136  0.51094  0.57036  1.0000
  H   H662      1.0  0.39497  0.63143  0.48879  1.0000
  C   C551      1.0  0.47985  0.60922  0.49709  1.0000
  H   H663      1.0  0.14468  0.63169  0.67789  1.0000
  C   C552      1.0  0.37193  0.37611  0.71391  1.0000
  C   C553      1.0  0.35686  0.62463  0.65101  1.0000
  C   C554      1.0  0.39612  0.51535  0.50026  1.0000
  C   C555      1.0  0.49180  0.46571  0.56800  1.0000
  H   H664      1.0  0.41166  0.59111  0.62386  1.0000
  H   H665      1.0  0.44190  0.42936  0.51571  1.0000
  H   H666      1.0  0.19819  0.64806  0.67223  1.0000
  C   C556      1.0  0.14387  0.62501  0.70401  1.0000
  H   H667      1.0  0.46202  0.61804  0.52863  1.0000
  Fe  Fe76      1.0  0.43673  0.34951  0.56801  1.0000
  C   C557      1.0  0.40645  0.60381  0.61415  1.0000
  H   H668      1.0  0.32864  0.57852  0.65293  1.0000
  C   C558      1.0  0.33720  0.51466  0.51105  1.0000
  C   C559      1.0  0.49035  0.64141  0.50865  1.0000
  H   H669      1.0  0.38534  0.61891  0.58719  1.0000
  H   H670      1.0  0.47335  0.64894  0.50864  1.0000
  H   H671      1.0  0.43630  0.58107  0.48838  1.0000
  H   H672      1.0  0.39227  0.58012  0.59289  1.0000
  N   N38       1.0  0.42069  0.45891  0.51488  1.0000
  C   C560      1.0  0.42943  0.46507  0.52992  1.0000
  S   S152      1.0  0.27557  0.54156  0.72593  1.0000
  C   C561      1.0  0.19002  0.65442  0.69740  1.0000
  C   C562      1.0  0.35085  0.58358  0.49032  1.0000
  C   C563      1.0  0.47236  0.47853  0.56675  1.0000
  H   H673      1.0  0.47874  0.59257  0.52986  1.0000
  H   H674      1.0  0.48771  0.61667  0.53717  1.0000
  C   C564      1.0  0.32135  0.65318  0.71228  1.0000
  H   H675      1.0  0.42089  0.34916  0.60573  1.0000
  H   H676      1.0  0.49733  0.60006  0.57938  1.0000
  H   H677      1.0  0.40906  0.34707  0.53197  1.0000
  N   N39       1.0  0.49030  0.61708  0.51076  1.0000
  H   H678      1.0  0.45742  0.47084  0.56509  1.0000
  H   H679      1.0  0.49178  0.44810  0.56732  1.0000
  C   C565      1.0  0.24163  0.51268  0.72811  1.0000
  C   C566      1.0  0.34043  0.66494  0.71143  1.0000
  H   H680      1.0  0.10826  0.64866  0.73191  1.0000
  C   C567      1.0  0.42216  0.48119  0.48696  1.0000
  H   H681      1.0  0.38083  0.34087  0.53803  1.0000
  H   H682      1.0  0.38662  0.35006  0.51051  1.0000
  H   H683      1.0  0.07240  0.65740  0.72936  1.0000
  C   C568      1.0  0.26337  0.51572  0.73079  1.0000
  H   H684      1.0  0.49947  0.64754  0.49693  1.0000
  H   H685      1.0  0.48982  0.52844  0.57134  1.0000
  H   H686      1.0  0.15844  0.61397  0.70345  1.0000
  C   C569      1.0  0.34762  0.49202  0.48875  1.0000
  C   C570      1.0  0.06917  0.66249  0.71644  1.0000
  C   C571      1.0  0.49517  0.33993  0.62830  1.0000
  C   C572      1.0  0.11535  0.64496  0.71989  1.0000
  C   C573      1.0  0.13351  0.62995  0.71913  1.0000
  H   H687      1.0  0.49828  0.64796  0.51865  1.0000
  H   H688      1.0  0.37647  0.39540  0.73376  1.0000
  H   H689      1.0  0.17782  0.66480  0.72105  1.0000
  C   C574      1.0  0.17664  0.66749  0.70797  1.0000
  H   H690      1.0  0.39365  0.33837  0.70294  1.0000
  H   H691      1.0  0.07602  0.66809  0.68353  1.0000
  H   H692      1.0  0.24900  0.66931  0.68426  1.0000
  C   C575      1.0  0.45123  0.58995  0.48627  1.0000
  C   C576      1.0  0.48643  0.33633  0.61387  1.0000
  C   C577      1.0  0.38817  0.33657  0.48779  1.0000
  Fe  Fe77      1.0  0.36069  0.42961  0.92083  1.0000
  S   S153      1.0  0.38656  0.45264  0.91047  1.0000
  S   S154      1.0  0.36115  0.41413  0.94720  1.0000
  Fe  Fe78      1.0  0.34071  0.43048  0.88722  1.0000
  S   S155      1.0  0.36514  0.45404  0.87487  1.0000
  S   S156      1.0  0.31361  0.41637  0.87449  1.0000
  Fe  Fe79      1.0  0.38996  0.43300  0.88871  1.0000
  S   S157      1.0  0.42290  0.42405  0.87558  1.0000
  Fe  Fe80      1.0  0.35942  0.47135  0.89784  1.0000
  S   S158      1.0  0.35486  0.50802  0.89847  1.0000
  S   S159      1.0  0.36612  0.40824  0.89976  1.0000
  S   S160      1.0  0.33297  0.44953  0.90949  1.0000
  Fe  Fe81      1.0  0.43723  0.59214  0.90806  1.0000
  S   S161      1.0  0.40565  0.61187  0.91343  1.0000
  S   S162      1.0  0.44145  0.55816  0.89937  1.0000
  Fe  Fe82      1.0  0.46503  0.62853  0.91450  1.0000
  H   H693      1.0  0.41291  0.58857  0.88177  1.0000
  Fe  Fe83      1.0  0.42158  0.62224  0.93473  1.0000
  H   H694      1.0  0.38379  0.57055  0.84790  1.0000
  S   S163      1.0  0.45162  0.59995  0.93070  1.0000
  S   S164      1.0  0.45303  0.61916  0.89138  1.0000
  C   C578      1.0  0.42405  0.65831  0.85065  1.0000
  H   H695      1.0  0.35785  0.40547  0.86257  1.0000
  H   H696      1.0  0.39362  0.37388  0.87764  1.0000
  H   H697      1.0  0.42694  0.46548  0.92484  1.0000
  Fe  Fe84      1.0  0.22981  0.37289  0.77960  1.0000
  S   S165      1.0  0.23308  0.38473  0.75284  1.0000
  H   H698      1.0  0.46619  0.65029  0.76548  1.0000
  Fe  Fe85      1.0  0.27319  0.39328  0.78542  1.0000
  S   S166      1.0  0.27950  0.40528  0.75853  1.0000
  S   S167      1.0  0.30096  0.40262  0.79987  1.0000
  Fe  Fe86      1.0  0.24399  0.41666  0.76017  1.0000
  C   C579      1.0  0.40995  0.60095  0.87127  1.0000
  Fe  Fe87      1.0  0.26839  0.37256  0.75346  1.0000
  H   H699      1.0  0.31221  0.36027  0.84471  1.0000
  S   S168      1.0  0.23771  0.40596  0.78725  1.0000
  S   S169      1.0  0.26503  0.35943  0.77993  1.0000
  S   S170      1.0  0.40174  0.66249  0.88139  1.0000
  H   H700      1.0  0.37173  0.62668  0.88267  1.0000
  H   H701      1.0  0.29943  0.66503  0.75026  1.0000
  H   H702      1.0  0.46450  0.38107  0.94787  1.0000
  C   C580      1.0  0.36366  0.61132  0.88432  1.0000
  S   S171      1.0  0.43588  0.65162  0.92005  1.0000
  H   H703      1.0  0.48454  0.66827  0.98171  1.0000
  H   H704      1.0  0.49633  0.39343  0.88580  1.0000
  H   H705      1.0  0.36447  0.55924  0.87230  1.0000
  C   C581      1.0  0.44102  0.62763  0.97435  1.0000
  H   H706      1.0  0.46020  0.45681  0.88508  1.0000
  N   N40       1.0  0.45768  0.46753  0.90942  1.0000
  H   H707      1.0  0.40053  0.61562  0.84067  1.0000
  N   N41       1.0  0.39082  0.59560  0.86302  1.0000
  C   C582      1.0  0.36150  0.45265  0.96242  1.0000
  C   C583      1.0  0.35714  0.36080  0.81721  1.0000
  S   S172      1.0  0.49956  0.63791  0.91644  1.0000
  H   H708      1.0  0.44958  0.62390  0.96275  1.0000
  S   S173      1.0  0.40294  0.62436  0.95977  1.0000
  C   C584      1.0  0.46808  0.38875  0.97240  1.0000
  C   C585      1.0  0.41812  0.62869  0.97619  1.0000
  H   H709      1.0  0.32077  0.58886  0.90813  1.0000
  C   C586      1.0  0.43444  0.39508  0.95933  1.0000
  C   C587      1.0  0.30917  0.41489  0.85349  1.0000
  C   C588      1.0  0.29063  0.40457  0.84976  1.0000
  C   C589      1.0  0.28734  0.40139  0.83340  1.0000
  C   C590      1.0  0.30284  0.40813  0.82056  1.0000
  C   C591      1.0  0.32101  0.41905  0.82423  1.0000
  C   C592      1.0  0.32397  0.42275  0.84052  1.0000
  H   H710      1.0  0.27895  0.39858  0.85964  1.0000
  H   H711      1.0  0.27325  0.39300  0.83084  1.0000
  H   H712      1.0  0.33300  0.42454  0.81440  1.0000
  H   H713      1.0  0.33783  0.43143  0.84305  1.0000
  C   C593      1.0  0.44172  0.40836  0.88737  1.0000
  C   C594      1.0  0.46392  0.40699  0.88144  1.0000
  C   C595      1.0  0.47928  0.39435  0.89049  1.0000
  C   C596      1.0  0.47241  0.38257  0.90534  1.0000
  C   C597      1.0  0.45018  0.38394  0.91127  1.0000
  C   C598      1.0  0.43489  0.39707  0.90243  1.0000
  H   H714      1.0  0.46929  0.41576  0.86981  1.0000
  H   H715      1.0  0.40145  0.56128  0.86396  1.0000
  H   H716      1.0  0.44472  0.37472  0.92268  1.0000
  H   H717      1.0  0.41777  0.39805  0.90709  1.0000
  C   C599      1.0  0.37929  0.52100  0.89952  1.0000
  C   C600      1.0  0.39894  0.51358  0.89121  1.0000
  C   C601      1.0  0.41795  0.52521  0.89118  1.0000
  C   C602      1.0  0.41744  0.54397  0.89969  1.0000
  C   C603      1.0  0.39791  0.55113  0.90822  1.0000
  C   C604      1.0  0.37887  0.53966  0.90812  1.0000
  H   H718      1.0  0.39928  0.49928  0.88443  1.0000
  H   H719      1.0  0.43300  0.51991  0.88436  1.0000
  H   H720      1.0  0.39744  0.56538  0.91501  1.0000
  H   H721      1.0  0.36377  0.54526  0.91474  1.0000
  H   H722      1.0  0.36287  0.46121  0.95024  1.0000
  Fe  Fe88      1.0  0.42243  0.63965  0.89821  1.0000
  C   C605      1.0  0.33554  0.35803  0.82365  1.0000
  H   H723      1.0  0.41100  0.36367  0.84392  1.0000
  H   H724      1.0  0.47340  0.44608  0.92773  1.0000
  C   C606      1.0  0.42401  0.40352  0.97344  1.0000
  H   H725      1.0  0.48815  0.65911  0.82224  1.0000
  H   H726      1.0  0.50027  0.45564  0.89724  1.0000
  H   H727      1.0  0.44702  0.66462  0.77916  1.0000
  C   C607      1.0  0.45812  0.66667  0.76766  1.0000
  C   C608      1.0  0.38258  0.56310  0.97757  1.0000
  H   H728      1.0  0.36238  0.48211  0.97467  1.0000
  C   C609      1.0  0.17487  0.34175  0.76926  1.0000
  H   H729      1.0  0.36800  0.53524  0.96991  1.0000
  C   C610      1.0  0.37592  0.54161  0.97952  1.0000
  C   C611      1.0  0.49506  0.66302  0.80972  1.0000
  H   H730      1.0  0.38495  0.35038  0.86887  1.0000
  H   H731      1.0  0.36530  0.37013  0.87748  1.0000
  C   C612      1.0  0.34154  0.57250  0.88997  1.0000
  H   H732      1.0  0.45942  0.51297  0.91103  1.0000
  H   H733      1.0  0.33326  0.55719  0.89246  1.0000
  H   H734      1.0  0.43145  0.49191  0.91508  1.0000
  H   H735      1.0  0.49381  0.59200  0.91380  1.0000
  C   C613      1.0  0.33458  0.59025  0.89888  1.0000
  C   C614      1.0  0.40479  0.38060  0.84641  1.0000
  C   C615      1.0  0.44833  0.46529  0.89381  1.0000
  C   C616      1.0  0.44013  0.47706  0.92087  1.0000
  C   C617      1.0  0.36119  0.46447  0.97631  1.0000
  H   H736      1.0  0.29248  0.50012  0.74048  1.0000
  C   C618      1.0  0.38635  0.61360  0.85013  1.0000
  H   H737      1.0  0.37171  0.61054  0.84388  1.0000
  H   H738      1.0  0.31320  0.34446  0.75698  1.0000
  C   C619      1.0  0.35998  0.42983  0.96432  1.0000
  H   H739      1.0  0.40676  0.39173  0.83488  1.0000
  C   C620      1.0  0.37246  0.36765  0.82691  1.0000
  H   H740      1.0  0.42527  0.60143  0.86284  1.0000
  H   H741      1.0  0.38567  0.41171  0.86325  1.0000
  H   H742      1.0  0.42525  0.39406  0.94883  1.0000
  H   H743      1.0  0.18297  0.35418  0.76099  1.0000
  C   C621      1.0  0.40650  0.66838  0.85982  1.0000
  C   C622      1.0  0.37449  0.40404  0.85596  1.0000
  H   H744      1.0  0.40766  0.61729  0.87611  1.0000
  C   C623      1.0  0.47479  0.50452  0.90720  1.0000
  C   C624      1.0  0.35969  0.57393  0.87831  1.0000
  C   C625      1.0  0.34560  0.60964  0.89604  1.0000
  C   C626      1.0  0.37140  0.59346  0.87516  1.0000
  H   H745      1.0  0.38318  0.62982  0.85520  1.0000
  C   C627      1.0  0.26637  0.47760  0.74330  1.0000
  N   N42       1.0  0.26210  0.46875  0.79819  1.0000
  C   C628      1.0  0.24082  0.46241  0.80706  1.0000
  C   C629      1.0  0.26877  0.45307  0.78582  1.0000
  C   C630      1.0  0.27867  0.46638  0.81037  1.0000
  C   C631      1.0  0.25994  0.49112  0.78964  1.0000
  C   C632      1.0  0.27535  0.50730  0.79039  1.0000
  C   C633      1.0  0.24288  0.49677  0.77923  1.0000
  C   C634      1.0  0.27363  0.52779  0.78127  1.0000
  C   C635      1.0  0.24115  0.51740  0.77039  1.0000
  C   C636      1.0  0.25662  0.53279  0.77126  1.0000
  H   H746      1.0  0.22818  0.46030  0.79863  1.0000
  H   H747      1.0  0.24246  0.44627  0.81453  1.0000
  H   H748      1.0  0.23421  0.47491  0.81546  1.0000
  H   H749      1.0  0.25640  0.45290  0.77681  1.0000
  H   H750      1.0  0.27084  0.43605  0.79166  1.0000
  H   H751      1.0  0.28466  0.45717  0.77881  1.0000
  H   H752      1.0  0.29562  0.46822  0.80442  1.0000
  H   H753      1.0  0.27508  0.47844  0.81968  1.0000
  H   H754      1.0  0.27904  0.44971  0.81719  1.0000
  H   H755      1.0  0.28912  0.50441  0.79768  1.0000
  H   H756      1.0  0.23122  0.48500  0.77728  1.0000
  H   H757      1.0  0.28579  0.53976  0.78169  1.0000
  H   H758      1.0  0.22826  0.52115  0.76226  1.0000
  H   H759      1.0  0.25573  0.54841  0.76379  1.0000
  H   H760      1.0  0.47415  0.43512  0.90811  1.0000
  S   S174      1.0  0.49116  0.36562  0.91646  1.0000
  N   N43       1.0  0.38164  0.38092  0.85370  1.0000
  C   C637      1.0  0.38134  0.36821  0.87007  1.0000
  H   H761      1.0  0.41189  0.57735  0.84591  1.0000
  H   H762      1.0  0.43545  0.64688  0.85679  1.0000
  C   C638      1.0  0.45646  0.38776  0.95879  1.0000
  H   H763      1.0  0.37405  0.41413  0.84398  1.0000
  C   C639      1.0  0.36639  0.37203  0.84346  1.0000
  C   C640      1.0  0.39716  0.57526  0.85485  1.0000
  S   S175      1.0  0.23118  0.44999  0.74824  1.0000
  C   C641      1.0  0.47676  0.48147  0.90588  1.0000
  C   C642      1.0  0.27567  0.49799  0.73832  1.0000
  H   H764      1.0  0.49058  0.53529  0.90400  1.0000
  H   H765      1.0  0.44685  0.48149  0.93211  1.0000
  H   H766      1.0  0.38877  0.36983  0.82105  1.0000
  S   S176      1.0  0.20345  0.35014  0.79229  1.0000
  H   H767      1.0  0.44355  0.48157  0.88756  1.0000
  C   C643      1.0  0.46409  0.44518  0.91690  1.0000
  C   C644      1.0  0.34422  0.36903  0.84959  1.0000
  C   C645      1.0  0.49756  0.47270  0.89956  1.0000
  H   H768      1.0  0.41587  0.38667  0.85476  1.0000
  C   C646      1.0  0.49269  0.51767  0.90310  1.0000
  H   H769      1.0  0.34033  0.62341  0.90308  1.0000
  H   H770      1.0  0.43339  0.45566  0.89585  1.0000
  H   H771      1.0  0.48515  0.38274  0.97198  1.0000
  H   H772      1.0  0.32353  0.35345  0.81594  1.0000
  H   H773      1.0  0.27613  0.46418  0.74895  1.0000
  H   H774      1.0  0.33673  0.40330  0.74059  1.0000
  H   H775      1.0  0.07875  0.33809  0.74146  1.0000
  H   H776      1.0  0.44954  0.43532  0.92093  1.0000
  H   H777      1.0  0.37991  0.57352  0.96639  1.0000
  H   H778      1.0  0.47638  0.65098  0.95653  1.0000
  C   C647      1.0  0.32918  0.36189  0.83985  1.0000
  C   C648      1.0  0.18172  0.33668  0.78502  1.0000
  H   H779      1.0  0.44061  0.65536  0.82654  1.0000
  H   H780      1.0  0.35672  0.40140  0.98186  1.0000
  C   C649      1.0  0.31091  0.66508  0.73940  1.0000
  H   H781      1.0  0.40681  0.40873  0.97326  1.0000
  H   H782      1.0  0.49900  0.66528  0.94602  1.0000
  C   C650      1.0  0.35808  0.41902  0.98026  1.0000
  H   H783      1.0  0.33800  0.37311  0.86174  1.0000
  C   C651      1.0  0.24439  0.47480  0.74116  1.0000
  H   H784      1.0  0.36187  0.35807  0.80450  1.0000
  C   C652      1.0  0.48101  0.66673  0.94958  1.0000
  C   C653      1.0  0.42695  0.66320  0.83350  1.0000
  H   H785      1.0  0.47322  0.66793  0.93787  1.0000
  C   C654      1.0  0.04279  0.89215  0.99918  1.0000
  Fe  Fe89      1.0  0.10117  0.93181  0.07137  1.0000
  S   S177      1.0  0.13147  0.90947  0.06786  1.0000
  S   S178      1.0  0.06819  0.92456  0.08422  1.0000
  Fe  Fe90      1.0  0.12112  0.97042  0.05083  1.0000
  S   S179      1.0  0.15321  0.95169  0.04564  1.0000
  Fe  Fe91      1.0  0.13269  0.92412  0.04148  1.0000
  S   S180      1.0  0.13627  0.90478  0.01921  1.0000
  Fe  Fe92      1.0  0.14933  0.93903  0.07255  1.0000
  S   S181      1.0  0.17932  0.93978  0.08702  1.0000
  S   S182      1.0  0.10098  0.94375  0.04491  1.0000
  S   S183      1.0  0.11867  0.96037  0.07787  1.0000
  H   H786      1.0  0.40307  0.83229  0.21293  1.0000
  H   H787      1.0  0.05157  0.99747  0.10175  1.0000
  C   C655      1.0  0.00335  0.78332  0.11540  1.0000
  Fe  Fe93      1.0  0.41671  0.73815  0.21480  1.0000
  S   S184      1.0  0.41283  0.75409  0.18918  1.0000
  C   C656      1.0  0.14909  0.81935  0.23367  1.0000
  Fe  Fe94      1.0  0.36797  0.72582  0.21954  1.0000
  S   S185      1.0  0.36087  0.74087  0.19452  1.0000
  H   H788      1.0  0.09966  0.70313  0.22529  1.0000
  Fe  Fe95      1.0  0.39357  0.72464  0.18580  1.0000
  S   S186      1.0  0.39452  0.69888  0.16721  1.0000
  Fe  Fe96      1.0  0.38008  0.76893  0.19990  1.0000
  S   S187      1.0  0.36873  0.80550  0.19986  1.0000
  S   S188      1.0  0.39928  0.70800  0.21086  1.0000
  S   S189      1.0  0.38542  0.75453  0.22551  1.0000
  Fe  Fe97      1.0  0.25589  0.88530  0.19244  1.0000
  S   S190      1.0  0.25085  0.89809  0.21740  1.0000
  S   S191      1.0  0.27830  0.85720  0.18221  1.0000
  Fe  Fe98      1.0  0.21206  0.90840  0.18185  1.0000
  S   S192      1.0  0.20368  0.92223  0.20631  1.0000
  S   S193      1.0  0.18671  0.90860  0.16305  1.0000
  Fe  Fe99      1.0  0.23918  0.93063  0.20450  1.0000
  H   H789      1.0  0.43164  0.83660  0.21109  1.0000
  Fe  Fe100     1.0  0.21571  0.88917  0.21758  1.0000
  N   N44       1.0  0.24987  0.81376  0.22462  1.0000
  S   S194      1.0  0.24696  0.91841  0.17916  1.0000
  S   S195      1.0  0.22129  0.87484  0.19362  1.0000
  C   C657      1.0  0.00536  0.68571  0.21638  1.0000
  S   S196      1.0  0.44684  0.73249  0.22986  1.0000
  C   C658      1.0  0.06457  0.98817  0.07065  1.0000
  H   H790      1.0  0.38685  0.80596  0.23209  1.0000
  C   C659      1.0  0.00747  0.69353  0.23142  1.0000
  H   H791      1.0  0.07489  0.71834  0.21995  1.0000
  C   C660      1.0  0.34729  0.67050  0.23341  1.0000
  H   H792      1.0  0.01378  0.75136  0.20506  1.0000
  H   H793      1.0  0.08229  0.87562  0.02479  1.0000
  C   C661      1.0  0.34282  0.81892  0.19569  1.0000
  C   C662      1.0  0.32877  0.81042  0.18577  1.0000
  C   C663      1.0  0.30926  0.82243  0.18175  1.0000
  C   C664      1.0  0.30312  0.84283  0.18792  1.0000
  C   C665      1.0  0.31682  0.85102  0.19825  1.0000
  C   C666      1.0  0.33664  0.83928  0.20191  1.0000
  H   H794      1.0  0.33328  0.79489  0.18079  1.0000
  H   H795      1.0  0.29889  0.81586  0.17374  1.0000
  H   H796      1.0  0.31246  0.86668  0.20307  1.0000
  H   H797      1.0  0.34735  0.84614  0.20952  1.0000
  H   H798      1.0  0.03925  0.90113  0.03166  1.0000
  H   H799      1.0  0.00425  0.89009  0.06979  1.0000
  C   C667      1.0  0.17315  0.84826  0.22188  1.0000
  H   H800      1.0  0.15184  0.83200  0.20821  1.0000
  H   H801      1.0  0.17922  0.85893  0.21138  1.0000
  H   H802      1.0  0.02218  0.67199  0.19532  1.0000
  H   H803      1.0  0.00642  0.83911  0.08481  1.0000
  C   C668      1.0  0.40985  0.67070  0.12437  1.0000
  C   C669      1.0  0.33930  0.68391  0.16846  1.0000
  H   H804      1.0  0.06672  0.85957  0.05394  1.0000
  C   C670      1.0  0.40495  0.69495  0.14667  1.0000
  H   H805      1.0  0.03457  0.96119  0.07204  1.0000
  C   C671      1.0  0.47229  0.74259  0.23409  1.0000
  H   H806      1.0  0.47396  0.68168  0.11018  1.0000
  H   H807      1.0  0.18912  0.98457  0.03164  1.0000
  C   C672      1.0  0.41571  0.71117  0.13630  1.0000
  C   C673      1.0  0.31483  0.69225  0.20014  1.0000
  H   H808      1.0  0.32382  0.68643  0.16234  1.0000
  H   H809      1.0  0.01836  0.79112  0.11651  1.0000
  H   H810      1.0  0.41795  0.72684  0.14074  1.0000
  C   C674      1.0  0.01164  0.74920  0.23147  1.0000
  C   C675      1.0  0.42045  0.68698  0.11395  1.0000
  C   C676      1.0  0.18060  0.93228  0.10842  1.0000
  C   C677      1.0  0.19997  0.93535  0.11560  1.0000
  C   C678      1.0  0.20202  0.92877  0.13235  1.0000
  C   C679      1.0  0.18478  0.91873  0.14211  1.0000
  C   C680      1.0  0.16533  0.91595  0.13496  1.0000
  C   C681      1.0  0.16317  0.92277  0.11827  1.0000
  H   H811      1.0  0.21356  0.94269  0.10812  1.0000
  H   H812      1.0  0.21695  0.93140  0.13766  1.0000
  H   H813      1.0  0.15185  0.90827  0.14237  1.0000
  H   H814      1.0  0.14818  0.92026  0.11297  1.0000
  C   C682      1.0  0.13849  0.91994  0.99971  1.0000
  C   C683      1.0  0.14123  0.94257  0.99811  1.0000
  H   H815      1.0  0.08830  0.89631  0.99120  1.0000
  H   H816      1.0  0.14191  0.95110  0.00893  1.0000
  C   C684      1.0  0.03416  0.87288  0.06100  1.0000
  C   C685      1.0  0.05712  0.87233  0.06003  1.0000
  C   C686      1.0  0.06776  0.88844  0.06684  1.0000
  C   C687      1.0  0.05541  0.90451  0.07527  1.0000
  C   C688      1.0  0.03251  0.90468  0.07657  1.0000
  C   C689      1.0  0.02191  0.88924  0.06914  1.0000
  H   H817      1.0  0.09200  0.90970  0.00879  1.0000
  H   H818      1.0  0.08548  0.88812  0.06590  1.0000
  H   H819      1.0  0.02294  0.91695  0.08319  1.0000
  H   H820      1.0  0.16145  0.98513  0.07179  1.0000
  H   H821      1.0  0.45160  0.68558  0.99093  1.0000
  H   H822      1.0  0.01979  0.87968  0.01945  1.0000
  C   C690      1.0  0.02476  0.99477  0.07850  1.0000
  C   C691      1.0  0.29652  0.69740  0.21085  1.0000
  H   H823      1.0  0.27013  0.84192  0.21961  1.0000
  C   C692      1.0  0.20374  0.98030  0.05973  1.0000
  C   C693      1.0  0.08300  0.70151  0.22139  1.0000
  H   H824      1.0  0.12815  0.87388  0.22347  1.0000
  C   C694      1.0  0.41763  0.83200  0.22014  1.0000
  C   C695      1.0  0.17310  0.99643  0.07561  1.0000
  C   C696      1.0  0.24500  0.98352  0.22404  1.0000
  H   H825      1.0  0.43157  0.71990  0.11211  1.0000
  H   H826      1.0  0.41241  0.68613  0.99760  1.0000
  H   H827      1.0  0.06198  0.98246  0.05859  1.0000
  C   C697      1.0  0.40215  0.67469  0.14059  1.0000
  C   C698      1.0  0.42635  0.79399  0.21663  1.0000
  H   H828      1.0  0.35290  0.67990  0.15904  1.0000
  H   H829      1.0  0.05857  0.67222  0.20497  1.0000
  H   H830      1.0  0.03388  0.79479  0.08935  1.0000
  N   N45       1.0  0.23773  0.86532  0.14065  1.0000
  C   C699      1.0  0.24541  0.88565  0.14601  1.0000
  C   C700      1.0  0.22525  0.85378  0.15500  1.0000
  C   C701      1.0  0.25717  0.85074  0.13600  1.0000
  C   C702      1.0  0.22466  0.87105  0.12645  1.0000
  C   C703      1.0  0.23466  0.88073  0.11138  1.0000
  C   C704      1.0  0.20179  0.86788  0.12719  1.0000
  C   C705      1.0  0.22263  0.88653  0.09787  1.0000
  C   C706      1.0  0.18998  0.87359  0.11356  1.0000
  C   C707      1.0  0.20036  0.88289  0.09894  1.0000
  H   H831      1.0  0.25558  0.88202  0.15654  1.0000
  H   H832      1.0  0.25557  0.89503  0.13614  1.0000
  H   H833      1.0  0.23127  0.89678  0.15001  1.0000
  H   H834      1.0  0.21129  0.86448  0.16001  1.0000
  H   H835      1.0  0.23573  0.84916  0.16526  1.0000
  H   H836      1.0  0.21875  0.83839  0.15178  1.0000
  H   H837      1.0  0.26894  0.85902  0.12665  1.0000
  H   H838      1.0  0.26670  0.84537  0.14672  1.0000
  H   H839      1.0  0.25216  0.83575  0.13103  1.0000
  H   H840      1.0  0.25178  0.88433  0.11004  1.0000
  H   H841      1.0  0.19244  0.86161  0.13828  1.0000
  H   H842      1.0  0.23044  0.89434  0.08659  1.0000
  H   H843      1.0  0.17245  0.87158  0.11450  1.0000
  H   H844      1.0  0.19091  0.88801  0.08860  1.0000
  H   H845      1.0  0.26432  0.81646  0.19953  1.0000
  H   H846      1.0  0.08538  0.69548  0.20902  1.0000
  H   H847      1.0  0.06511  0.91265  0.03065  1.0000
  H   H848      1.0  0.02021  0.78067  0.07551  1.0000
  H   H849      1.0  0.26718  0.68563  0.22454  1.0000
  H   H850      1.0  0.21726  0.98264  0.04978  1.0000
  N   N46       1.0  0.06049  0.89551  0.00958  1.0000
  N   N47       1.0  0.06974  0.68687  0.23338  1.0000
  H   H851      1.0  0.32682  0.70454  0.19723  1.0000
  C   C708      1.0  0.48148  0.76103  0.22522  1.0000
  H   H852      1.0  0.19327  0.96733  0.05676  1.0000
  H   H853      1.0  0.08081  0.99559  0.06900  1.0000
  H   H854      1.0  0.29484  0.71324  0.21582  1.0000
  C   C709      1.0  0.28105  0.68185  0.21586  1.0000
  H   H855      1.0  0.23599  0.82513  0.20200  1.0000
  H   H856      1.0  0.42820  0.77683  0.22233  1.0000
  H   H857      1.0  0.29418  0.81347  0.21565  1.0000
  H   H858      1.0  0.02754  0.80865  0.07014  1.0000
  S   S197      1.0  0.43129  0.68262  0.09358  1.0000
  S   S198      1.0  0.04082  0.74958  0.23188  1.0000
  C   C710      1.0  0.02390  0.67790  0.20709  1.0000
  H   H859      1.0  0.47316  0.76965  0.21530  1.0000
  C   C711      1.0  0.07948  0.90659  0.00046  1.0000
  H   H860      1.0  0.41288  0.79451  0.20844  1.0000
  H   H861      1.0  0.17974  0.98823  0.08694  1.0000
  C   C712      1.0  0.00287  0.74983  0.21621  1.0000
  S   S199      1.0  0.12871  0.80136  0.23071  1.0000
  N   N48       1.0  0.42181  0.81003  0.22905  1.0000
  C   C713      1.0  0.15760  0.83299  0.22011  1.0000
  C   C714      1.0  0.24853  0.81284  0.20682  1.0000
  C   C715      1.0  0.04466  0.67808  0.21275  1.0000
  H   H862      1.0  0.04454  0.92525  0.01797  1.0000
  C   C716      1.0  0.25539  0.83627  0.22745  1.0000
  C   C717      1.0  0.04746  0.68617  0.22796  1.0000
  S   S200      1.0  0.25001  0.96516  0.20821  1.0000
  H   H863      1.0  0.45247  0.84171  0.23165  1.0000
  C   C718      1.0  0.22768  0.81004  0.23303  1.0000
  H   H864      1.0  0.05568  0.86511  0.02484  1.0000
  C   C719      1.0  0.02123  0.79681  0.08046  1.0000
  C   C720      1.0  0.02261  0.88385  0.00637  1.0000
  C   C721      1.0  0.05194  0.90923  0.02298  1.0000
  S   S201      1.0  0.02087  0.85352  0.05161  1.0000
  H   H865      1.0  0.06614  0.97355  0.07976  1.0000
  H   H866      1.0  0.21125  0.97321  0.07103  1.0000
  C   C722      1.0  0.06876  0.87388  0.01696  1.0000
  H   H867      1.0  0.07521  0.86301  0.00732  1.0000
  H   H868      1.0  0.34327  0.69996  0.17235  1.0000
  H   H869      1.0  0.01515  0.82501  0.10310  1.0000
  C   C723      1.0  0.42337  0.70719  0.12005  1.0000
  C   C724      1.0  0.02135  0.97266  0.07585  1.0000
  H   H870      1.0  0.35982  0.68157  0.19600  1.0000
  H   H871      1.0  0.24425  0.79625  0.20416  1.0000
  H   H872      1.0  0.44178  0.79736  0.20875  1.0000
  H   H873      1.0  0.07438  0.92282  0.99426  1.0000
  C   C725      1.0  0.28936  0.79972  0.22416  1.0000
  H   H874      1.0  0.22169  0.79398  0.23069  1.0000
  H   H875      1.0  0.13547  0.89160  0.98668  1.0000
  H   H876      1.0  0.45880  0.67382  0.12903  1.0000
  H   H877      1.0  0.36326  0.67470  0.22764  1.0000
  H   H878      1.0  0.24189  0.84868  0.22456  1.0000
  H   H879      1.0  0.32277  0.78623  0.22376  1.0000
  C   C726      1.0  0.26709  0.79745  0.23027  1.0000
  C   C727      1.0  0.30588  0.78419  0.22875  1.0000
  H   H880      1.0  0.41417  0.84494  0.22877  1.0000
  C   C728      1.0  0.00199  0.82593  0.09468  1.0000
  H   H881      1.0  0.48591  0.72615  0.19922  1.0000
  H   H882      1.0  0.17117  0.00182  0.00841  1.0000
  H   H883      1.0  0.21530  0.82271  0.22853  1.0000
  H   H884      1.0  0.00462  0.76547  0.13930  1.0000
  N   N49       1.0  0.19075  0.00121  0.06233  1.0000
  C   C729      1.0  0.49700  0.71445  0.20552  1.0000
  C   C730      1.0  0.47545  0.67226  0.12237  1.0000
  H   H885      1.0  0.48671  0.68050  0.12930  1.0000
  C   C731      1.0  0.31799  0.67141  0.19384  1.0000
  C   C732      1.0  0.48925  0.69459  0.21279  1.0000
  C   C733      1.0  0.18133  0.00071  0.03285  1.0000
  C   C734      1.0  0.00569  0.88043  0.99683  1.0000
  H   H886      1.0  0.47230  0.69102  0.21207  1.0000
  H   H887      1.0  0.15119  0.89874  0.23525  1.0000
  C   C735      1.0  0.50147  0.76845  0.22927  1.0000
  Fe  Fe101     1.0  0.02195  0.86477  0.39478  1.0000
  S   S202      1.0  0.04597  0.83677  0.40112  1.0000
  Fe  Fe102     1.0  0.05589  0.89858  0.39292  1.0000
  S   S203      1.0  0.08278  0.87341  0.39910  1.0000
  S   S204      1.0  0.05895  0.93515  0.38752  1.0000
  Fe  Fe103     1.0  0.06890  0.85321  0.38135  1.0000
  S   S205      1.0  0.09228  0.83444  0.36345  1.0000
  Fe  Fe104     1.0  0.05748  0.85913  0.41832  1.0000
  S   S206      1.0  0.06282  0.84347  0.44404  1.0000
  S   S207      1.0  0.04386  0.87974  0.37375  1.0000
  S   S208      1.0  0.03166  0.88588  0.41331  1.0000
  H   H888      1.0  0.16542  0.86229  0.41166  1.0000
  Fe  Fe105     1.0  0.10536  0.73374  0.26832  1.0000
  H   H889      1.0  0.14040  0.73819  0.32137  1.0000
  S   S209      1.0  0.12124  0.70093  0.27873  1.0000
  Fe  Fe106     1.0  0.07906  0.77388  0.28102  1.0000
  S   S210      1.0  0.07335  0.78890  0.25557  1.0000
  S   S211      1.0  0.06173  0.79052  0.30275  1.0000
  Fe  Fe107     1.0  0.06583  0.75512  0.25007  1.0000
  N   N50       1.0  0.09601  0.84722  0.27487  1.0000
  Fe  Fe108     1.0  0.10885  0.77896  0.24934  1.0000
  H   H890      1.0  0.15613  0.88315  0.43220  1.0000
  S   S212      1.0  0.06924  0.74048  0.27597  1.0000
  S   S213      1.0  0.11521  0.76633  0.27518  1.0000
  H   H891      1.0  0.14911  0.90021  0.26520  1.0000
  H   H892      1.0  0.30120  0.69369  0.25255  1.0000
  C   C736      1.0  0.17217  0.83614  0.25080  1.0000
  C   C737      1.0  0.15352  0.84350  0.39459  1.0000
  H   H893      1.0  0.15065  0.70391  0.24802  1.0000
  H   H894      1.0  0.17784  0.83730  0.26270  1.0000
  H   H895      1.0  0.15071  0.80988  0.25941  1.0000
  H   H896      1.0  0.13747  0.82481  0.37885  1.0000
  H   H897      1.0  0.06034  0.68479  0.25945  1.0000
  H   H898      1.0  0.09895  0.69996  0.34030  1.0000
  C   C738      1.0  0.30074  0.76595  0.23960  1.0000
  C   C739      1.0  0.07524  0.76753  0.35605  1.0000
  C   C740      1.0  0.01664  0.95806  0.41726  1.0000
  H   H899      1.0  0.07509  0.83936  0.25666  1.0000
  H   H900      1.0  0.12243  0.95999  0.37968  1.0000
  H   H901      1.0  0.07283  0.90682  0.47471  1.0000
  C   C741      1.0  0.08377  0.82330  0.34610  1.0000
  C   C742      1.0  0.06163  0.82337  0.34339  1.0000
  C   C743      1.0  0.05532  0.81338  0.32999  1.0000
  C   C744      1.0  0.07101  0.80331  0.31908  1.0000
  C   C745      1.0  0.09324  0.80363  0.32155  1.0000
  C   C746      1.0  0.09955  0.81353  0.33503  1.0000
  H   H902      1.0  0.04930  0.83079  0.35179  1.0000
  H   H903      1.0  0.03809  0.81328  0.32819  1.0000
  H   H904      1.0  0.10552  0.79600  0.31327  1.0000
  H   H905      1.0  0.11672  0.81333  0.33705  1.0000
  C   C747      1.0  0.07614  0.94814  0.39898  1.0000
  C   C748      1.0  0.07703  0.97106  0.39660  1.0000
  C   C749      1.0  0.09057  0.98198  0.40553  1.0000
  C   C750      1.0  0.10364  0.97000  0.41666  1.0000
  C   C751      1.0  0.10262  0.94708  0.41918  1.0000
  C   C752      1.0  0.08879  0.93615  0.41041  1.0000
  H   H906      1.0  0.06730  0.98040  0.38778  1.0000
  H   H907      1.0  0.09802  0.87106  0.43342  1.0000
  H   H908      1.0  0.11261  0.93778  0.42786  1.0000
  H   H909      1.0  0.08801  0.91850  0.41238  1.0000
  C   C753      1.0  0.06451  0.85701  0.46191  1.0000
  C   C754      1.0  0.15609  0.68974  0.25581  1.0000
  H   H910      1.0  0.12429  0.87774  0.28351  1.0000
  H   H911      1.0  0.06560  0.88974  0.44971  1.0000
  N   N51       1.0  0.13117  0.85936  0.43717  1.0000
  H   H912      1.0  0.14908  0.87572  0.45335  1.0000
  H   H913      1.0  0.10278  0.83277  0.42541  1.0000
  H   H914      1.0  0.16728  0.84679  0.38555  1.0000
  C   C755      1.0  0.11393  0.87733  0.43571  1.0000
  C   C756      1.0  0.07967  0.75448  0.34298  1.0000
  C   C757      1.0  0.09203  0.85326  0.29203  1.0000
  C   C758      1.0  0.07420  0.84688  0.26846  1.0000
  S   S214      1.0  0.19989  0.86912  0.23985  1.0000
  C   C759      1.0  0.06651  0.87971  0.46124  1.0000
  H   H915      1.0  0.03129  0.99797  0.40242  1.0000
  H   H916      1.0  0.11094  0.88594  0.44710  1.0000
  C   C760      1.0  0.13687  0.83098  0.39080  1.0000
  C   C761      1.0  0.15222  0.85232  0.40974  1.0000
  H   H917      1.0  0.17535  0.99912  0.38721  1.0000
  H   H918      1.0  0.10572  0.81776  0.39902  1.0000
  H   H919      1.0  0.06272  0.83672  0.27697  1.0000
  N   N52       1.0  0.10627  0.73023  0.32580  1.0000
  C   C762      1.0  0.11900  0.82693  0.40222  1.0000
  C   C763      1.0  0.12403  0.87666  0.27053  1.0000
  H   H920      1.0  0.12305  0.85084  0.46317  1.0000
  H   H921      1.0  0.11836  0.88975  0.42528  1.0000
  H   H922      1.0  0.12734  0.70614  0.33873  1.0000
  H   H923      1.0  0.14315  0.99958  0.46692  1.0000
  H   H924      1.0  0.13603  0.82875  0.45207  1.0000
  C   C764      1.0  0.13406  0.84866  0.42165  1.0000
  H   H925      1.0  0.46744  0.77203  0.26578  1.0000
  C   C765      1.0  0.10655  0.82479  0.27528  1.0000
  N   N53       1.0  0.11023  0.00232  0.47866  1.0000
  H   H926      1.0  0.39792  0.81561  0.24938  1.0000
  C   C766      1.0  0.46363  0.78736  0.25855  1.0000
  H   H927      1.0  0.07971  0.84288  0.29945  1.0000
  H   H928      1.0  0.11566  0.96919  0.47179  1.0000
  H   H929      1.0  0.06272  0.71240  0.24962  1.0000
  H   H930      1.0  0.09263  0.71925  0.30498  1.0000
  H   H931      1.0  0.01006  0.94441  0.38825  1.0000
  H   H932      1.0  0.18276  0.68015  0.23830  1.0000
  C   C767      1.0  0.11248  0.70729  0.33192  1.0000
  H   H933      1.0  0.12891  0.73042  0.30394  1.0000
  H   H934      1.0  0.09112  0.99966  0.40360  1.0000
  C   C768      1.0  0.13161  0.97460  0.37638  1.0000
  S   S215      1.0  0.12161  0.98341  0.42723  1.0000
  S   S216      1.0  0.10135  0.74595  0.24208  1.0000
  C   C769      1.0  0.44049  0.80885  0.23928  1.0000
  H   H935      1.0  0.06647  0.75368  0.33532  1.0000
  H   H936      1.0  0.03324  0.96375  0.41307  1.0000
  H   H937      1.0  0.10708  0.85068  0.29867  1.0000
  C   C770      1.0  0.11249  0.86152  0.24687  1.0000
  C   C771      1.0  0.07054  0.88937  0.47543  1.0000
  C   C772      1.0  0.15140  0.86902  0.44115  1.0000
  C   C773      1.0  0.22866  0.99341  0.25081  1.0000
  C   C774      1.0  0.15669  0.82071  0.24900  1.0000
  H   H938      1.0  0.09726  0.98610  0.45979  1.0000
  C   C775      1.0  0.10070  0.74370  0.33979  1.0000
  H   H939      1.0  0.24598  0.77540  0.24664  1.0000
  H   H940      1.0  0.11629  0.69666  0.32162  1.0000
  C   C776      1.0  0.11215  0.75992  0.36354  1.0000
  H   H941      1.0  0.12474  0.76233  0.37145  1.0000
  H   H942      1.0  0.31358  0.75391  0.24312  1.0000
  C   C777      1.0  0.10242  0.98249  0.47245  1.0000
  C   C778      1.0  0.11039  0.86226  0.26416  1.0000
  C   C779      1.0  0.33283  0.68684  0.23964  1.0000
  H   H943      1.0  0.16535  0.85646  0.44152  1.0000
  H   H944      1.0  0.08808  0.78125  0.37594  1.0000
  C   C780      1.0  0.44550  0.78931  0.24936  1.0000
  C   C781      1.0  0.02814  0.69385  0.23719  1.0000
  C   C782      1.0  0.11672  0.74663  0.35061  1.0000
  C   C783      1.0  0.12488  0.99045  0.36420  1.0000
  C   C784      1.0  0.08793  0.72944  0.31539  1.0000
  H   H945      1.0  0.05929  0.77609  0.35801  1.0000
  H   H946      1.0  0.08288  0.74616  0.30994  1.0000
  C   C785      1.0  0.09147  0.77045  0.36620  1.0000
  H   H947      1.0  0.13302  0.73889  0.34901  1.0000
  H   H948      1.0  0.10775  0.83745  0.45057  1.0000
  C   C786      1.0  0.12507  0.73937  0.31513  1.0000
  C   C787      1.0  0.12431  0.84338  0.45127  1.0000
  H   H949      1.0  0.21863  0.98906  0.26208  1.0000
  C   C788      1.0  0.26238  0.77863  0.24134  1.0000
  C   C789      1.0  0.11754  0.83561  0.41740  1.0000
  H   H950      1.0  0.07339  0.72201  0.32244  1.0000
  C   C790      1.0  0.14490  0.68480  0.27127  1.0000
  C   C791      1.0  0.48368  0.73154  0.24682  1.0000
  H   H951      1.0  0.47686  0.71723  0.25375  1.0000
  H   H952      1.0  0.12150  0.75700  0.31106  1.0000
  S   S217      1.0  0.33956  0.71457  0.23739  1.0000
  C   C792      1.0  0.13838  0.88978  0.26014  1.0000
  H   H953      1.0  0.43595  0.77499  0.24975  1.0000
  H   H954      1.0  0.22733  0.81105  0.24649  1.0000
  H   H955      1.0  0.15415  0.96597  0.39471  1.0000
  C   C793      1.0  0.31240  0.68111  0.24760  1.0000
  H   H956      1.0  0.09636  0.81279  0.28315  1.0000
  H   H957      1.0  0.25830  0.83725  0.24049  1.0000
  H   H958      1.0  0.01233  0.96257  0.42999  1.0000
  C   C794      1.0  0.14958  0.97783  0.38478  1.0000
  H   H959      1.0  0.22421  0.96281  0.24062  1.0000
  H   H960      1.0  0.08564  0.87064  0.29239  1.0000
  H   H961      1.0  0.06648  0.86378  0.26661  1.0000
  H   H962      1.0  0.12289  0.82421  0.28016  1.0000
  C   C795      1.0  0.16144  0.99653  0.38058  1.0000
  H   H963      1.0  0.02331  0.96977  0.38495  1.0000
  C   C796      1.0  0.06545  0.84431  0.47704  1.0000
  H   H964      1.0  0.10918  0.81894  0.26281  1.0000
  C   C797      1.0  0.45479  0.82630  0.23901  1.0000
  C   C798      1.0  0.12656  0.87502  0.23661  1.0000
  H   H965      1.0  0.02852  0.70096  0.24864  1.0000
  C   C799      1.0  0.17437  0.67620  0.25032  1.0000
  H   H966      1.0  0.10402  0.84986  0.24110  1.0000
  C   C800      1.0  0.18033  0.85007  0.23726  1.0000
  C   C801      1.0  0.00740  0.96243  0.38927  1.0000
  C   C802      1.0  0.27906  0.76318  0.24589  1.0000
  H   H967      1.0  0.11070  0.98719  0.35820  1.0000
  H   H968      1.0  0.06389  0.82673  0.47768  1.0000
  H   H969      1.0  0.01862  0.93978  0.41766  1.0000
  H   H970      1.0  0.49196  0.80268  0.26455  1.0000
  H   H971      1.0  0.08672  0.69543  0.25355  1.0000
  C   C803      1.0  0.13956  0.88904  0.24322  1.0000
  H   H972      1.0  0.40200  0.78735  0.24521  1.0000
  H   H973      1.0  0.00354  0.74633  0.25759  1.0000
  C   C804      1.0  0.47302  0.82407  0.24816  1.0000
  C   C805      1.0  0.47748  0.80461  0.25784  1.0000
  C   C806      1.0  0.06978  0.69520  0.24973  1.0000
  C   C807      1.0  0.23180  0.97842  0.23863  1.0000
  H   H974      1.0  0.48398  0.83737  0.24758  1.0000
  H   H975      1.0  0.08785  0.97614  0.48014  1.0000
  H   H976      1.0  0.27522  0.74885  0.25428  1.0000
  C   C808      1.0  0.40134  0.80451  0.23941  1.0000
  Fe  Fe109     1.0  0.05964  0.90107  0.56570  1.0000
  S   S218      1.0  0.08925  0.88255  0.55474  1.0000
  S   S219      1.0  0.05918  0.93199  0.57846  1.0000
  Fe  Fe110     1.0  0.02882  0.86728  0.55830  1.0000
  S   S220      1.0  0.05603  0.84602  0.54672  1.0000
  Fe  Fe111     1.0  0.07400  0.85265  0.56831  1.0000
  S   S221      1.0  0.09364  0.82659  0.58346  1.0000
  Fe  Fe112     1.0  0.06830  0.87799  0.53433  1.0000
  S   S222      1.0  0.07903  0.88902  0.50763  1.0000
  S   S223      1.0  0.04576  0.87165  0.58051  1.0000
  S   S224      1.0  0.03965  0.89869  0.54466  1.0000
  H   H977      1.0  0.18611  0.74015  0.71046  1.0000
  Fe  Fe113     1.0  0.09713  0.77998  0.67874  1.0000
  S   S225      1.0  0.09328  0.78823  0.70513  1.0000
  S   S226      1.0  0.07945  0.80496  0.66123  1.0000
  Fe  Fe114     1.0  0.12072  0.73529  0.68781  1.0000
  S   S227      1.0  0.13804  0.70507  0.67686  1.0000
  Fe  Fe115     1.0  0.08265  0.75368  0.71107  1.0000
  C   C809      1.0  0.21412  0.71715  0.70728  1.0000
  Fe  Fe116     1.0  0.12806  0.77444  0.70630  1.0000
  C   C810      1.0  0.02634  0.74583  0.73266  1.0000
  S   S228      1.0  0.08508  0.74579  0.68481  1.0000
  S   S229      1.0  0.13290  0.76890  0.67951  1.0000
  S   S230      1.0  0.05556  0.74595  0.73175  1.0000
  S   S231      1.0  0.14460  0.98566  0.57369  1.0000
  C   C811      1.0  0.19007  0.83122  0.73357  1.0000
  H   H978      1.0  0.24584  0.69795  0.67700  1.0000
  C   C812      1.0  0.22095  0.00060  0.65069  1.0000
  C   C813      1.0  0.23913  0.75232  0.71139  1.0000
  H   H979      1.0  0.47694  0.70030  0.58888  1.0000
  H   H980      1.0  0.24479  0.67910  0.72850  1.0000
  C   C814      1.0  0.13292  0.99153  0.52705  1.0000
  C   C815      1.0  0.03052  0.81368  0.58450  1.0000
  H   H981      1.0  0.47238  0.72879  0.70656  1.0000
  H   H982      1.0  0.10060  0.99401  0.58835  1.0000
  H   H983      1.0  0.03920  0.98467  0.54494  1.0000
  C   C816      1.0  0.24117  0.68548  0.68732  1.0000
  H   H984      1.0  0.49866  0.67898  0.59104  1.0000
  C   C817      1.0  0.07179  0.87659  0.49053  1.0000
  C   C818      1.0  0.15586  0.82724  0.71390  1.0000
  C   C819      1.0  0.16346  0.84802  0.71565  1.0000
  H   H985      1.0  0.14263  0.82582  0.70636  1.0000
  H   H986      1.0  0.10748  0.96439  0.50127  1.0000
  H   H987      1.0  0.06103  0.99019  0.55671  1.0000
  H   H988      1.0  0.06702  0.69349  0.69183  1.0000
  C   C820      1.0  0.25347  0.98138  0.73233  1.0000
  H   H989      1.0  0.15595  0.86256  0.70942  1.0000
  C   C821      1.0  0.15903  0.68690  0.68501  1.0000
  C   C822      1.0  0.00506  0.79952  0.71269  1.0000
  C   C823      1.0  0.04004  0.77496  0.64153  1.0000
  C   C824      1.0  0.08975  0.82096  0.60514  1.0000
  C   C825      1.0  0.07314  0.83193  0.61461  1.0000
  C   C826      1.0  0.07046  0.82697  0.63175  1.0000
  C   C827      1.0  0.08429  0.81097  0.63967  1.0000
  C   C828      1.0  0.10105  0.80013  0.63024  1.0000
  C   C829      1.0  0.10371  0.80510  0.61306  1.0000
  H   H990      1.0  0.06230  0.84418  0.60879  1.0000
  H   H991      1.0  0.05742  0.83539  0.63893  1.0000
  H   H992      1.0  0.11183  0.78779  0.63616  1.0000
  H   H993      1.0  0.11664  0.79651  0.60587  1.0000
  C   C830      1.0  0.08307  0.94680  0.57654  1.0000
  C   C831      1.0  0.10245  0.93940  0.56787  1.0000
  C   C832      1.0  0.12135  0.95142  0.56697  1.0000
  C   C833      1.0  0.12069  0.97120  0.57428  1.0000
  C   C834      1.0  0.10115  0.97887  0.58256  1.0000
  C   C835      1.0  0.08253  0.96646  0.58397  1.0000
  H   H994      1.0  0.10301  0.92440  0.56197  1.0000
  H   H995      1.0  0.13646  0.94545  0.56057  1.0000
  H   H996      1.0  0.20366  0.70412  0.70571  1.0000
  H   H997      1.0  0.06770  0.97204  0.59091  1.0000
  H   H998      1.0  0.04684  0.76665  0.65233  1.0000
  H   H999      1.0  0.26725  0.73069  0.70827  1.0000
  H   H1000     1.0  0.00387  0.84604  0.59305  1.0000
  S   S232      1.0  0.43660  0.73662  0.73102  1.0000
  H   H1001     1.0  0.02872  0.80820  0.69240  1.0000
  H   H1002     1.0  0.24875  0.76611  0.71289  1.0000
  S   S233      1.0  0.11728  0.74046  0.71450  1.0000
  N   N54       1.0  0.11571  0.88512  0.60566  1.0000
  C   C836      1.0  0.11403  0.87204  0.62186  1.0000
  C   C837      1.0  0.09397  0.88684  0.59903  1.0000
  C   C838      1.0  0.13111  0.87273  0.59434  1.0000
  C   C839      1.0  0.12255  0.90741  0.60756  1.0000
  C   C840      1.0  0.14230  0.91586  0.59960  1.0000
  C   C841      1.0  0.10907  0.92152  0.61751  1.0000
  C   C842      1.0  0.14793  0.93719  0.60145  1.0000
  C   C843      1.0  0.11481  0.94285  0.61919  1.0000
  C   C844      1.0  0.13420  0.95067  0.61115  1.0000
  H   H1003     1.0  0.10092  0.87881  0.63057  1.0000
  H   H1004     1.0  0.11011  0.85475  0.62082  1.0000
  H   H1005     1.0  0.12974  0.87144  0.62766  1.0000
  H   H1006     1.0  0.08912  0.87066  0.59603  1.0000
  H   H1007     1.0  0.09416  0.89817  0.58760  1.0000
  H   H1008     1.0  0.08059  0.89318  0.60771  1.0000
  H   H1009     1.0  0.14768  0.87005  0.59884  1.0000
  H   H1010     1.0  0.12540  0.85608  0.59314  1.0000
  H   H1011     1.0  0.13251  0.88131  0.58173  1.0000
  H   H1012     1.0  0.15348  0.90659  0.59158  1.0000
  H   H1013     1.0  0.09374  0.91628  0.62383  1.0000
  H   H1014     1.0  0.16261  0.94372  0.59478  1.0000
  H   H1015     1.0  0.10397  0.95356  0.62645  1.0000
  H   H1016     1.0  0.13829  0.96747  0.61195  1.0000
  N   N55       1.0  0.24770  0.69172  0.70306  1.0000
  H   H1017     1.0  0.27427  0.99894  0.71340  1.0000
  C   C845      1.0  0.47943  0.73369  0.71709  1.0000
  C   C846      1.0  0.21634  0.75527  0.71200  1.0000
  C   C847      1.0  0.23731  0.71357  0.70636  1.0000
  H   H1018     1.0  0.02300  0.84211  0.60842  1.0000
  H   H1019     1.0  0.09866  0.68602  0.72773  1.0000
  H   H1020     1.0  0.02974  0.99462  0.58884  1.0000
  H   H1021     1.0  0.04592  0.82099  0.58686  1.0000
  H   H1022     1.0  0.27895  0.70254  0.69175  1.0000
  C   C848      1.0  0.11527  0.97800  0.50522  1.0000
  C   C849      1.0  0.09499  0.69083  0.71487  1.0000
  H   H1023     1.0  0.27839  0.69405  0.71354  1.0000
  C   C850      1.0  0.26031  0.00034  0.72242  1.0000
  C   C851      1.0  0.08118  0.68125  0.69048  1.0000
  H   H1024     1.0  0.01711  0.79028  0.71985  1.0000
  H   H1025     1.0  0.35988  0.86285  0.72895  1.0000
  C   C852      1.0  0.01924  0.78552  0.64284  1.0000
  S   S234      1.0  0.15564  0.78209  0.72110  1.0000
  H   H1026     1.0  0.02369  0.82421  0.57417  1.0000
  H   H1027     1.0  0.06988  0.84401  0.50284  1.0000
  C   C853      1.0  0.24957  0.73179  0.70867  1.0000
  C   C854      1.0  0.17255  0.67396  0.67442  1.0000
  H   H1028     1.0  0.09443  0.69017  0.68286  1.0000
  H   H1029     1.0  0.06870  0.76754  0.62549  1.0000
  H   H1030     1.0  0.22325  0.68374  0.68761  1.0000
  H   H1031     1.0  0.05517  0.78753  0.60139  1.0000
  H   H1032     1.0  0.04053  0.97262  0.56582  1.0000
  C   C855      1.0  0.04308  0.98778  0.55740  1.0000
  H   H1033     1.0  0.00972  0.78499  0.65468  1.0000
  C   C856      1.0  0.27208  0.69077  0.70184  1.0000
  H   H1034     1.0  0.02465  0.73851  0.70780  1.0000
  H   H1035     1.0  0.13866  0.98907  0.53918  1.0000
  H   H1036     1.0  0.17075  0.67611  0.66140  1.0000
  H   H1037     1.0  0.48645  0.69211  0.61569  1.0000
  H   H1038     1.0  0.01405  0.86798  0.51774  1.0000
  C   C857      1.0  0.16524  0.80841  0.72211  1.0000
  H   H1039     1.0  0.03477  0.79732  0.57991  1.0000
  H   H1040     1.0  0.23868  0.99359  0.68139  1.0000
  C   C858      1.0  0.18042  0.85010  0.72560  1.0000
  C   C859      1.0  0.18242  0.81047  0.73188  1.0000
  H   H1041     1.0  0.23351  0.98860  0.65458  1.0000
  C   C860      1.0  0.02339  0.79873  0.61355  1.0000
  C   C861      1.0  0.05237  0.77552  0.62639  1.0000
  C   C862      1.0  0.49783  0.70919  0.63401  1.0000
  H   H1042     1.0  0.12026  0.95949  0.52846  1.0000
  H   H1043     1.0  0.22222  0.67357  0.71749  1.0000
  C   C863      1.0  0.16146  0.68381  0.70183  1.0000
  C   C864      1.0  0.49416  0.69534  0.58466  1.0000
  C   C865      1.0  0.04431  0.78722  0.61256  1.0000
  H   H1044     1.0  0.15118  0.69349  0.71017  1.0000
  C   C866      1.0  0.20387  0.73770  0.71002  1.0000
  N   N56       1.0  0.01470  0.81221  0.59940  1.0000
  H   H1045     1.0  0.08195  0.70440  0.71537  1.0000
  C   C867      1.0  0.11813  0.99811  0.49519  1.0000
  H   H1046     1.0  0.27924  0.67416  0.69910  1.0000
  H   H1047     1.0  0.05472  0.67450  0.71708  1.0000
  C   C868      1.0  0.46553  0.73872  0.73104  1.0000
  H   H1048     1.0  0.21414  0.98078  0.63170  1.0000
  C   C869      1.0  0.12259  0.97489  0.52093  1.0000
  C   C870      1.0  0.01537  0.74120  0.71936  1.0000
  H   H1049     1.0  0.39041  0.83518  0.72909  1.0000
  H   H1050     1.0  0.20822  0.77123  0.71392  1.0000
  S   S235      1.0  0.18799  0.87665  0.72863  1.0000
  H   H1051     1.0  0.42542  0.82490  0.73348  1.0000
  N   N57       1.0  0.08839  0.67219  0.70665  1.0000
  H   H1052     1.0  0.49439  0.69258  0.57145  1.0000
  C   C871      1.0  0.24028  0.67504  0.71643  1.0000
  C   C872      1.0  0.06880  0.85406  0.49133  1.0000
  H   H1053     1.0  0.39789  0.79744  0.73417  1.0000
  C   C873      1.0  0.01161  0.80960  0.69723  1.0000
  C   C874      1.0  0.00888  0.83495  0.60377  1.0000
  C   C875      1.0  0.01089  0.79707  0.62906  1.0000
  H   H1054     1.0  0.11007  0.69765  0.70819  1.0000
  C   C876      1.0  0.34489  0.67652  0.72458  1.0000
  H   H1055     1.0  0.48813  0.70010  0.64382  1.0000
  C   C877      1.0  0.00436  0.87971  0.51024  1.0000
  H   H1056     1.0  0.00635  0.96970  0.56010  1.0000
  H   H1057     1.0  0.48707  0.73994  0.58268  1.0000
  C   C878      1.0  0.49707  0.70474  0.61772  1.0000
  H   H1058     1.0  0.26214  0.96564  0.73088  1.0000
  H   H1059     1.0  0.35968  0.68544  0.72381  1.0000
  C   C879      1.0  0.20988  0.99583  0.63748  1.0000
  H   H1060     1.0  0.02345  0.87321  0.48773  1.0000
  C   C880      1.0  0.00969  0.88265  0.49337  1.0000
  H   H1061     1.0  0.50160  0.73012  0.56450  1.0000
  Fe  Fe117     1.0  0.11095  0.91556  0.90986  1.0000
  S   S236      1.0  0.14499  0.90974  0.91785  1.0000
  S   S237      1.0  0.08644  0.89003  0.91805  1.0000
  Fe  Fe118     1.0  0.11924  0.96143  0.89430  1.0000
  S   S238      1.0  0.15390  0.95925  0.90093  1.0000
  C   C881      1.0  0.37690  0.83456  0.77043  1.0000
  Fe  Fe119     1.0  0.15543  0.92530  0.89247  1.0000
  S   S239      1.0  0.18537  0.91192  0.87717  1.0000
  Fe  Fe120     1.0  0.14006  0.94406  0.92552  1.0000
  S   S240      1.0  0.14672  0.95842  0.94882  1.0000
  S   S241      1.0  0.12162  0.92877  0.88401  1.0000
  S   S242      1.0  0.10527  0.94863  0.91934  1.0000
  H   H1062     1.0  0.34504  0.79614  0.75044  1.0000
  H   H1063     1.0  0.04415  0.87218  0.92362  1.0000
  H   H1064     1.0  0.20768  0.99504  0.80448  1.0000
  H   H1065     1.0  0.08549  0.90082  0.88297  1.0000
  Fe  Fe121     1.0  0.37246  0.75053  0.77455  1.0000
  S   S243      1.0  0.37376  0.74179  0.74863  1.0000
  S   S244      1.0  0.35308  0.78040  0.78451  1.0000
  Fe  Fe122     1.0  0.39830  0.70748  0.78601  1.0000
  S   S245      1.0  0.40047  0.69586  0.76072  1.0000
  S   S246      1.0  0.41719  0.68402  0.80372  1.0000
  Fe  Fe123     1.0  0.40923  0.73045  0.75176  1.0000
  C   C882      1.0  0.28899  0.72028  0.77455  1.0000
  Fe  Fe124     1.0  0.36518  0.70809  0.75989  1.0000
  H   H1066     1.0  0.45294  0.70225  0.78459  1.0000
  S   S247      1.0  0.40857  0.74167  0.77698  1.0000
  S   S248      1.0  0.36245  0.71726  0.78588  1.0000
  Fe  Fe125     1.0  0.21380  0.88558  0.78383  1.0000
  S   S249      1.0  0.19970  0.90819  0.76404  1.0000
  S   S250      1.0  0.18771  0.88074  0.80547  1.0000
  Fe  Fe126     1.0  0.25560  0.87574  0.76143  1.0000
  S   S251      1.0  0.28738  0.85559  0.75384  1.0000
  H   H1067     1.0  0.30272  0.71042  0.78021  1.0000
  H   H1068     1.0  0.31877  0.76342  0.75869  1.0000
  H   H1069     1.0  0.03533  0.92568  0.89582  1.0000
  S   S252      1.0  0.24665  0.90088  0.77999  1.0000
  S   S253      1.0  0.22363  0.85897  0.76693  1.0000
  H   H1070     1.0  0.05729  0.89568  0.86424  1.0000
  C   C883      1.0  0.41300  0.68721  0.95629  1.0000
  C   C884      1.0  0.25653  0.74916  0.75957  1.0000
  C   C885      1.0  0.33418  0.80044  0.77566  1.0000
  C   C886      1.0  0.33378  0.80504  0.75868  1.0000
  C   C887      1.0  0.31914  0.82175  0.75230  1.0000
  C   C888      1.0  0.30447  0.83388  0.76274  1.0000
  C   C889      1.0  0.30457  0.82895  0.77970  1.0000
  C   C890      1.0  0.31949  0.81252  0.78609  1.0000
  H   H1071     1.0  0.29355  0.83820  0.78790  1.0000
  H   H1072     1.0  0.31972  0.80924  0.79924  1.0000
  H   H1073     1.0  0.14642  0.88874  0.78749  1.0000
  C   C891      1.0  0.00850  0.88468  0.97985  1.0000
  H   H1074     1.0  0.28767  0.71317  0.76276  1.0000
  C   C892      1.0  0.09932  0.81026  0.76757  1.0000
  H   H1075     1.0  0.32759  0.73610  0.76549  1.0000
  H   H1076     1.0  0.07546  0.98069  0.90717  1.0000
  H   H1077     1.0  0.18442  0.93108  0.80294  1.0000
  C   C893      1.0  0.38239  0.83926  0.74077  1.0000
  Fe  Fe127     1.0  0.23269  0.92253  0.75906  1.0000
  C   C894      1.0  0.49797  0.74638  0.74400  1.0000
  C   C895      1.0  0.48811  0.68345  0.97348  1.0000
  H   H1078     1.0  0.01577  0.86752  0.90497  1.0000
  H   H1079     1.0  0.31045  0.74042  0.79387  1.0000
  C   C896      1.0  0.39186  0.68323  0.85163  1.0000
  C   C897      1.0  0.39483  0.68822  0.83448  1.0000
  C   C898      1.0  0.33012  0.67664  0.73863  1.0000
  C   C899      1.0  0.27643  0.78114  0.76269  1.0000
  H   H1080     1.0  0.48517  0.69783  0.98084  1.0000
  C   C900      1.0  0.24000  0.76293  0.75273  1.0000
  C   C901      1.0  0.31359  0.74627  0.76062  1.0000
  H   H1081     1.0  0.45165  0.71063  0.76335  1.0000
  C   C902      1.0  0.18568  0.90545  0.85661  1.0000
  C   C903      1.0  0.16633  0.90390  0.84921  1.0000
  C   C904      1.0  0.16724  0.89677  0.83339  1.0000
  C   C905      1.0  0.18749  0.89176  0.82461  1.0000
  C   C906      1.0  0.20686  0.89423  0.83171  1.0000
  C   C907      1.0  0.20592  0.90081  0.84771  1.0000
  H   H1082     1.0  0.15066  0.90764  0.85582  1.0000
  H   H1083     1.0  0.15216  0.89485  0.82802  1.0000
  H   H1084     1.0  0.22255  0.89025  0.82516  1.0000
  H   H1085     1.0  0.22098  0.90197  0.85334  1.0000
  C   C908      1.0  0.14288  0.94330  0.96826  1.0000
  C   C909      1.0  0.13952  0.92078  0.96987  1.0000
  H   H1086     1.0  0.02211  0.75265  0.75802  1.0000
  C   C910      1.0  0.15762  0.97025  0.85164  1.0000
  H   H1087     1.0  0.13898  0.91225  0.95903  1.0000
  H   H1088     1.0  0.29024  0.78897  0.76622  1.0000
  C   C911      1.0  0.03088  0.87494  0.90016  1.0000
  H   H1089     1.0  0.08038  0.82023  0.78920  1.0000
  C   C912      1.0  0.04700  0.87749  0.91069  1.0000
  C   C913      1.0  0.06664  0.88701  0.90456  1.0000
  C   C914      1.0  0.07036  0.89360  0.88780  1.0000
  C   C915      1.0  0.05443  0.89062  0.87721  1.0000
  C   C916      1.0  0.14363  0.95414  0.98244  1.0000
  N   N58       1.0  0.29334  0.74402  0.77190  1.0000
  H   H1090     1.0  0.14441  0.83396  0.74882  1.0000
  C   C917      1.0  0.46304  0.70410  0.77264  1.0000
  H   H1091     1.0  0.21016  0.93430  0.81080  1.0000
  H   H1092     1.0  0.30352  0.76797  0.78698  1.0000
  C   C918      1.0  0.19009  0.95950  0.83450  1.0000
  H   H1093     1.0  0.38530  0.78593  0.75341  1.0000
  H   H1094     1.0  0.40189  0.68692  0.94684  1.0000
  H   H1095     1.0  0.18879  0.97143  0.77771  1.0000
  C   C919      1.0  0.48027  0.70617  0.94904  1.0000
  C   C920      1.0  0.16390  0.85440  0.77303  1.0000
  H   H1096     1.0  0.13613  0.86446  0.79846  1.0000
  H   H1097     1.0  0.47497  0.72090  0.95564  1.0000
  H   H1098     1.0  0.16535  0.84152  0.78346  1.0000
  N   N59       1.0  0.40706  0.81122  0.75561  1.0000
  C   C921      1.0  0.01387  0.74917  0.74760  1.0000
  H   H1099     1.0  0.41747  0.81550  0.77934  1.0000
  H   H1100     1.0  0.00712  0.94809  0.86893  1.0000
  C   C922      1.0  0.17915  0.96152  0.85005  1.0000
  C   C923      1.0  0.45068  0.68640  0.96416  1.0000
  S   S254      1.0  0.33438  0.69154  0.75531  1.0000
  S   S255      1.0  0.22782  0.96017  0.75847  1.0000
  S   S256      1.0  0.24371  0.89876  0.74030  1.0000
  C   C924      1.0  0.29746  0.75115  0.78801  1.0000
  H   H1101     1.0  0.47493  0.71678  0.77361  1.0000
  H   H1102     1.0  0.15093  0.89291  0.75774  1.0000
  C   C925      1.0  0.42727  0.82012  0.74667  1.0000
  H   H1103     1.0  0.17415  0.99079  0.79010  1.0000
  C   C926      1.0  0.43561  0.68736  0.95205  1.0000
  C   C927      1.0  0.47495  0.74545  0.74440  1.0000
  Fe  Fe128     1.0  0.21164  0.88294  0.74696  1.0000
  C   C928      1.0  0.09457  0.82337  0.78052  1.0000
  C   C929      1.0  0.13983  0.87925  0.75753  1.0000
  N   N60       1.0  0.00934  0.95111  0.89456  1.0000
  H   H1104     1.0  0.12286  0.88646  0.75649  1.0000
  H   H1105     1.0  0.49825  0.70657  0.94552  1.0000
  C   C930      1.0  0.12650  0.84508  0.77099  1.0000
  H   H1106     1.0  0.03960  0.98459  0.88840  1.0000
  H   H1107     1.0  0.03052  0.89527  0.95906  1.0000
  H   H1108     1.0  0.12113  0.80407  0.74620  1.0000
  C   C931      1.0  0.24173  0.78565  0.75079  1.0000
  C   C932      1.0  0.03458  0.88149  0.88341  1.0000
  H   H1109     1.0  0.04116  0.95046  0.90382  1.0000
  H   H1110     1.0  0.39853  0.79402  0.77937  1.0000
  H   H1111     1.0  0.33952  0.87251  0.75487  1.0000
  H   H1112     1.0  0.26136  0.81245  0.75419  1.0000
  H   H1113     1.0  0.44718  0.67156  0.75772  1.0000
  S   S257      1.0  0.01451  0.87878  0.87010  1.0000
  N   N61       1.0  0.13396  0.85062  0.88550  1.0000
  C   C933      1.0  0.11094  0.84380  0.88781  1.0000
  C   C934      1.0  0.14527  0.84046  0.89975  1.0000
  C   C935      1.0  0.13316  0.87478  0.88569  1.0000
  C   C936      1.0  0.14617  0.84461  0.87001  1.0000
  C   C937      1.0  0.13634  0.83441  0.85796  1.0000
  C   C938      1.0  0.16844  0.84983  0.86628  1.0000
  C   C939      1.0  0.14813  0.83009  0.84307  1.0000
  C   C940      1.0  0.18005  0.84535  0.85141  1.0000
  C   C941      1.0  0.16988  0.83571  0.83976  1.0000
  H   H1114     1.0  0.11020  0.82566  0.88806  1.0000
  H   H1115     1.0  0.10234  0.84861  0.89963  1.0000
  H   H1116     1.0  0.10099  0.85197  0.87807  1.0000
  H   H1117     1.0  0.14724  0.82228  0.89961  1.0000
  H   H1118     1.0  0.13597  0.84413  0.91160  1.0000
  H   H1119     1.0  0.16183  0.84674  0.90002  1.0000
  H   H1120     1.0  0.14972  0.88127  0.88544  1.0000
  H   H1121     1.0  0.12530  0.88306  0.87492  1.0000
  H   H1122     1.0  0.12366  0.88010  0.89695  1.0000
  H   H1123     1.0  0.11950  0.82988  0.85965  1.0000
  H   H1124     1.0  0.17691  0.85812  0.87462  1.0000
  H   H1125     1.0  0.14029  0.82255  0.83396  1.0000
  H   H1126     1.0  0.19686  0.85006  0.84868  1.0000
  H   H1127     1.0  0.17884  0.83290  0.82805  1.0000
  H   H1128     1.0  0.22900  0.79628  0.74541  1.0000
  H   H1129     1.0  0.31142  0.74080  0.74839  1.0000
  S   S258      1.0  0.10705  0.99214  0.87985  1.0000
  C   C942      1.0  0.35952  0.85051  0.77002  1.0000
  C   C943      1.0  0.02827  0.89235  0.97233  1.0000
  C   C944      1.0  0.35352  0.86074  0.75512  1.0000
  C   C945      1.0  0.41246  0.67828  0.82532  1.0000
  C   C946      1.0  0.36494  0.85514  0.74052  1.0000
  C   C947      1.0  0.38896  0.82848  0.75574  1.0000
  H   H1130     1.0  0.20317  0.83266  0.74121  1.0000
  C   C948      1.0  0.41258  0.80233  0.77227  1.0000
  H   H1131     1.0  0.22111  0.97741  0.78991  1.0000
  H   H1132     1.0  0.18733  0.95603  0.86096  1.0000
  N   N62       1.0  0.19205  0.96474  0.80369  1.0000
  H   H1133     1.0  0.11823  0.88354  0.78683  1.0000
  C   C949      1.0  0.19887  0.94142  0.80167  1.0000
  C   C950      1.0  0.10791  0.84056  0.78230  1.0000
  C   C951      1.0  0.17983  0.96651  0.82000  1.0000
  H   H1134     1.0  0.14632  0.97152  0.98132  1.0000
  H   H1135     1.0  0.38717  0.68620  0.97593  1.0000
  C   C952      1.0  0.41893  0.68678  0.98483  1.0000
  H   H1136     1.0  0.10324  0.85007  0.79256  1.0000
  H   H1137     1.0  0.25426  0.73174  0.76057  1.0000
  C   C953      1.0  0.21198  0.97757  0.80231  1.0000
  C   C954      1.0  0.40073  0.79261  0.74719  1.0000
  H   H1138     1.0  0.38002  0.82677  0.78239  1.0000
  H   H1139     1.0  0.47230  0.70794  0.93736  1.0000
  H   H1140     1.0  0.00278  0.92317  0.88203  1.0000
  H   H1141     1.0  0.46453  0.75005  0.75502  1.0000
  H   H1142     1.0  0.14505  0.87163  0.74597  1.0000
  H   H1143     1.0  0.43194  0.83487  0.75213  1.0000
  H   H1144     1.0  0.38353  0.69980  0.82837  1.0000
  H   H1145     1.0  0.17070  0.84723  0.76164  1.0000
  H   H1146     1.0  0.18960  0.79594  0.73833  1.0000
  C   C955      1.0  0.14694  0.97709  0.83771  1.0000
  C   C956      1.0  0.02252  0.99013  0.88981  1.0000
  H   H1147     1.0  0.31934  0.82551  0.73916  1.0000
  H   H1148     1.0  0.04186  0.94892  0.88186  1.0000
  N   N63       1.0  0.47461  0.68567  0.95930  1.0000
  N   N64       1.0  0.14090  0.86324  0.77223  1.0000
  H   H1149     1.0  0.17501  0.86749  0.77466  1.0000
  H   H1150     1.0  0.20781  0.93945  0.78941  1.0000
  C   C957      1.0  0.48969  0.67546  0.78097  1.0000
  C   C958      1.0  0.13498  0.87544  0.78692  1.0000
  H   H1151     1.0  0.22576  0.75596  0.74885  1.0000
  C   C959      1.0  0.27527  0.75795  0.76487  1.0000
  C   C960      1.0  0.04523  0.89607  0.98177  1.0000
  H   H1152     1.0  0.14850  0.98101  0.81183  1.0000
  C   C961      1.0  0.13075  0.83141  0.75796  1.0000
  H   H1153     1.0  0.35008  0.85441  0.78131  1.0000
  H   H1154     1.0  0.27387  0.71734  0.78290  1.0000
  C   C962      1.0  0.17912  0.97303  0.78977  1.0000
  H   H1155     1.0  0.28231  0.75093  0.79662  1.0000
  C   C963      1.0  0.11741  0.81426  0.75632  1.0000
  H   H1156     1.0  0.16431  0.96350  0.78964  1.0000
  H   H1157     1.0  0.13014  0.98385  0.83915  1.0000
  H   H1158     1.0  0.37820  0.69105  0.85861  1.0000
  H   H1159     1.0  0.22383  0.97086  0.81117  1.0000
  H   H1160     1.0  0.47404  0.69283  0.74235  1.0000
  H   H1161     1.0  0.14914  0.97169  0.86372  1.0000
  H   H1162     1.0  0.42649  0.78971  0.77176  1.0000
  H   H1163     1.0  0.06015  0.90181  0.97511  1.0000
  H   H1164     1.0  0.44122  0.68790  0.93918  1.0000
  C   C964      1.0  0.15778  0.97533  0.82206  1.0000
  C   C965      1.0  0.03299  0.94390  0.89398  1.0000
  H   H1165     1.0  0.00424  0.94984  0.92088  1.0000
  H   H1166     1.0  0.08893  0.79701  0.76619  1.0000
  C   C966      1.0  0.48587  0.68716  0.75156  1.0000
  C   C967      1.0  0.25993  0.79473  0.75576  1.0000
  H   H1167     1.0  0.10603  0.99058  0.95358  1.0000
  C   C968      1.0  0.23600  0.98301  0.74450  1.0000
  H   H1168     1.0  0.41367  0.77893  0.74710  1.0000
  H   H1169     1.0  0.20666  0.95227  0.83398  1.0000
  N   N65       1.0  0.47462  0.68318  0.76834  1.0000
  C   C969      1.0  0.40467  0.68684  0.97265  1.0000
  H   H1170     1.0  0.49771  0.70032  0.75085  1.0000
  H   H1171     1.0  0.10402  0.99650  0.93227  1.0000
  C   C970      1.0  0.00531  0.97533  0.89276  1.0000
  H   H1172     1.0  0.46382  0.67142  0.80108  1.0000
  C   C971      1.0  0.48124  0.67001  0.79747  1.0000
  H   H1173     1.0  0.44143  0.80774  0.74697  1.0000
  C   C972      1.0  0.07501  0.99832  0.90482  1.0000
  H   H1174     1.0  0.49473  0.67198  0.74742  1.0000
  C   C973      1.0  0.44161  0.68646  0.98075  1.0000
  H   H1175     1.0  0.00258  0.92383  0.91274  1.0000
  C   C974      1.0  0.13753  0.90912  0.98554  1.0000
  H   H1176     1.0  0.83589  0.00637  0.00373  1.0000
  Fe  Fe129     1.0  0.86768  0.02881  0.06175  1.0000
  S   S259      1.0  0.83540  0.04723  0.05825  1.0000
  H   H1177     1.0  0.98840  0.22403  0.17367  1.0000
  Fe  Fe130     1.0  0.89380  0.06779  0.04757  1.0000
  S   S260      1.0  0.86335  0.08885  0.04272  1.0000
  S   S261      1.0  0.92583  0.08358  0.03919  1.0000
  Fe  Fe131     1.0  0.85033  0.07520  0.06814  1.0000
  S   S262      1.0  0.83529  0.09971  0.08602  1.0000
  Fe  Fe132     1.0  0.85151  0.05886  0.03334  1.0000
  S   S263      1.0  0.83541  0.05212  0.01070  1.0000
  S   S264      1.0  0.88168  0.05580  0.07337  1.0000
  S   S265      1.0  0.88296  0.03876  0.03648  1.0000
  C   C975      1.0  0.66359  0.17908  0.21440  1.0000
  H   H1178     1.0  0.97099  0.00977  0.09031  1.0000
  H   H1179     1.0  0.74376  0.13968  0.15819  1.0000
  H   H1180     1.0  0.77074  0.07340  0.10144  1.0000
  H   H1181     1.0  0.89247  0.08978  0.11728  1.0000
  H   H1182     1.0  0.90858  0.09556  0.07222  1.0000
  H   H1183     1.0  0.79784  0.04670  0.23428  1.0000
  Fe  Fe133     1.0  0.58015  0.27541  0.18450  1.0000
  S   S266      1.0  0.56969  0.29531  0.20562  1.0000
  S   S267      1.0  0.56019  0.28796  0.16310  1.0000
  Fe  Fe134     1.0  0.60957  0.24358  0.20530  1.0000
  S   S268      1.0  0.63072  0.21205  0.21228  1.0000
  H   H1184     1.0  0.68865  0.15256  0.21669  1.0000
  S   S269      1.0  0.57404  0.24316  0.19983  1.0000
  S   S270      1.0  0.61626  0.27457  0.18835  1.0000
  Fe  Fe135     1.0  0.77299  0.09368  0.18074  1.0000
  S   S271      1.0  0.78234  0.08055  0.20589  1.0000
  S   S272      1.0  0.78800  0.07720  0.15807  1.0000
  Fe  Fe136     1.0  0.73407  0.12271  0.19453  1.0000
  S   S273      1.0  0.74012  0.11117  0.22060  1.0000
  S   S274      1.0  0.70834  0.14714  0.18301  1.0000
  Fe  Fe137     1.0  0.77593  0.11537  0.21261  1.0000
  C   C976      1.0  0.83730  0.17440  0.21784  1.0000
  Fe  Fe138     1.0  0.74643  0.07679  0.21277  1.0000
  H   H1185     1.0  0.93047  0.08271  0.11235  1.0000
  S   S275      1.0  0.76978  0.12898  0.18683  1.0000
  S   S276      1.0  0.73714  0.08787  0.18737  1.0000
  H   H1186     1.0  0.92494  0.14487  0.08198  1.0000
  H   H1187     1.0  0.94995  0.21965  0.18371  1.0000
  H   H1188     1.0  0.76174  0.02038  0.20930  1.0000
  C   C977      1.0  0.65303  0.19502  0.20383  1.0000
  C   C978      1.0  0.68081  0.16468  0.20837  1.0000
  C   C979      1.0  0.68754  0.16574  0.19156  1.0000
  C   C980      1.0  0.67696  0.18167  0.18099  1.0000
  C   C981      1.0  0.65997  0.19630  0.18706  1.0000
  H   H1189     1.0  0.68192  0.18269  0.16797  1.0000
  H   H1190     1.0  0.65204  0.20833  0.17872  1.0000
  H   H1191     1.0  0.55966  0.20334  0.21983  1.0000
  H   H1192     1.0  0.88072  0.10648  0.07488  1.0000
  H   H1193     1.0  0.61839  0.31694  0.16217  1.0000
  H   H1194     1.0  0.77808  0.14158  0.08638  1.0000
  C   C982      1.0  0.75265  0.13401  0.14677  1.0000
  S   S277      1.0  0.86452  0.19921  0.23226  1.0000
  H   H1195     1.0  0.74973  0.08217  0.12659  1.0000
  H   H1196     1.0  0.52066  0.29319  0.19037  1.0000
  C   C983      1.0  0.96233  0.21303  0.19159  1.0000
  C   C984      1.0  0.92223  0.22280  0.21449  1.0000
  C   C985      1.0  0.75600  0.01033  0.22025  1.0000
  H   H1197     1.0  0.96330  0.15038  0.08535  1.0000
  H   H1198     1.0  0.90244  0.12451  0.06950  1.0000
  H   H1199     1.0  0.65984  0.30433  0.21239  1.0000
  H   H1200     1.0  0.93732  0.17152  0.23035  1.0000
  H   H1201     1.0  0.87440  0.08779  0.10186  1.0000
  H   H1202     1.0  0.69592  0.31530  0.21925  1.0000
  H   H1203     1.0  0.97253  0.06803  0.00755  1.0000
  C   C986      1.0  0.59592  0.31087  0.12099  1.0000
  C   C987      1.0  0.59034  0.30085  0.13691  1.0000
  C   C988      1.0  0.56848  0.30153  0.14359  1.0000
  C   C989      1.0  0.55239  0.31268  0.13431  1.0000
  H   H1204     1.0  0.98501  0.12284  0.10203  1.0000
  H   H1205     1.0  0.52433  0.31355  0.03961  1.0000
  H   H1206     1.0  0.60284  0.29205  0.14378  1.0000
  H   H1207     1.0  0.81650  0.15459  0.20614  1.0000
  N   N66       1.0  0.73765  0.12443  0.13671  1.0000
  H   H1208     1.0  0.90123  0.07491  0.09957  1.0000
  C   C990      1.0  0.75889  0.13447  0.10952  1.0000
  H   H1209     1.0  0.70878  0.13503  0.12456  1.0000
  C   C991      1.0  0.84240  0.08756  0.98734  1.0000
  H   H1210     1.0  0.88793  0.13090  0.11369  1.0000
  C   C992      1.0  0.82353  0.09302  0.10643  1.0000
  C   C993      1.0  0.81907  0.07145  0.11242  1.0000
  C   C994      1.0  0.80846  0.06702  0.12831  1.0000
  C   C995      1.0  0.80241  0.08398  0.13850  1.0000
  C   C996      1.0  0.80749  0.10549  0.13268  1.0000
  C   C997      1.0  0.81784  0.10997  0.11669  1.0000
  H   H1211     1.0  0.82332  0.05821  0.10471  1.0000
  H   H1212     1.0  0.80474  0.05030  0.13268  1.0000
  H   H1213     1.0  0.80338  0.11870  0.14040  1.0000
  H   H1214     1.0  0.82121  0.12672  0.11219  1.0000
  C   C998      1.0  0.97335  0.24837  0.23298  1.0000
  H   H1215     1.0  0.76559  0.31455  0.23073  1.0000
  Fe  Fe139     1.0  0.56561  0.26351  0.22107  1.0000
  H   H1216     1.0  0.84328  0.09742  0.99743  1.0000
  C   C999      1.0  0.93845  0.10113  0.99033  1.0000
  C   C1000     1.0  0.98045  0.07711  0.07361  1.0000
  C   C1001     1.0  0.96365  0.06234  0.07605  1.0000
  C   C1002     1.0  0.94650  0.06438  0.06575  1.0000
  C   C1003     1.0  0.94617  0.08126  0.05300  1.0000
  C   C1004     1.0  0.96263  0.09637  0.05088  1.0000
  C   C1005     1.0  0.97977  0.09428  0.06111  1.0000
  H   H1217     1.0  0.96394  0.04925  0.08586  1.0000
  H   H1218     1.0  0.93382  0.05267  0.06749  1.0000
  H   H1219     1.0  0.96207  0.10982  0.04134  1.0000
  H   H1220     1.0  0.98213  0.10201  0.01553  1.0000
  H   H1221     1.0  0.96838  0.08919  0.11502  1.0000
  C   C1006     1.0  0.98495  0.06598  0.99745  1.0000
  C   C1007     1.0  0.64148  0.33078  0.22377  1.0000
  H   H1222     1.0  0.72583  0.15697  0.12738  1.0000
  C   C1008     1.0  0.92179  0.18870  0.20223  1.0000
  C   C1009     1.0  0.55801  0.32301  0.11850  1.0000
  H   H1223     1.0  0.84403  0.18264  0.20639  1.0000
  C   C1010     1.0  0.51698  0.31383  0.05208  1.0000
  H   H1224     1.0  0.75686  0.15168  0.11149  1.0000
  C   C1011     1.0  0.84431  0.17960  0.23270  1.0000
  H   H1225     1.0  0.76077  0.14843  0.14015  1.0000
  C   C1012     1.0  0.57982  0.32200  0.11171  1.0000
  H   H1226     1.0  0.56161  0.29688  0.08643  1.0000
  H   H1227     1.0  0.61282  0.30995  0.11580  1.0000
  C   C1013     1.0  0.68110  0.32462  0.22319  1.0000
  C   C1014     1.0  0.51734  0.30616  0.08152  1.0000
  H   H1228     1.0  0.56759  0.17473  0.21936  1.0000
  C   C1015     1.0  0.83938  0.06503  0.99051  1.0000
  C   C1016     1.0  0.66067  0.31836  0.21928  1.0000
  H   H1229     1.0  0.58262  0.30220  0.05185  1.0000
  H   H1230     1.0  0.71770  0.11107  0.15805  1.0000
  H   H1231     1.0  0.53543  0.31324  0.13936  1.0000
  C   C1017     1.0  0.52823  0.30431  0.06557  1.0000
  H   H1232     1.0  0.92285  0.23266  0.20241  1.0000
  C   C1018     1.0  0.98428  0.21563  0.18570  1.0000
  N   N67       1.0  0.55044  0.29354  0.06276  1.0000
  C   C1019     1.0  0.56582  0.30977  0.05450  1.0000
  C   C1020     1.0  0.55973  0.28398  0.07810  1.0000
  C   C1021     1.0  0.54968  0.27551  0.05208  1.0000
  H   H1233     1.0  0.90453  0.22194  0.21898  1.0000
  C   C1022     1.0  0.00102  0.20778  0.19536  1.0000
  H   H1234     1.0  0.70195  0.02320  0.21198  1.0000
  C   C1023     1.0  0.99588  0.19719  0.21090  1.0000
  H   H1235     1.0  0.52461  0.29977  0.09257  1.0000
  C   C1024     1.0  0.82167  0.15851  0.21765  1.0000
  H   H1236     1.0  0.51234  0.23988  0.22062  1.0000
  H   H1237     1.0  0.93008  0.17224  0.20061  1.0000
  H   H1238     1.0  0.56742  0.32317  0.06239  1.0000
  H   H1239     1.0  0.51260  0.29571  0.22016  1.0000
  H   H1240     1.0  0.57649  0.27619  0.07561  1.0000
  H   H1241     1.0  0.98925  0.06629  0.03058  1.0000
  C   C1025     1.0  0.74244  0.01993  0.23259  1.0000
  H   H1242     1.0  0.56584  0.26622  0.05043  1.0000
  C   C1026     1.0  0.69847  0.00652  0.21680  1.0000
  S   S278      1.0  0.79409  0.12666  0.23296  1.0000
  S   S279      1.0  0.61571  0.32524  0.21753  1.0000
  H   H1243     1.0  0.54935  0.27116  0.08481  1.0000
  H   H1244     1.0  0.91200  0.18705  0.23420  1.0000
  C   C1027     1.0  0.99067  0.25491  0.22126  1.0000
  Fe  Fe140     1.0  0.60516  0.29273  0.21053  1.0000
  S   S280      1.0  0.73328  0.04828  0.23064  1.0000
  H   H1245     1.0  0.92125  0.19783  0.18991  1.0000
  H   H1246     1.0  0.78509  0.10263  0.08119  1.0000
  C   C1028     1.0  0.77109  0.12890  0.09511  1.0000
  N   N68       1.0  0.93308  0.20056  0.21356  1.0000
  H   H1247     1.0  0.71631  0.09738  0.13992  1.0000
  H   H1248     1.0  0.58786  0.19499  0.21552  1.0000
  H   H1249     1.0  0.99251  0.10591  0.05926  1.0000
  H   H1250     1.0  0.56048  0.31760  0.04264  1.0000
  H   H1251     1.0  0.98734  0.26712  0.21126  1.0000
  H   H1252     1.0  0.62518  0.32283  0.18202  1.0000
  C   C1029     1.0  0.77500  0.10696  0.09211  1.0000
  C   C1030     1.0  0.72753  0.10565  0.14687  1.0000
  H   H1253     1.0  0.77965  0.22774  0.23211  1.0000
  H   H1254     1.0  0.74023  0.09328  0.15137  1.0000
  C   C1031     1.0  0.95648  0.20255  0.20746  1.0000
  H   H1255     1.0  0.76579  0.12167  0.15049  1.0000
  H   H1256     1.0  0.70930  0.14504  0.14438  1.0000
  N   N69       1.0  0.90023  0.11025  0.09479  1.0000
  C   C1032     1.0  0.88594  0.12892  0.10063  1.0000
  C   C1033     1.0  0.89791  0.10920  0.07712  1.0000
  C   C1034     1.0  0.89186  0.08979  0.10381  1.0000
  C   C1035     1.0  0.92343  0.11348  0.09706  1.0000
  C   C1036     1.0  0.93372  0.13252  0.08953  1.0000
  C   C1037     1.0  0.93655  0.09792  0.10643  1.0000
  C   C1038     1.0  0.95565  0.13586  0.09137  1.0000
  C   C1039     1.0  0.95845  0.10147  0.10819  1.0000
  C   C1040     1.0  0.96795  0.12039  0.10074  1.0000
  H   H1257     1.0  0.88948  0.14473  0.09332  1.0000
  H   H1258     1.0  0.86826  0.12640  0.09969  1.0000
  H   H1259     1.0  0.65847  0.17786  0.22739  1.0000
  C   C1041     1.0  0.75470  0.09584  0.11803  1.0000
  S   S281      1.0  0.60049  0.26227  0.22759  1.0000
  H   H1260     1.0  0.54541  0.28171  0.03956  1.0000
  C   C1042     1.0  0.97399  0.19473  0.21701  1.0000
  C   C1043     1.0  0.71966  0.14106  0.13300  1.0000
  H   H1261     1.0  0.93014  0.23215  0.22303  1.0000
  H   H1262     1.0  0.80298  0.00766  0.23050  1.0000
  H   H1263     1.0  0.53727  0.26365  0.05738  1.0000
  H   H1264     1.0  0.90434  0.18615  0.20694  1.0000
  C   C1044     1.0  0.81303  0.14755  0.23236  1.0000
  C   C1045     1.0  0.76686  0.09049  0.10354  1.0000
  C   C1046     1.0  0.75010  0.11811  0.12137  1.0000
  C   C1047     1.0  0.50377  0.29384  0.19576  1.0000
  H   H1265     1.0  0.64053  0.33406  0.16403  1.0000
  H   H1266     1.0  0.91182  0.08066  0.99142  1.0000
  H   H1267     1.0  0.58034  0.32873  0.17147  1.0000
  H   H1268     1.0  0.73400  0.29124  0.23175  1.0000
  S   S282      1.0  0.58760  0.33352  0.09147  1.0000
  H   H1269     1.0  0.93604  0.10279  0.00343  1.0000
  H   H1270     1.0  0.95698  0.25574  0.23205  1.0000
  C   C1048     1.0  0.00013  0.10384  0.01387  1.0000
  H   H1271     1.0  0.97129  0.18716  0.22941  1.0000
  C   C1049     1.0  0.62370  0.33001  0.16916  1.0000
  C   C1050     1.0  0.57250  0.19050  0.22317  1.0000
  H   H1272     1.0  0.54545  0.33146  0.11150  1.0000
  H   H1273     1.0  0.91092  0.00354  0.06238  1.0000
  C   C1051     1.0  0.92976  0.18853  0.23011  1.0000
  H   H1274     1.0  0.75095  0.25655  0.23568  1.0000
  H   H1275     1.0  0.96572  0.12208  0.98620  1.0000
  Fe  Fe141     1.0  0.93037  0.10216  0.40474  1.0000
  S   S283      1.0  0.90144  0.12121  0.41622  1.0000
  S   S284      1.0  0.93101  0.07010  0.39354  1.0000
  Fe  Fe142     1.0  0.96251  0.13514  0.41135  1.0000
  S   S285      1.0  0.93629  0.15693  0.42339  1.0000
  C   C1052     1.0  0.79785  0.01274  0.24261  1.0000
  Fe  Fe143     1.0  0.92330  0.12556  0.43611  1.0000
  S   S286      1.0  0.91532  0.11421  0.46309  1.0000
  Fe  Fe144     1.0  0.91721  0.15067  0.40231  1.0000
  S   S287      1.0  0.89904  0.17878  0.38815  1.0000
  S   S288      1.0  0.95111  0.10430  0.42531  1.0000
  S   S289      1.0  0.94459  0.13113  0.38952  1.0000
  Fe  Fe145     1.0  0.88395  0.20994  0.29131  1.0000
  S   S290      1.0  0.90257  0.19664  0.26921  1.0000
  S   S291      1.0  0.88370  0.18323  0.31281  1.0000
  Fe  Fe146     1.0  0.87411  0.25445  0.27233  1.0000
  S   S292      1.0  0.85932  0.28974  0.26773  1.0000
  Fe  Fe147     1.0  0.87572  0.21253  0.25484  1.0000
  Fe  Fe148     1.0  0.91892  0.22872  0.26524  1.0000
  S   S293      1.0  0.85533  0.22357  0.27706  1.0000
  S   S294      1.0  0.90144  0.24156  0.28813  1.0000
  C   C1053     1.0  0.97674  0.19705  0.31525  1.0000
  C   C1054     1.0  0.53568  0.19708  0.24957  1.0000
  H   H1276     1.0  0.99726  0.15571  0.35274  1.0000
  H   H1277     1.0  0.77879  0.08893  0.28117  1.0000
  H   H1278     1.0  0.76953  0.07371  0.24024  1.0000
  H   H1279     1.0  0.98494  0.08775  0.47466  1.0000
  C   C1055     1.0  0.83544  0.16885  0.24742  1.0000
  C   C1056     1.0  0.96954  0.19187  0.34530  1.0000
  C   C1057     1.0  0.78009  0.07089  0.28003  1.0000
  S   S295      1.0  0.89327  0.24391  0.24930  1.0000
  H   H1280     1.0  0.96607  0.17937  0.38737  1.0000
  H   H1281     1.0  0.72439  0.01360  0.25624  1.0000
  H   H1282     1.0  0.98634  0.15558  0.45674  1.0000
  H   H1283     1.0  0.71942  0.30559  0.24754  1.0000
  C   C1058     1.0  0.96014  0.18632  0.37544  1.0000
  C   C1059     1.0  0.86956  0.02534  0.47526  1.0000
  C   C1060     1.0  0.80541  0.07710  0.25618  1.0000
  H   H1284     1.0  0.59773  0.17052  0.25679  1.0000
  C   C1061     1.0  0.76945  0.27651  0.24974  1.0000
  H   H1285     1.0  0.87463  0.03963  0.46736  1.0000
  C   C1062     1.0  0.78318  0.02567  0.27359  1.0000
  C   C1063     1.0  0.83362  0.30285  0.27418  1.0000
  C   C1064     1.0  0.89759  0.18136  0.36662  1.0000
  C   C1065     1.0  0.88531  0.19926  0.35940  1.0000
  C   C1066     1.0  0.88237  0.20103  0.34254  1.0000
  C   C1067     1.0  0.89171  0.18487  0.33273  1.0000
  C   C1068     1.0  0.90483  0.16749  0.33981  1.0000
  C   C1069     1.0  0.90781  0.16573  0.35666  1.0000
  H   H1286     1.0  0.87741  0.21148  0.36699  1.0000
  H   H1287     1.0  0.87195  0.21430  0.33732  1.0000
  H   H1288     1.0  0.91209  0.15491  0.33229  1.0000
  H   H1289     1.0  0.91752  0.15200  0.36197  1.0000
  C   C1070     1.0  0.76607  0.25828  0.24099  1.0000
  H   H1290     1.0  0.87097  0.03213  0.35914  1.0000
  C   C1071     1.0  0.80287  0.30901  0.29461  1.0000
  C   C1072     1.0  0.98352  0.18952  0.33068  1.0000
  H   H1291     1.0  0.91697  0.16102  0.46762  1.0000
  C   C1073     1.0  0.78780  0.04227  0.26055  1.0000
  C   C1074     1.0  0.79492  0.03508  0.24493  1.0000
  C   C1075     1.0  0.86907  0.03161  0.39874  1.0000
  C   C1076     1.0  0.86787  0.05319  0.40318  1.0000
  C   C1077     1.0  0.88692  0.06498  0.40211  1.0000
  C   C1078     1.0  0.90712  0.05534  0.39632  1.0000
  C   C1079     1.0  0.90833  0.03366  0.39213  1.0000
  C   C1080     1.0  0.88938  0.02174  0.39348  1.0000
  H   H1292     1.0  0.85218  0.06085  0.40728  1.0000
  H   H1293     1.0  0.88592  0.08162  0.40544  1.0000
  H   H1294     1.0  0.92392  0.02612  0.38766  1.0000
  N   N70       1.0  0.57552  0.18862  0.24092  1.0000
  H   H1295     1.0  0.85373  0.04454  0.44654  1.0000
  H   H1296     1.0  0.82008  0.06856  0.26138  1.0000
  C   C1081     1.0  0.87769  0.00795  0.44163  1.0000
  H   H1297     1.0  0.50296  0.26784  0.26671  1.0000
  H   H1298     1.0  0.89048  0.00508  0.39008  1.0000
  C   C1082     1.0  0.98293  0.15940  0.36157  1.0000
  C   C1083     1.0  0.91664  0.12870  0.48054  1.0000
  H   H1299     1.0  0.76194  0.30180  0.27582  1.0000
  C   C1084     1.0  0.55236  0.16251  0.26054  1.0000
  H   H1300     1.0  0.87579  0.00824  0.42832  1.0000
  H   H1301     1.0  0.95553  0.20400  0.37667  1.0000
  C   C1085     1.0  0.95594  0.20720  0.31390  1.0000
  H   H1302     1.0  0.81339  0.14449  0.25867  1.0000
  H   H1303     1.0  0.77721  0.02944  0.28582  1.0000
  H   H1304     1.0  0.82221  0.26091  0.25856  1.0000
  H   H1305     1.0  0.83456  0.32637  0.25287  1.0000
  H   H1306     1.0  0.53077  0.14200  0.27682  1.0000
  H   H1307     1.0  0.67845  0.01665  0.23782  1.0000
  S   S296      1.0  0.84515  0.01711  0.39968  1.0000
  C   C1086     1.0  0.94193  0.21006  0.32798  1.0000
  H   H1308     1.0  0.79390  0.29009  0.26278  1.0000
  S   S297      1.0  0.99767  0.14353  0.41048  1.0000
  C   C1087     1.0  0.80646  0.26011  0.25371  1.0000
  C   C1088     1.0  0.53224  0.15742  0.26919  1.0000
  C   C1089     1.0  0.58187  0.21009  0.24536  1.0000
  H   H1309     1.0  0.83413  0.04802  0.36742  1.0000
  H   H1310     1.0  0.56582  0.15045  0.26195  1.0000
  H   H1311     1.0  0.95064  0.21283  0.30189  1.0000
  H   H1312     1.0  0.99295  0.21278  0.36415  1.0000
  C   C1090     1.0  0.79013  0.27681  0.25605  1.0000
  H   H1313     1.0  0.97321  0.09680  0.45577  1.0000
  C   C1091     1.0  0.82557  0.32127  0.26445  1.0000
  C   C1092     1.0  0.78249  0.24155  0.23880  1.0000
  H   H1314     1.0  0.98752  0.15213  0.37384  1.0000
  C   C1093     1.0  0.91732  0.15159  0.47944  1.0000
  C   C1094     1.0  0.97655  0.10194  0.46783  1.0000
  N   N71       1.0  0.78504  0.06607  0.26267  1.0000
  C   C1095     1.0  0.55466  0.18263  0.25044  1.0000
  C   C1096     1.0  0.94851  0.20261  0.34348  1.0000
  H   H1315     1.0  0.93666  0.19725  0.23953  1.0000
  C   C1097     1.0  0.51037  0.25460  0.24344  1.0000
  C   C1098     1.0  0.73170  0.29172  0.24530  1.0000
  C   C1099     1.0  0.51568  0.19186  0.25827  1.0000
  H   H1316     1.0  0.76432  0.09403  0.25436  1.0000
  H   H1317     1.0  0.53617  0.21261  0.24210  1.0000
  H   H1318     1.0  0.79322  0.06366  0.28768  1.0000
  H   H1319     1.0  0.58240  0.20999  0.25884  1.0000
  C   C1100     1.0  0.74760  0.29710  0.26995  1.0000
  H   H1320     1.0  0.94502  0.17786  0.37408  1.0000
  C   C1101     1.0  0.81998  0.15284  0.24722  1.0000
  H   H1321     1.0  0.82794  0.28254  0.29688  1.0000
  H   H1322     1.0  0.82518  0.12398  0.36257  1.0000
  C   C1102     1.0  0.85969  0.00793  0.46902  1.0000
  C   C1103     1.0  0.97740  0.23264  0.24603  1.0000
  H   H1323     1.0  0.77627  0.32001  0.24936  1.0000
  H   H1324     1.0  0.98875  0.05557  0.40605  1.0000
  H   H1325     1.0  0.62937  0.32283  0.38842  1.0000
  H   H1326     1.0  0.75099  0.06826  0.25796  1.0000
  H   H1327     1.0  0.90261  0.05577  0.35429  1.0000
  N   N72       1.0  0.97698  0.18330  0.36145  1.0000
  H   H1328     1.0  0.93666  0.20526  0.35380  1.0000
  H   H1329     1.0  0.83965  0.03041  0.43338  1.0000
  H   H1330     1.0  0.97507  0.13703  0.44466  1.0000
  C   C1104     1.0  0.51396  0.17205  0.26806  1.0000
  S   S298      1.0  0.95645  0.22372  0.26137  1.0000
  H   H1331     1.0  0.73452  0.31024  0.27220  1.0000
  C   C1105     1.0  0.79502  0.32761  0.28498  1.0000
  N   N73       1.0  0.75271  0.29477  0.25217  1.0000
  C   C1106     1.0  0.82190  0.29654  0.28918  1.0000
  C   C1107     1.0  0.73499  0.00643  0.24665  1.0000
  C   C1108     1.0  0.76669  0.07597  0.25349  1.0000
  H   H1332     1.0  0.79437  0.30434  0.30647  1.0000
  C   C1109     1.0  0.97267  0.02511  0.40821  1.0000
  C   C1110     1.0  0.99658  0.19469  0.36452  1.0000
  H   H1333     1.0  0.74201  0.28146  0.27663  1.0000
  H   H1334     1.0  0.60962  0.17771  0.23641  1.0000
  H   H1335     1.0  0.96898  0.15037  0.35838  1.0000
  H   H1336     1.0  0.82804  0.08692  0.37056  1.0000
  H   H1337     1.0  0.96023  0.10506  0.47463  1.0000
  H   H1338     1.0  0.89772  0.09502  0.35715  1.0000
  H   H1339     1.0  0.84069  0.17267  0.25894  1.0000
  H   H1340     1.0  0.76403  0.06465  0.28534  1.0000
  N   N74       1.0  0.98995  0.12150  0.46592  1.0000
  H   H1341     1.0  0.87142  0.33122  0.28502  1.0000
  C   C1111     1.0  0.59421  0.17242  0.24371  1.0000
  H   H1342     1.0  0.72404  0.27648  0.25100  1.0000
  H   H1343     1.0  0.96081  0.14321  0.46357  1.0000
  C   C1112     1.0  0.99896  0.22359  0.24715  1.0000
  N   N75       1.0  0.85969  0.11913  0.36584  1.0000
  C   C1113     1.0  0.87426  0.12483  0.37799  1.0000
  C   C1114     1.0  0.86572  0.13159  0.34982  1.0000
  C   C1115     1.0  0.83698  0.12672  0.37151  1.0000
  C   C1116     1.0  0.86235  0.09527  0.36399  1.0000
  C   C1117     1.0  0.88332  0.08546  0.35923  1.0000
  C   C1118     1.0  0.84453  0.08117  0.36668  1.0000
  C   C1119     1.0  0.88630  0.06300  0.35737  1.0000
  C   C1120     1.0  0.84772  0.05872  0.36473  1.0000
  C   C1121     1.0  0.86852  0.04968  0.36006  1.0000
  H   H1344     1.0  0.89193  0.12180  0.37402  1.0000
  H   H1345     1.0  0.87212  0.14255  0.38019  1.0000
  H   H1346     1.0  0.87080  0.11503  0.38999  1.0000
  H   H1347     1.0  0.88312  0.12813  0.34526  1.0000
  H   H1348     1.0  0.86354  0.14970  0.35055  1.0000
  H   H1349     1.0  0.85549  0.12742  0.34023  1.0000
  H   H1350     1.0  0.83153  0.11829  0.38372  1.0000
  H   H1351     1.0  0.83572  0.14470  0.37291  1.0000
  H   H1352     1.0  0.95636  0.03315  0.40933  1.0000
  C   C1122     1.0  0.99093  0.03781  0.40630  1.0000
  N   N76       1.0  0.85611  0.00901  0.45141  1.0000
  C   C1123     1.0  0.97752  0.14014  0.45744  1.0000
  H   H1353     1.0  0.99287  0.10569  0.39298  1.0000
  H   H1354     1.0  0.59834  0.21436  0.23944  1.0000
  H   H1355     1.0  0.82845  0.03218  0.45426  1.0000
  H   H1356     1.0  0.92568  0.21786  0.32682  1.0000
  H   H1357     1.0  0.81538  0.22953  0.24331  1.0000
  C   C1124     1.0  0.84399  0.02995  0.44627  1.0000
  H   H1358     1.0  0.99979  0.18172  0.33106  1.0000
  C   C1125     1.0  0.76134  0.31561  0.24410  1.0000
  H   H1359     1.0  0.57039  0.22393  0.24141  1.0000
  H   H1360     1.0  0.74912  0.32973  0.24551  1.0000
  H   H1361     1.0  0.98757  0.19496  0.30421  1.0000
  H   H1362     1.0  0.88764  0.02205  0.44309  1.0000
  H   H1363     1.0  0.84285  0.33358  0.30814  1.0000
  S   S299      1.0  0.53837  0.26109  0.24225  1.0000
  C   C1126     1.0  0.80265  0.24248  0.24512  1.0000
  H   H1364     1.0  0.80476  0.09455  0.25904  1.0000
  H   H1365     1.0  0.59118  0.15610  0.23978  1.0000
  C   C1127     1.0  0.99447  0.12702  0.48236  1.0000
  C   C1128     1.0  0.80626  0.33343  0.26970  1.0000
  H   H1366     1.0  0.80820  0.07792  0.24258  1.0000
  C   C1129     1.0  0.78591  0.00335  0.27107  1.0000
  C   C1130     1.0  0.85347  0.01061  0.60047  1.0000
  Fe  Fe149     1.0  0.96733  0.13927  0.57093  1.0000
  S   S300      1.0  0.94386  0.16840  0.56666  1.0000
  Fe  Fe150     1.0  0.93128  0.10748  0.57650  1.0000
  S   S301      1.0  0.90479  0.13393  0.57235  1.0000
  S   S302      1.0  0.92655  0.07172  0.58480  1.0000
  Fe  Fe151     1.0  0.92788  0.14696  0.55115  1.0000
  S   S303      1.0  0.91836  0.16450  0.52697  1.0000
  Fe  Fe152     1.0  0.92278  0.15335  0.58822  1.0000
  S   S304      1.0  0.90025  0.17164  0.60687  1.0000
  S   S305      1.0  0.95295  0.11882  0.55400  1.0000
  S   S306      1.0  0.94774  0.12585  0.59383  1.0000
  Fe  Fe153     1.0  0.90515  0.23755  0.68892  1.0000
  S   S307      1.0  0.90772  0.21655  0.71297  1.0000
  S   S308      1.0  0.92331  0.22414  0.66592  1.0000
  Fe  Fe154     1.0  0.88298  0.27716  0.70556  1.0000
  S   S309      1.0  0.86255  0.01898  0.54930  1.0000
  S   S310      1.0  0.86673  0.31158  0.70885  1.0000
  Fe  Fe155     1.0  0.91985  0.24668  0.72214  1.0000
  C   C1131     1.0  0.72747  0.18038  0.72376  1.0000
  Fe  Fe156     1.0  0.87334  0.23017  0.71937  1.0000
  S   S311      1.0  0.62332  0.30302  0.73017  1.0000
  S   S312      1.0  0.91861  0.26742  0.69799  1.0000
  S   S313      1.0  0.86956  0.24893  0.69477  1.0000
  H   H1367     1.0  0.86056  0.25210  0.56178  1.0000
  C   C1132     1.0  0.89486  0.23836  0.59893  1.0000
  H   H1368     1.0  0.74392  0.22108  0.72931  1.0000
  H   H1369     1.0  0.74353  0.32925  0.69591  1.0000
  H   H1370     1.0  0.82554  0.28549  0.72188  1.0000
  H   H1371     1.0  0.50941  0.26965  0.70425  1.0000
  H   H1372     1.0  0.81644  0.19653  0.70334  1.0000
  H   H1373     1.0  0.86031  0.17904  0.71749  1.0000
  H   H1374     1.0  0.84709  0.14124  0.71872  1.0000
  C   C1133     1.0  0.77422  0.23067  0.71664  1.0000
  H   H1375     1.0  0.88075  0.03809  0.49636  1.0000
  H   H1376     1.0  0.91804  0.18009  0.49284  1.0000
  H   H1377     1.0  0.91719  0.23488  0.54583  1.0000
  H   H1378     1.0  0.80110  0.03337  0.57804  1.0000
  H   H1379     1.0  0.71923  0.32398  0.71909  1.0000
  H   H1380     1.0  0.75479  0.30125  0.69691  1.0000
  H   H1381     1.0  0.84140  0.31061  0.68028  1.0000
  H   H1382     1.0  0.88087  0.11808  0.62539  1.0000
  C   C1134     1.0  0.52217  0.25514  0.72664  1.0000
  H   H1383     1.0  0.88577  0.01287  0.60817  1.0000
  C   C1135     1.0  0.87660  0.22179  0.54437  1.0000
  H   H1384     1.0  0.98180  0.24336  0.71687  1.0000
  H   H1385     1.0  0.91861  0.11124  0.62533  1.0000
  C   C1136     1.0  0.90698  0.18620  0.62321  1.0000
  C   C1137     1.0  0.92864  0.19009  0.62543  1.0000
  C   C1138     1.0  0.93319  0.20193  0.63845  1.0000
  C   C1139     1.0  0.91623  0.20985  0.64952  1.0000
  C   C1140     1.0  0.89455  0.20586  0.64734  1.0000
  C   C1141     1.0  0.88998  0.19417  0.63422  1.0000
  H   H1386     1.0  0.94190  0.18416  0.61705  1.0000
  H   H1387     1.0  0.95002  0.20493  0.64001  1.0000
  H   H1388     1.0  0.88134  0.21179  0.65575  1.0000
  H   H1389     1.0  0.87315  0.19132  0.63260  1.0000
  H   H1390     1.0  0.91044  0.09420  0.66206  1.0000
  C   C1142     1.0  0.91817  0.15034  0.50923  1.0000
  H   H1391     1.0  0.85898  0.22010  0.54875  1.0000
  C   C1143     1.0  0.88095  0.03355  0.55865  1.0000
  C   C1144     1.0  0.88109  0.05649  0.55558  1.0000
  C   C1145     1.0  0.89531  0.06840  0.56331  1.0000
  C   C1146     1.0  0.90909  0.05740  0.57440  1.0000
  C   C1147     1.0  0.90880  0.03449  0.57754  1.0000
  C   C1148     1.0  0.89501  0.02255  0.56952  1.0000
  H   H1392     1.0  0.87029  0.06507  0.54714  1.0000
  H   H1393     1.0  0.89545  0.08606  0.56080  1.0000
  H   H1394     1.0  0.91935  0.02593  0.58617  1.0000
  H   H1395     1.0  0.93359  0.11734  0.64168  1.0000
  H   H1396     1.0  0.89502  0.00488  0.57197  1.0000
  H   H1397     1.0  0.89904  0.18604  0.57292  1.0000
  C   C1149     1.0  0.84333  0.32727  0.70185  1.0000
  H   H1398     1.0  0.50514  0.27479  0.65389  1.0000
  H   H1399     1.0  0.87087  0.00567  0.51535  1.0000
  H   H1400     1.0  0.89382  0.17789  0.69357  1.0000
  C   C1150     1.0  0.91792  0.12743  0.51027  1.0000
  C   C1151     1.0  0.88740  0.19261  0.56394  1.0000
  C   C1152     1.0  0.84670  0.17411  0.72614  1.0000
  H   H1401     1.0  0.99291  0.10033  0.58068  1.0000
  C   C1153     1.0  0.87955  0.12729  0.63650  1.0000
  H   H1402     1.0  0.87897  0.23882  0.53867  1.0000
  H   H1403     1.0  0.92595  0.21258  0.55981  1.0000
  H   H1404     1.0  0.91805  0.11798  0.52209  1.0000
  C   C1154     1.0  0.89683  0.09882  0.65414  1.0000
  C   C1155     1.0  0.83428  0.32360  0.68745  1.0000
  C   C1156     1.0  0.91402  0.16422  0.67387  1.0000
  C   C1157     1.0  0.83918  0.15281  0.72683  1.0000
  C   C1158     1.0  0.87866  0.13901  0.67073  1.0000
  H   H1405     1.0  0.87595  0.26532  0.60913  1.0000
  C   C1159     1.0  0.89496  0.16625  0.68438  1.0000
  H   H1406     1.0  0.88970  0.18159  0.55384  1.0000
  C   C1160     1.0  0.87734  0.15361  0.68286  1.0000
  C   C1161     1.0  0.81601  0.02824  0.58446  1.0000
  N   N77       1.0  0.89836  0.12172  0.64652  1.0000
  C   C1162     1.0  0.79468  0.00318  0.60275  1.0000
  C   C1163     1.0  0.91543  0.14993  0.66151  1.0000
  H   H1407     1.0  0.86457  0.12953  0.67008  1.0000
  C   C1164     1.0  0.98053  0.13796  0.50960  1.0000
  H   H1408     1.0  0.78023  0.01018  0.59640  1.0000
  H   H1409     1.0  0.91633  0.09901  0.49699  1.0000
  H   H1410     1.0  0.91125  0.21246  0.58644  1.0000
  C   C1165     1.0  0.86782  0.00630  0.50254  1.0000
  H   H1411     1.0  0.96020  0.13443  0.49072  1.0000
  C   C1166     1.0  0.87336  0.02454  0.49180  1.0000
  C   C1167     1.0  0.91877  0.12247  0.63518  1.0000
  S   S314      1.0  0.88540  0.25860  0.73028  1.0000
  H   H1412     1.0  0.71573  0.16760  0.72856  1.0000
  C   C1168     1.0  0.89766  0.13691  0.65952  1.0000
  H   H1413     1.0  0.93043  0.14985  0.65348  1.0000
  H   H1414     1.0  0.92082  0.13924  0.62885  1.0000
  H   H1415     1.0  0.86354  0.12355  0.64338  1.0000
  C   C1169     1.0  0.97693  0.13329  0.49382  1.0000
  C   C1170     1.0  0.96825  0.02151  0.56698  1.0000
  H   H1416     1.0  0.86249  0.15529  0.69104  1.0000
  C   C1171     1.0  0.89876  0.22572  0.58561  1.0000
  H   H1417     1.0  0.76994  0.24805  0.71704  1.0000
  C   C1172     1.0  0.50595  0.25915  0.71543  1.0000
  H   H1418     1.0  0.88039  0.21076  0.53431  1.0000
  H   H1419     1.0  0.85511  0.02591  0.59284  1.0000
  H   H1420     1.0  0.87061  0.19072  0.57018  1.0000
  H   H1421     1.0  0.89772  0.08686  0.64470  1.0000
  C   C1173     1.0  0.75624  0.31765  0.70129  1.0000
  H   H1422     1.0  0.88118  0.09641  0.66196  1.0000
  C   C1174     1.0  0.73264  0.00841  0.73514  1.0000
  H   H1423     1.0  0.92754  0.17445  0.67492  1.0000
  C   C1175     1.0  0.73093  0.31187  0.72516  1.0000
  H   H1424     1.0  0.91799  0.20700  0.54047  1.0000
  H   H1425     1.0  0.79860  0.31282  0.71131  1.0000
  H   H1426     1.0  0.85449  0.27375  0.58512  1.0000
  N   N78       1.0  0.89093  0.21586  0.55786  1.0000
  C   C1176     1.0  0.77024  0.29979  0.72631  1.0000
  H   H1427     1.0  0.87867  0.14511  0.63220  1.0000
  C   C1177     1.0  0.78561  0.18593  0.71544  1.0000
  C   C1178     1.0  0.80837  0.28469  0.72658  1.0000
  H   H1428     1.0  0.79131  0.16895  0.71479  1.0000
  C   C1179     1.0  0.91692  0.11672  0.49601  1.0000
  H   H1429     1.0  0.99663  0.03885  0.56874  1.0000
  C   C1180     1.0  0.99094  0.02318  0.56650  1.0000
  H   H1430     1.0  0.50510  0.29614  0.66743  1.0000
  C   C1181     1.0  0.88663  0.22982  0.57166  1.0000
  C   C1182     1.0  0.87055  0.24763  0.57181  1.0000
  H   H1431     1.0  0.72954  0.18042  0.71017  1.0000
  C   C1183     1.0  0.86686  0.26028  0.58519  1.0000
  C   C1184     1.0  0.79473  0.22396  0.70945  1.0000
  C   C1185     1.0  0.87893  0.25561  0.59873  1.0000
  H   H1432     1.0  0.83004  0.03048  0.57488  1.0000
  H   H1433     1.0  0.95722  0.03573  0.56921  1.0000
  H   H1434     1.0  0.90415  0.23462  0.60953  1.0000
  C   C1186     1.0  0.91397  0.21767  0.55070  1.0000
  H   H1435     1.0  0.80648  0.23602  0.70461  1.0000
  C   C1187     1.0  0.91788  0.16236  0.49376  1.0000
  C   C1188     1.0  0.79277  0.30022  0.72048  1.0000
  C   C1189     1.0  0.75942  0.21510  0.72351  1.0000
  C   C1190     1.0  0.80031  0.20167  0.70874  1.0000
  C   C1191     1.0  0.98807  0.24284  0.72875  1.0000
  H   H1436     1.0  0.81715  0.03984  0.59388  1.0000
  H   H1437     1.0  0.53784  0.26249  0.72397  1.0000
  N   N79       1.0  0.75411  0.31643  0.71950  1.0000
  C   C1192     1.0  0.76465  0.19221  0.72312  1.0000
  H   H1438     1.0  0.71912  0.19626  0.72685  1.0000
  C   C1193     1.0  0.64592  0.31868  0.73221  1.0000
  H   H1439     1.0  0.77144  0.14780  0.73459  1.0000
  H   H1440     1.0  0.96676  0.14272  0.51809  1.0000
  H   H1441     1.0  0.77209  0.32407  0.69574  1.0000
  H   H1442     1.0  0.75928  0.15017  0.71526  1.0000
  H   H1443     1.0  0.64546  0.33504  0.70780  1.0000
  C   C1194     1.0  0.75628  0.15293  0.72847  1.0000
  H   H1444     1.0  0.79523  0.01184  0.61396  1.0000
  N   N80       1.0  0.74888  0.17607  0.73081  1.0000
  C   C1195     1.0  0.65338  0.33361  0.71907  1.0000
  H   H1445     1.0  0.74374  0.14133  0.73392  1.0000
  H   H1446     1.0  0.72684  0.29531  0.72236  1.0000
  N   N81       1.0  0.81548  0.00514  0.59194  1.0000
  C   C1196     1.0  0.87139  0.00323  0.60922  1.0000
  C   C1197     1.0  0.00170  0.13642  0.51450  1.0000
  H   H1447     1.0  0.80999  0.33459  0.67067  1.0000
  C   C1198     1.0  0.00044  0.09430  0.86376  1.0000
  Fe  Fe157     1.0  0.85771  0.03570  0.89973  1.0000
  S   S315      1.0  0.83244  0.06405  0.89889  1.0000
  Fe  Fe158     1.0  0.89598  0.06487  0.89793  1.0000
  S   S316      1.0  0.87433  0.09564  0.89632  1.0000
  S   S317      1.0  0.93257  0.06179  0.89920  1.0000
  Fe  Fe159     1.0  0.85280  0.07794  0.91643  1.0000
  S   S318      1.0  0.84168  0.09800  0.93773  1.0000
  Fe  Fe160     1.0  0.85585  0.07929  0.87889  1.0000
  S   S319      1.0  0.84691  0.09766  0.85474  1.0000
  S   S320      1.0  0.87569  0.04811  0.91908  1.0000
  S   S321      1.0  0.87986  0.05003  0.87865  1.0000
  C   C1199     1.0  0.82138  0.14634  0.73793  1.0000
  C   C1200     1.0  0.63675  0.13498  0.78221  1.0000
  C   C1201     1.0  0.58231  0.32237  0.85495  1.0000
  S   S322      1.0  0.76535  0.02916  0.74859  1.0000
  H   H1448     1.0  0.60836  0.29700  0.85545  1.0000
  H   H1449     1.0  0.87426  0.02376  0.84715  1.0000
  Fe  Fe161     1.0  0.61552  0.23706  0.77293  1.0000
  S   S323      1.0  0.60459  0.24396  0.74749  1.0000
  S   S324      1.0  0.63922  0.20888  0.78237  1.0000
  Fe  Fe162     1.0  0.58684  0.27667  0.78593  1.0000
  S   S325      1.0  0.57427  0.28576  0.76116  1.0000
  S   S326      1.0  0.57101  0.30019  0.80444  1.0000
  Fe  Fe163     1.0  0.57031  0.24986  0.75971  1.0000
  S   S327      1.0  0.53908  0.23345  0.75480  1.0000
  Fe  Fe164     1.0  0.60920  0.27941  0.75097  1.0000
  S   S328      1.0  0.94414  0.24443  0.74222  1.0000
  S   S329      1.0  0.58095  0.24087  0.78519  1.0000
  S   S330      1.0  0.62218  0.27241  0.77566  1.0000
  Fe  Fe165     1.0  0.76260  0.08935  0.78767  1.0000
  S   S331      1.0  0.78667  0.07432  0.76916  1.0000
  S   S332      1.0  0.76546  0.08253  0.81525  1.0000
  Fe  Fe166     1.0  0.73294  0.10980  0.76173  1.0000
  C   C1202     1.0  0.83535  0.02168  0.83266  1.0000
  S   S333      1.0  0.70343  0.13205  0.75324  1.0000
  Fe  Fe167     1.0  0.75763  0.06375  0.75758  1.0000
  C   C1203     1.0  0.81883  0.18247  0.74788  1.0000
  Fe  Fe168     1.0  0.78272  0.10657  0.75394  1.0000
  H   H1450     1.0  0.83792  0.02839  0.87297  1.0000
  S   S334      1.0  0.73331  0.07702  0.77727  1.0000
  S   S335      1.0  0.76072  0.12278  0.77330  1.0000
  C   C1204     1.0  0.53393  0.29831  0.89752  1.0000
  C   C1205     1.0  0.51839  0.24101  0.74097  1.0000
  C   C1206     1.0  0.74550  0.17804  0.74872  1.0000
  C   C1207     1.0  0.65820  0.18887  0.77351  1.0000
  C   C1208     1.0  0.67276  0.17647  0.78355  1.0000
  C   C1209     1.0  0.68717  0.15955  0.77748  1.0000
  C   C1210     1.0  0.68698  0.15445  0.76130  1.0000
  C   C1211     1.0  0.67268  0.16707  0.75117  1.0000
  C   C1212     1.0  0.65854  0.18425  0.75715  1.0000
  H   H1451     1.0  0.67269  0.17979  0.79622  1.0000
  H   H1452     1.0  0.69794  0.15003  0.78550  1.0000
  H   H1453     1.0  0.55111  0.30299  0.89381  1.0000
  H   H1454     1.0  0.64757  0.19353  0.74920  1.0000
  H   H1455     1.0  0.97222  0.17414  0.86558  1.0000
  C   C1213     1.0  0.97336  0.24331  0.74285  1.0000
  H   H1456     1.0  0.78512  0.07493  0.93518  1.0000
  H   H1457     1.0  0.63447  0.11931  0.74410  1.0000
  C   C1214     1.0  0.59580  0.30529  0.84836  1.0000
  C   C1215     1.0  0.81135  0.16115  0.74859  1.0000
  H   H1458     1.0  0.00158  0.28520  0.77345  1.0000
  C   C1216     1.0  0.94425  0.09735  0.95666  1.0000
  H   H1459     1.0  0.75944  0.06697  0.88962  1.0000
  H   H1460     1.0  0.56299  0.14726  0.77435  1.0000
  H   H1461     1.0  0.93563  0.06504  0.93764  1.0000
  C   C1217     1.0  0.59252  0.18968  0.75651  1.0000
  H   H1462     1.0  0.61628  0.15915  0.79361  1.0000
  C   C1218     1.0  0.56621  0.33296  0.84558  1.0000
  H   H1463     1.0  0.83515  0.03517  0.97962  1.0000
  C   C1219     1.0  0.57647  0.30873  0.82366  1.0000
  C   C1220     1.0  0.59304  0.29859  0.83278  1.0000
  C   C1221     1.0  0.80810  0.03514  0.81347  1.0000
  H   H1464     1.0  0.65100  0.30511  0.75673  1.0000
  H   H1465     1.0  0.93246  0.19922  0.74631  1.0000
  H   H1466     1.0  0.60336  0.28523  0.82803  1.0000
  C   C1222     1.0  0.89444  0.16570  0.78998  1.0000
  C   C1223     1.0  0.88061  0.14896  0.79633  1.0000
  C   C1224     1.0  0.82464  0.09233  0.84371  1.0000
  C   C1225     1.0  0.82487  0.09983  0.82699  1.0000
  C   C1226     1.0  0.80708  0.09664  0.81800  1.0000
  C   C1227     1.0  0.78868  0.08626  0.82576  1.0000
  C   C1228     1.0  0.78846  0.07881  0.84251  1.0000
  C   C1229     1.0  0.80637  0.08172  0.85142  1.0000
  H   H1467     1.0  0.83888  0.10815  0.82093  1.0000
  H   H1468     1.0  0.80746  0.10245  0.80512  1.0000
  H   H1469     1.0  0.77428  0.07079  0.84861  1.0000
  H   H1470     1.0  0.80590  0.07607  0.86431  1.0000
  S   S336      1.0  0.58585  0.32918  0.87509  1.0000
  C   C1230     1.0  0.84150  0.08497  0.95791  1.0000
  C   C1231     1.0  0.83920  0.06236  0.96105  1.0000
  H   H1471     1.0  0.84484  0.11507  0.96878  1.0000
  H   H1472     1.0  0.83772  0.05253  0.95103  1.0000
  C   C1232     1.0  0.96865  0.11825  0.91463  1.0000
  C   C1233     1.0  0.94709  0.12213  0.91031  1.0000
  C   C1234     1.0  0.93562  0.10488  0.90572  1.0000
  C   C1235     1.0  0.94575  0.08375  0.90545  1.0000
  C   C1236     1.0  0.96706  0.07984  0.91017  1.0000
  C   C1237     1.0  0.97839  0.09696  0.91486  1.0000
  H   H1473     1.0  0.93939  0.13853  0.91028  1.0000
  H   H1474     1.0  0.91916  0.10802  0.90212  1.0000
  H   H1475     1.0  0.97487  0.06348  0.91025  1.0000
  N   N82       1.0  0.51904  0.30641  0.88476  1.0000
  H   H1476     1.0  0.96883  0.13707  0.87726  1.0000
  S   S337      1.0  0.75519  0.09544  0.74130  1.0000
  H   H1477     1.0  0.88568  0.05142  0.96307  1.0000
  C   C1238     1.0  0.80209  0.26844  0.73888  1.0000
  H   H1478     1.0  0.96245  0.01448  0.89400  1.0000
  H   H1479     1.0  0.88169  0.21823  0.77144  1.0000
  H   H1480     1.0  0.80016  0.02773  0.83900  1.0000
  C   C1239     1.0  0.52052  0.33054  0.88181  1.0000
  H   H1481     1.0  0.56263  0.26259  0.84894  1.0000
  H   H1482     1.0  0.90573  0.17046  0.79807  1.0000
  C   C1240     1.0  0.62981  0.12779  0.75498  1.0000
  H   H1483     1.0  0.84158  0.04807  0.85539  1.0000
  C   C1241     1.0  0.87778  0.16803  0.76432  1.0000
  H   H1484     1.0  0.53740  0.33477  0.87684  1.0000
  H   H1485     1.0  0.74786  0.28218  0.74485  1.0000
  H   H1486     1.0  0.81091  0.19396  0.75607  1.0000
  C   C1242     1.0  0.52444  0.29644  0.86908  1.0000
  C   C1243     1.0  0.86411  0.15127  0.77076  1.0000
  H   H1487     1.0  0.96202  0.05236  0.98354  1.0000
  H   H1488     1.0  0.79791  0.15615  0.75737  1.0000
  H   H1489     1.0  0.55036  0.33404  0.82320  1.0000
  H   H1490     1.0  0.61459  0.32165  0.77231  1.0000
  H   H1491     1.0  0.91135  0.18249  0.74218  1.0000
  C   C1244     1.0  0.97925  0.00762  0.89285  1.0000
  C   C1245     1.0  0.97870  0.05709  0.98371  1.0000
  C   C1246     1.0  0.65633  0.31682  0.74668  1.0000
  H   H1492     1.0  0.94682  0.09685  0.94354  1.0000
  H   H1493     1.0  0.90375  0.22772  0.75703  1.0000
  H   H1494     1.0  0.88983  0.10151  0.95375  1.0000
  C   C1247     1.0  0.60579  0.15484  0.76936  1.0000
  H   H1495     1.0  0.53828  0.27174  0.82681  1.0000
  C   C1248     1.0  0.98203  0.24259  0.75817  1.0000
  C   C1249     1.0  0.92456  0.08832  0.98321  1.0000
  C   C1250     1.0  0.76443  0.28335  0.73920  1.0000
  C   C1251     1.0  0.89376  0.21334  0.76127  1.0000
  H   H1496     1.0  0.81558  0.03619  0.86121  1.0000
  H   H1497     1.0  0.97092  0.24299  0.76920  1.0000
  C   C1252     1.0  0.82437  0.03619  0.80044  1.0000
  C   C1253     1.0  0.92507  0.05717  0.94801  1.0000
  C   C1254     1.0  0.67369  0.33018  0.74816  1.0000
  C   C1255     1.0  0.51580  0.29246  0.84100  1.0000
  H   H1498     1.0  0.77553  0.25544  0.75509  1.0000
  H   H1499     1.0  0.98657  0.19263  0.87577  1.0000
  C   C1256     1.0  0.54330  0.28210  0.86611  1.0000
  C   C1257     1.0  0.61187  0.14310  0.75542  1.0000
  H   H1500     1.0  0.65654  0.11237  0.76779  1.0000
  C   C1258     1.0  0.84604  0.02996  0.80321  1.0000
  H   H1501     1.0  0.86869  0.01838  0.82031  1.0000
  H   H1502     1.0  0.91021  0.09754  0.93695  1.0000
  H   H1503     1.0  0.56842  0.15621  0.75294  1.0000
  H   H1504     1.0  0.55257  0.17379  0.76596  1.0000
  H   H1505     1.0  0.88439  0.21070  0.75084  1.0000
  H   H1506     1.0  0.52899  0.30554  0.90932  1.0000
  C   C1259     1.0  0.95808  0.11002  0.96389  1.0000
  H   H1507     1.0  0.93174  0.17127  0.75535  1.0000
  H   H1508     1.0  0.93581  0.04600  0.95567  1.0000
  H   H1509     1.0  0.59509  0.18412  0.74400  1.0000
  C   C1260     1.0  0.89337  0.17580  0.77371  1.0000
  H   H1510     1.0  0.60783  0.19719  0.75885  1.0000
  H   H1511     1.0  0.55515  0.27807  0.87497  1.0000
  H   H1512     1.0  0.87597  0.17498  0.75190  1.0000
  N   N83       1.0  0.58718  0.17153  0.76927  1.0000
  H   H1513     1.0  0.56764  0.19337  0.78474  1.0000
  N   N84       1.0  0.91223  0.07340  0.95791  1.0000
  C   C1261     1.0  0.84317  0.09753  0.97110  1.0000
  H   H1514     1.0  0.79127  0.04030  0.81128  1.0000
  N   N85       1.0  0.90760  0.19361  0.76651  1.0000
  H   H1515     1.0  0.93423  0.18662  0.78190  1.0000
  C   C1262     1.0  0.61892  0.15042  0.78276  1.0000
  H   H1516     1.0  0.76454  0.05347  0.91844  1.0000
  C   C1263     1.0  0.95515  0.11197  0.98069  1.0000
  H   H1517     1.0  0.88770  0.08016  0.94072  1.0000
  C   C1264     1.0  0.86548  0.14178  0.78674  1.0000
  H   H1518     1.0  0.93297  0.21388  0.77205  1.0000
  C   C1265     1.0  0.75485  0.00867  0.73775  1.0000
  H   H1519     1.0  0.89454  0.01047  0.90081  1.0000
  C   C1266     1.0  0.83779  0.05253  0.97729  1.0000
  H   H1520     1.0  0.91424  0.04686  0.94222  1.0000
  H   H1521     1.0  0.85476  0.12884  0.79169  1.0000
  C   C1267     1.0  0.56324  0.32606  0.83012  1.0000
  N   N86       1.0  0.79947  0.12934  0.89225  1.0000
  C   C1268     1.0  0.79061  0.14773  0.90185  1.0000
  C   C1269     1.0  0.82354  0.12672  0.89310  1.0000
  C   C1270     1.0  0.79559  0.13564  0.87481  1.0000
  C   C1271     1.0  0.78928  0.10877  0.89923  1.0000
  C   C1272     1.0  0.77721  0.09614  0.89000  1.0000
  C   C1273     1.0  0.79151  0.10066  0.91580  1.0000
  C   C1274     1.0  0.76838  0.07647  0.89693  1.0000
  C   C1275     1.0  0.78268  0.08097  0.92259  1.0000
  C   C1276     1.0  0.77117  0.06885  0.91317  1.0000
  H   H1522     1.0  0.79501  0.14536  0.91473  1.0000
  H   H1523     1.0  0.79718  0.16368  0.89651  1.0000
  H   H1524     1.0  0.77239  0.14944  0.90226  1.0000
  H   H1525     1.0  0.83063  0.11281  0.88621  1.0000
  H   H1526     1.0  0.82815  0.12340  0.90589  1.0000
  H   H1527     1.0  0.83197  0.14165  0.88765  1.0000
  H   H1528     1.0  0.77779  0.13844  0.87321  1.0000
  H   H1529     1.0  0.80353  0.15108  0.86990  1.0000
  H   H1530     1.0  0.80275  0.12286  0.86678  1.0000
  H   H1531     1.0  0.77453  0.10093  0.87733  1.0000
  H   H1532     1.0  0.80051  0.10926  0.92360  1.0000
  C   C1277     1.0  0.89952  0.08881  0.94686  1.0000
  H   H1533     1.0  0.88497  0.07233  0.97660  1.0000
  C   C1278     1.0  0.64221  0.12373  0.76835  1.0000
  H   H1534     1.0  0.88157  0.14148  0.80877  1.0000
  H   H1535     1.0  0.72130  0.02144  0.73921  1.0000
  H   H1536     1.0  0.59592  0.19054  0.78817  1.0000
  C   C1279     1.0  0.92134  0.18629  0.75198  1.0000
  C   C1280     1.0  0.89633  0.06108  0.96955  1.0000
  C   C1281     1.0  0.92710  0.08603  0.96607  1.0000
  C   C1282     1.0  0.53418  0.27821  0.83860  1.0000
  C   C1283     1.0  0.56698  0.16169  0.76548  1.0000
  C   C1284     1.0  0.83359  0.03262  0.86021  1.0000
  H   H1537     1.0  0.57912  0.20288  0.75623  1.0000
  C   C1285     1.0  0.92262  0.20040  0.77797  1.0000
  H   H1538     1.0  0.73441  0.16552  0.75508  1.0000
  H   H1539     1.0  0.53388  0.28015  0.90020  1.0000
  C   C1286     1.0  0.98346  0.12885  0.87186  1.0000
  H   H1540     1.0  0.97731  0.16811  0.88695  1.0000
  C   C1287     1.0  0.58203  0.18128  0.78512  1.0000
  C   C1288     1.0  0.85158  0.02279  0.81905  1.0000
  H   H1541     1.0  0.57807  0.16848  0.79536  1.0000
  H   H1542     1.0  0.50556  0.29685  0.83103  1.0000
  S   S338      1.0  0.98352  0.13994  0.91952  1.0000
  C   C1289     1.0  0.99650  0.02163  0.89028  1.0000
  H   H1543     1.0  0.61298  0.31525  0.79403  1.0000
  H   H1544     1.0  0.91333  0.20686  0.78895  1.0000
  C   C1290     1.0  0.62038  0.32645  0.78379  1.0000
  C   C1291     1.0  0.54788  0.27304  0.85112  1.0000
  H   H1545     1.0  0.96695  0.09852  0.87375  1.0000
  C   C1292     1.0  0.98441  0.17494  0.87463  1.0000
  H   H1546     1.0  0.60311  0.14603  0.74458  1.0000
  C   C1293     1.0  0.81341  0.02796  0.82933  1.0000
  H   H1547     1.0  0.72719  0.31342  0.73853  1.0000
  H   H1548     1.0  0.68147  0.32887  0.75948  1.0000
  H   H1549     1.0  0.82014  0.04197  0.78819  1.0000
  H   H1550     1.0  0.85232  0.14564  0.76332  1.0000
  H   H1551     1.0  0.67221  0.16325  0.73866  1.0000
  H   H1552     1.0  0.64694  0.13229  0.79235  1.0000
  H   H1553     1.0  0.81430  0.25641  0.74354  1.0000
  H   H1554     1.0  0.85864  0.03087  0.79300  1.0000
  C   C1294     1.0  0.51093  0.30148  0.85598  1.0000
  N   N87       1.0  0.84057  0.01470  0.84967  1.0000
  H   H1555     1.0  0.97094  0.11865  0.95630  1.0000
  H   H1556     1.0  0.76133  0.17561  0.75439  1.0000
  C   C1295     1.0  0.98215  0.10653  0.86999  1.0000
  H   H1557     1.0  0.99313  0.03927  0.88953  1.0000
  H   H1558     1.0  0.90478  0.04926  0.97835  1.0000
  H   H1559     1.0  0.99465  0.09355  0.91876  1.0000
  S   S339      1.0  0.81201  0.11979  0.73778  1.0000
  H   H1560     1.0  0.99942  0.07690  0.86270  1.0000
  C   C1296     1.0  0.78021  0.26791  0.74530  1.0000
  H   H1561     1.0  0.73790  0.19431  0.75163  1.0000
  H   H1562     1.0  0.63847  0.32300  0.78304  1.0000
  C   C1297     1.0  0.83640  0.18905  0.73659  1.0000
  H   H1563     1.0  0.98888  0.04799  0.95935  1.0000
  C   C1298     1.0  0.86430  0.00931  0.85122  1.0000
  H   H1564     1.0  0.86758  0.00429  0.86421  1.0000
  C   C1299     1.0  0.99375  0.05461  0.97010  1.0000
  S   S340      1.0  0.84478  0.21611  0.73591  1.0000
  Fe  Fe169     1.0  0.60898  0.58038  0.06785  1.0000
  S   S341      1.0  0.64343  0.58343  0.05603  1.0000
  S   S342      1.0  0.58357  0.60748  0.06222  1.0000
  Fe  Fe170     1.0  0.61770  0.53356  0.08166  1.0000
  S   S343      1.0  0.65261  0.53276  0.07101  1.0000
  S   S344      1.0  0.60354  0.50300  0.09471  1.0000
  Fe  Fe171     1.0  0.65343  0.56622  0.08005  1.0000
  S   S345      1.0  0.68497  0.57187  0.09140  1.0000
  Fe  Fe172     1.0  0.63951  0.54983  0.04825  1.0000
  S   S346      1.0  0.64777  0.53409  0.02443  1.0000
  S   S347      1.0  0.61902  0.56577  0.09243  1.0000
  S   S348      1.0  0.60448  0.54819  0.05845  1.0000
  Fe  Fe173     1.0  0.54927  0.36968  0.04273  1.0000
  S   S349      1.0  0.54306  0.40548  0.04593  1.0000
  S   S350      1.0  0.56374  0.39493  0.08173  1.0000
  Fe  Fe174     1.0  0.53106  0.39431  0.07173  1.0000
  Fe  Fe175     1.0  0.57619  0.40334  0.05543  1.0000
  S   S351      1.0  0.59860  0.43043  0.04588  1.0000
  S   S352      1.0  0.58363  0.36825  0.05006  1.0000
  C   C1300     1.0  0.58618  0.35960  0.14372  1.0000
  H   H1565     1.0  0.52590  0.56081  0.08937  1.0000
  Fe  Fe176     1.0  0.71751  0.60701  0.18045  1.0000
  S   S353      1.0  0.70148  0.59378  0.20494  1.0000
  S   S354      1.0  0.69324  0.60938  0.16062  1.0000
  Fe  Fe177     1.0  0.76056  0.61393  0.19558  1.0000
  S   S355      1.0  0.74705  0.59931  0.22059  1.0000
  S   S356      1.0  0.79590  0.62580  0.19445  1.0000
  Fe  Fe178     1.0  0.73289  0.57316  0.20789  1.0000
  C   C1301     1.0  0.64536  0.53487  0.99140  1.0000
  Fe  Fe179     1.0  0.71671  0.62063  0.21565  1.0000
  H   H1566     1.0  0.57419  0.35630  0.17755  1.0000
  S   S357      1.0  0.74871  0.58585  0.18300  1.0000
  S   S358      1.0  0.73045  0.63591  0.19112  1.0000
  C   C1302     1.0  0.60332  0.43028  0.99616  1.0000
  C   C1303     1.0  0.50496  0.51424  0.07416  1.0000
  H   H1567     1.0  0.50727  0.61008  0.11697  1.0000
  C   C1304     1.0  0.70535  0.52548  0.04016  1.0000
  H   H1568     1.0  0.65312  0.55741  0.16192  1.0000
  H   H1569     1.0  0.51763  0.52550  0.07485  1.0000
  H   H1570     1.0  0.59558  0.62363  0.00330  1.0000
  C   C1305     1.0  0.75792  0.66612  0.21885  1.0000
  C   C1306     1.0  0.57333  0.36421  0.99890  1.0000
  C   C1307     1.0  0.73342  0.51217  0.22630  1.0000
  H   H1571     1.0  0.54178  0.48288  0.05306  1.0000
  C   C1308     1.0  0.55085  0.36094  0.00102  1.0000
  H   H1572     1.0  0.63693  0.55492  0.13654  1.0000
  H   H1573     1.0  0.66399  0.54343  0.18707  1.0000
  C   C1309     1.0  0.70182  0.53840  0.98865  1.0000
  H   H1574     1.0  0.61662  0.36062  0.19103  1.0000
  H   H1575     1.0  0.73980  0.66544  0.22066  1.0000
  C   C1310     1.0  0.53739  0.62149  0.10539  1.0000
  C   C1311     1.0  0.54711  0.48851  0.06442  1.0000
  H   H1576     1.0  0.63286  0.37095  0.17322  1.0000
  C   C1312     1.0  0.68699  0.58232  0.11070  1.0000
  C   C1313     1.0  0.70732  0.58049  0.11747  1.0000
  C   C1314     1.0  0.70963  0.58860  0.13267  1.0000
  C   C1315     1.0  0.69159  0.59873  0.14133  1.0000
  C   C1316     1.0  0.67132  0.60072  0.13447  1.0000
  C   C1317     1.0  0.66899  0.59255  0.11930  1.0000
  H   H1577     1.0  0.72142  0.57281  0.11088  1.0000
  H   H1578     1.0  0.72546  0.58733  0.13753  1.0000
  H   H1579     1.0  0.65728  0.60867  0.14093  1.0000
  H   H1580     1.0  0.65329  0.59427  0.11425  1.0000
  C   C1318     1.0  0.60446  0.48212  0.08142  1.0000
  C   C1319     1.0  0.59706  0.46143  0.08737  1.0000
  C   C1320     1.0  0.59592  0.44524  0.07660  1.0000
  C   C1321     1.0  0.60200  0.44967  0.05983  1.0000
  C   C1322     1.0  0.61026  0.47006  0.05399  1.0000
  C   C1323     1.0  0.61152  0.48624  0.06476  1.0000
  H   H1581     1.0  0.59202  0.45799  0.10029  1.0000
  H   H1582     1.0  0.59038  0.42935  0.08133  1.0000
  H   H1583     1.0  0.61536  0.47351  0.04108  1.0000
  H   H1584     1.0  0.61773  0.50194  0.06007  1.0000
  C   C1324     1.0  0.65176  0.56975  0.00104  1.0000
  C   C1325     1.0  0.64784  0.54745  0.00441  1.0000
  H   H1585     1.0  0.65407  0.57949  0.01094  1.0000
  H   H1586     1.0  0.83887  0.63734  0.20092  1.0000
  C   C1326     1.0  0.57582  0.59004  0.99365  1.0000
  C   C1327     1.0  0.53921  0.61549  0.06350  1.0000
  C   C1328     1.0  0.55633  0.60051  0.06786  1.0000
  C   C1329     1.0  0.55151  0.58054  0.07690  1.0000
  C   C1330     1.0  0.52957  0.57596  0.08198  1.0000
  H   H1587     1.0  0.69408  0.56115  0.05439  1.0000
  H   H1588     1.0  0.54283  0.63101  0.05660  1.0000
  H   H1589     1.0  0.56467  0.56894  0.08040  1.0000
  C   C1331     1.0  0.62501  0.36580  0.14136  1.0000
  C   C1332     1.0  0.60402  0.37513  0.11799  1.0000
  N   N88       1.0  0.69348  0.53739  0.17118  1.0000
  C   C1333     1.0  0.68029  0.55027  0.18343  1.0000
  C   C1334     1.0  0.69668  0.51456  0.17879  1.0000
  C   C1335     1.0  0.71519  0.54709  0.16791  1.0000
  C   C1336     1.0  0.68315  0.53718  0.15565  1.0000
  C   C1337     1.0  0.69384  0.52570  0.14267  1.0000
  C   C1338     1.0  0.66225  0.54770  0.15305  1.0000
  H   H1590     1.0  0.70980  0.51744  0.14368  1.0000
  H   H1591     1.0  0.65644  0.53475  0.11447  1.0000
  C   C1339     1.0  0.51243  0.59115  0.07781  1.0000
  C   C1340     1.0  0.62388  0.37403  0.12497  1.0000
  H   H1592     1.0  0.64254  0.51757  0.99394  1.0000
  H   H1593     1.0  0.52200  0.35762  0.98867  1.0000
  H   H1594     1.0  0.70369  0.51416  0.19083  1.0000
  H   H1595     1.0  0.70830  0.50436  0.17108  1.0000
  H   H1596     1.0  0.68085  0.50635  0.18094  1.0000
  H   H1597     1.0  0.71346  0.56450  0.16273  1.0000
  H   H1598     1.0  0.72352  0.54691  0.17935  1.0000
  H   H1599     1.0  0.72663  0.53821  0.15922  1.0000
  C   C1341     1.0  0.68423  0.52483  0.12804  1.0000
  S   S359      1.0  0.72470  0.53677  0.21450  1.0000
  C   C1342     1.0  0.59695  0.60801  0.01138  1.0000
  H   H1600     1.0  0.55515  0.62315  0.01144  1.0000
  H   H1601     1.0  0.59250  0.42130  0.00533  1.0000
  H   H1602     1.0  0.73451  0.54888  0.05036  1.0000
  C   C1343     1.0  0.69489  0.56374  0.04073  1.0000
  C   C1344     1.0  0.58521  0.36814  0.12738  1.0000
  H   H1603     1.0  0.69289  0.51649  0.11810  1.0000
  H   H1604     1.0  0.68824  0.52186  0.03831  1.0000
  C   C1345     1.0  0.73311  0.55175  0.03690  1.0000
  C   C1346     1.0  0.70971  0.55106  0.01478  1.0000
  C   C1347     1.0  0.71457  0.57159  0.00599  1.0000
  C   C1348     1.0  0.70329  0.53449  0.00556  1.0000
  N   N89       1.0  0.60794  0.34943  0.16854  1.0000
  H   H1605     1.0  0.50439  0.62252  0.06503  1.0000
  C   C1349     1.0  0.54894  0.63934  0.09821  1.0000
  H   H1606     1.0  0.70629  0.52363  0.05369  1.0000
  H   H1607     1.0  0.74561  0.54066  0.03064  1.0000
  H   H1608     1.0  0.73768  0.56893  0.03326  1.0000
  H   H1609     1.0  0.69851  0.51862  0.01117  1.0000
  C   C1350     1.0  0.61596  0.36644  0.17779  1.0000
  H   H1610     1.0  0.57109  0.35377  0.15004  1.0000
  H   H1611     1.0  0.58120  0.57659  0.03435  1.0000
  H   H1612     1.0  0.63166  0.47657  0.99093  1.0000
  N   N90       1.0  0.71074  0.54786  0.03280  1.0000
  H   H1613     1.0  0.71681  0.51261  0.03493  1.0000
  H   H1614     1.0  0.71922  0.58509  0.01218  1.0000
  Fe  Fe180     1.0  0.56863  0.35977  0.07596  1.0000
  H   H1615     1.0  0.64081  0.36520  0.14620  1.0000
  H   H1616     1.0  0.62539  0.65194  0.22858  1.0000
  C   C1351     1.0  0.65267  0.54643  0.13845  1.0000
  C   C1352     1.0  0.66364  0.53508  0.12597  1.0000
  H   H1617     1.0  0.60324  0.38107  0.10518  1.0000
  H   H1618     1.0  0.60794  0.57277  0.99051  1.0000
  H   H1619     1.0  0.69905  0.58108  0.03734  1.0000
  H   H1620     1.0  0.52945  0.44976  0.07061  1.0000
  H   H1621     1.0  0.60710  0.45574  0.01170  1.0000
  H   H1622     1.0  0.63850  0.37940  0.11756  1.0000
  H   H1623     1.0  0.55026  0.45105  0.08401  1.0000
  H   H1624     1.0  0.67793  0.56788  0.17867  1.0000
  C   C1353     1.0  0.51768  0.66388  0.10545  1.0000
  C   C1354     1.0  0.72149  0.49321  0.22642  1.0000
  C   C1355     1.0  0.80867  0.65170  0.19217  1.0000
  H   H1625     1.0  0.60505  0.38167  0.17706  1.0000
  H   H1626     1.0  0.56763  0.56252  0.02041  1.0000
  H   H1627     1.0  0.59854  0.61225  0.02409  1.0000
  H   H1628     1.0  0.67818  0.56205  0.03702  1.0000
  H   H1629     1.0  0.54494  0.60502  0.10502  1.0000
  C   C1356     1.0  0.71292  0.57534  0.98909  1.0000
  C   C1357     1.0  0.58679  0.34243  0.17722  1.0000
  C   C1358     1.0  0.62543  0.46136  0.98807  1.0000
  H   H1630     1.0  0.56538  0.63666  0.09230  1.0000
  C   C1359     1.0  0.53936  0.36033  0.98712  1.0000
  C   C1360     1.0  0.61149  0.44976  0.99975  1.0000
  C   C1361     1.0  0.64288  0.34912  0.23255  1.0000
  H   H1631     1.0  0.58240  0.36440  0.00951  1.0000
  H   H1632     1.0  0.56989  0.36870  0.12176  1.0000
  C   C1362     1.0  0.60620  0.35825  0.15125  1.0000
  H   H1633     1.0  0.55561  0.48305  0.09648  1.0000
  S   S360      1.0  0.53699  0.35612  0.02081  1.0000
  C   C1363     1.0  0.51734  0.61074  0.06834  1.0000
  S   S361      1.0  0.53466  0.35849  0.06818  1.0000
  C   C1364     1.0  0.51589  0.62463  0.11243  1.0000
  H   H1634     1.0  0.66302  0.63521  0.22277  1.0000
  H   H1635     1.0  0.61269  0.59924  0.00738  1.0000
  H   H1636     1.0  0.56032  0.61011  0.03111  1.0000
  H   H1637     1.0  0.54321  0.59729  0.01902  1.0000
  C   C1365     1.0  0.58101  0.57368  0.02121  1.0000
  H   H1638     1.0  0.54120  0.50851  0.09188  1.0000
  H   H1639     1.0  0.54287  0.60556  0.99078  1.0000
  C   C1366     1.0  0.55818  0.60681  0.01829  1.0000
  N   N91       1.0  0.57775  0.59463  0.01080  1.0000
  C   C1367     1.0  0.66011  0.64779  0.23120  1.0000
  C   C1368     1.0  0.83023  0.65245  0.19663  1.0000
  H   H1640     1.0  0.68856  0.55017  0.19490  1.0000
  C   C1369     1.0  0.50553  0.64598  0.11305  1.0000
  C   C1370     1.0  0.53923  0.49049  0.09356  1.0000
  C   C1371     1.0  0.79196  0.66697  0.23073  1.0000
  H   H1641     1.0  0.76413  0.65044  0.21383  1.0000
  H   H1642     1.0  0.70753  0.49383  0.21929  1.0000
  H   H1643     1.0  0.59689  0.56469  0.01775  1.0000
  H   H1644     1.0  0.54991  0.44603  0.99527  1.0000
  H   H1645     1.0  0.79746  0.65056  0.22653  1.0000
  H   H1646     1.0  0.52744  0.48697  0.10454  1.0000
  N   N92       1.0  0.53181  0.48190  0.07889  1.0000
  H   H1647     1.0  0.54850  0.50660  0.06248  1.0000
  C   C1372     1.0  0.53342  0.45751  0.08157  1.0000
  H   H1648     1.0  0.56400  0.48126  0.06580  1.0000
  C   C1373     1.0  0.50940  0.49111  0.07609  1.0000
  C   C1374     1.0  0.68248  0.34300  0.23196  1.0000
  C   C1375     1.0  0.72739  0.47339  0.23568  1.0000
  N   N93       1.0  0.76772  0.66919  0.23417  1.0000
  H   H1649     1.0  0.71814  0.45899  0.23546  1.0000
  H   H1650     1.0  0.52227  0.45133  0.09231  1.0000
  C   C1376     1.0  0.53907  0.66047  0.09817  1.0000
  C   C1377     1.0  0.63881  0.65730  0.23452  1.0000
  H   H1651     1.0  0.58866  0.33626  0.19024  1.0000
  Fe  Fe181     1.0  0.74807  0.36860  0.28052  1.0000
  C   C1378     1.0  0.76131  0.65111  0.24676  1.0000
  Fe  Fe182     1.0  0.70320  0.39350  0.28756  1.0000
  S   S362      1.0  0.70240  0.40743  0.26111  1.0000
  S   S363      1.0  0.67350  0.40337  0.30481  1.0000
  Fe  Fe183     1.0  0.71521  0.37354  0.25487  1.0000
  H   H1652     1.0  0.61596  0.55870  0.42953  1.0000
  Fe  Fe184     1.0  0.73763  0.41453  0.26266  1.0000
  S   S364      1.0  0.71315  0.35916  0.28108  1.0000
  S   S365      1.0  0.73787  0.40182  0.28938  1.0000
  Fe  Fe185     1.0  0.53034  0.64470  0.39436  1.0000
  S   S366      1.0  0.53207  0.60794  0.39375  1.0000
  Fe  Fe186     1.0  0.53561  0.64089  0.43147  1.0000
  S   S367      1.0  0.53840  0.60416  0.43333  1.0000
  C   C1379     1.0  0.55892  0.62940  0.47253  1.0000
  Fe  Fe187     1.0  0.55972  0.60819  0.40964  1.0000
  S   S368      1.0  0.59082  0.58675  0.40609  1.0000
  H   H1653     1.0  0.63539  0.47971  0.48463  1.0000
  S   S369      1.0  0.55961  0.64510  0.40885  1.0000
  Fe  Fe188     1.0  0.63746  0.43243  0.39671  1.0000
  S   S370      1.0  0.60243  0.43159  0.39102  1.0000
  S   S371      1.0  0.66723  0.41980  0.38064  1.0000
  Fe  Fe189     1.0  0.62428  0.45117  0.42996  1.0000
  S   S372      1.0  0.58855  0.45163  0.42653  1.0000
  S   S373      1.0  0.63222  0.46651  0.45254  1.0000
  Fe  Fe190     1.0  0.59595  0.41860  0.41740  1.0000
  S   S374      1.0  0.57276  0.39265  0.42785  1.0000
  Fe  Fe191     1.0  0.59808  0.46473  0.40069  1.0000
  S   S375      1.0  0.57458  0.49053  0.38997  1.0000
  S   S376      1.0  0.63126  0.41680  0.42274  1.0000
  S   S377      1.0  0.63355  0.46692  0.40447  1.0000
  H   H1654     1.0  0.74325  0.65033  0.24922  1.0000
  C   C1380     1.0  0.63201  0.45118  0.47194  1.0000
  H   H1655     1.0  0.67229  0.35612  0.32363  1.0000
  H   H1656     1.0  0.62980  0.41966  0.46296  1.0000
  S   S378      1.0  0.77185  0.34355  0.29305  1.0000
  C   C1381     1.0  0.58643  0.56033  0.40086  1.0000
  C   C1382     1.0  0.56526  0.55421  0.39921  1.0000
  C   C1383     1.0  0.56188  0.53294  0.39544  1.0000
  C   C1384     1.0  0.57950  0.51736  0.39397  1.0000
  C   C1385     1.0  0.60069  0.52335  0.39578  1.0000
  C   C1386     1.0  0.60419  0.54491  0.39896  1.0000
  H   H1657     1.0  0.55142  0.56578  0.40090  1.0000
  H   H1658     1.0  0.54553  0.52854  0.39386  1.0000
  H   H1659     1.0  0.61443  0.51152  0.39441  1.0000
  H   H1660     1.0  0.62064  0.54956  0.40010  1.0000
  H   H1661     1.0  0.70346  0.43849  0.28905  1.0000
  H   H1662     1.0  0.70516  0.55364  0.26516  1.0000
  C   C1387     1.0  0.74545  0.47216  0.24495  1.0000
  Fe  Fe192     1.0  0.51051  0.60698  0.41743  1.0000
  C   C1388     1.0  0.52454  0.37218  0.39398  1.0000
  C   C1389     1.0  0.52080  0.36760  0.41098  1.0000
  C   C1390     1.0  0.53570  0.37395  0.42130  1.0000
  C   C1391     1.0  0.55403  0.38544  0.41470  1.0000
  C   C1392     1.0  0.55737  0.39062  0.39774  1.0000
  C   C1393     1.0  0.54289  0.38365  0.38737  1.0000
  C   C1394     1.0  0.61601  0.55784  0.44310  1.0000
  H   H1663     1.0  0.53307  0.36977  0.43440  1.0000
  H   H1664     1.0  0.57139  0.39948  0.39255  1.0000
  H   H1665     1.0  0.56507  0.65003  0.29593  1.0000
  C   C1395     1.0  0.66122  0.35676  0.36491  1.0000
  C   C1396     1.0  0.53033  0.44843  0.41237  1.0000
  C   C1397     1.0  0.53297  0.39251  0.47053  1.0000
  H   H1666     1.0  0.60832  0.50572  0.47345  1.0000
  H   H1667     1.0  0.83197  0.42324  0.26994  1.0000
  C   C1398     1.0  0.67232  0.40828  0.32580  1.0000
  C   C1399     1.0  0.65201  0.41474  0.33391  1.0000
  C   C1400     1.0  0.65020  0.41864  0.35060  1.0000
  C   C1401     1.0  0.66872  0.41604  0.35941  1.0000
  C   C1402     1.0  0.68907  0.40976  0.35125  1.0000
  C   C1403     1.0  0.69092  0.40600  0.33452  1.0000
  H   H1668     1.0  0.63753  0.41658  0.32727  1.0000
  H   H1669     1.0  0.63446  0.42355  0.35666  1.0000
  H   H1670     1.0  0.70349  0.40768  0.35796  1.0000
  H   H1671     1.0  0.70665  0.40105  0.32845  1.0000
  H   H1672     1.0  0.70565  0.54412  0.29508  1.0000
  N   N94       1.0  0.62549  0.35780  0.38272  1.0000
  C   C1404     1.0  0.66282  0.35591  0.33549  1.0000
  H   H1673     1.0  0.50630  0.52828  0.40230  1.0000
  S   S379      1.0  0.75400  0.44742  0.25664  1.0000
  H   H1674     1.0  0.53637  0.46651  0.38159  1.0000
  C   C1405     1.0  0.59401  0.64110  0.31941  1.0000
  H   H1675     1.0  0.76799  0.65300  0.25859  1.0000
  H   H1676     1.0  0.50676  0.35857  0.41615  1.0000
  H   H1677     1.0  0.81536  0.36371  0.30846  1.0000
  H   H1678     1.0  0.55288  0.63617  0.35092  1.0000
  H   H1679     1.0  0.61976  0.51410  0.44604  1.0000
  C   C1406     1.0  0.63795  0.35705  0.36640  1.0000
  C   C1407     1.0  0.63038  0.37794  0.38997  1.0000
  C   C1408     1.0  0.60298  0.52161  0.44441  1.0000
  C   C1409     1.0  0.82794  0.38116  0.28507  1.0000
  H   H1680     1.0  0.76733  0.63473  0.24277  1.0000
  H   H1681     1.0  0.61299  0.57508  0.44625  1.0000
  H   H1682     1.0  0.77130  0.49047  0.25202  1.0000
  C   C1410     1.0  0.57981  0.38400  0.47811  1.0000
  H   H1683     1.0  0.62660  0.62446  0.32164  1.0000
  H   H1684     1.0  0.70577  0.45598  0.27039  1.0000
  H   H1685     1.0  0.80806  0.39913  0.25849  1.0000
  C   C1411     1.0  0.67748  0.65426  0.23908  1.0000
  C   C1412     1.0  0.57321  0.64393  0.32840  1.0000
  H   H1686     1.0  0.51036  0.41695  0.40041  1.0000
  C   C1413     1.0  0.69294  0.49389  0.28434  1.0000
  H   H1687     1.0  0.60145  0.52338  0.43097  1.0000
  H   H1688     1.0  0.59507  0.37288  0.37478  1.0000
  H   H1689     1.0  0.59458  0.57648  0.47175  1.0000
  C   C1414     1.0  0.60577  0.61751  0.34331  1.0000
  H   H1690     1.0  0.69690  0.52571  0.24742  1.0000
  H   H1691     1.0  0.64966  0.33801  0.39601  1.0000
  H   H1692     1.0  0.87248  0.35997  0.26177  1.0000
  C   C1415     1.0  0.70192  0.53176  0.28735  1.0000
  H   H1693     1.0  0.57752  0.38376  0.46487  1.0000
  H   H1694     1.0  0.58347  0.62688  0.29165  1.0000
  H   H1695     1.0  0.56415  0.54236  0.45469  1.0000
  C   C1416     1.0  0.79800  0.39829  0.27050  1.0000
  C   C1417     1.0  0.86024  0.36151  0.27209  1.0000
  H   H1696     1.0  0.64770  0.37780  0.39294  1.0000
  H   H1697     1.0  0.56561  0.42231  0.46386  1.0000
  C   C1418     1.0  0.82210  0.42098  0.28198  1.0000
  H   H1698     1.0  0.72253  0.46002  0.28629  1.0000
  C   C1419     1.0  0.69282  0.50004  0.26725  1.0000
  C   C1420     1.0  0.69696  0.52141  0.26053  1.0000
  C   C1421     1.0  0.69763  0.51047  0.29425  1.0000
  C   C1422     1.0  0.66696  0.46519  0.28684  1.0000
  C   C1423     1.0  0.79587  0.40022  0.29953  1.0000
  H   H1699     1.0  0.61993  0.38026  0.40160  1.0000
  C   C1424     1.0  0.85977  0.34533  0.28523  1.0000
  C   C1425     1.0  0.84459  0.37917  0.27195  1.0000
  H   H1700     1.0  0.59723  0.38775  0.47861  1.0000
  C   C1426     1.0  0.54533  0.64863  0.47222  1.0000
  H   H1701     1.0  0.54288  0.39579  0.45903  1.0000
  H   H1702     1.0  0.53366  0.43785  0.38096  1.0000
  H   H1703     1.0  0.68983  0.48827  0.25888  1.0000
  H   H1704     1.0  0.70490  0.47030  0.31332  1.0000
  C   C1427     1.0  0.68864  0.46745  0.30923  1.0000
  H   H1705     1.0  0.54014  0.43266  0.41102  1.0000
  N   N95       1.0  0.51329  0.45197  0.40062  1.0000
  C   C1428     1.0  0.56889  0.63371  0.34426  1.0000
  H   H1706     1.0  0.62772  0.39276  0.38128  1.0000
  C   C1429     1.0  0.63207  0.33835  0.39374  1.0000
  N   N96       1.0  0.68867  0.47108  0.29110  1.0000
  N   N97       1.0  0.59937  0.54306  0.45157  1.0000
  H   H1707     1.0  0.78508  0.41191  0.26960  1.0000
  H   H1708     1.0  0.68512  0.45019  0.31386  1.0000
  C   C1430     1.0  0.70163  0.53720  0.27053  1.0000
  H   H1709     1.0  0.67574  0.47810  0.31552  1.0000
  H   H1710     1.0  0.54575  0.38731  0.37423  1.0000
  C   C1431     1.0  0.59811  0.56052  0.47810  1.0000
  H   H1711     1.0  0.63282  0.55208  0.44620  1.0000
  C   C1432     1.0  0.66323  0.35505  0.23683  1.0000
  S   S380      1.0  0.50613  0.64360  0.41694  1.0000
  H   H1712     1.0  0.65369  0.47702  0.29127  1.0000
  C   C1433     1.0  0.58515  0.62061  0.35173  1.0000
  H   H1713     1.0  0.66278  0.44845  0.29243  1.0000
  S   S381      1.0  0.53284  0.65920  0.45439  1.0000
  N   N98       1.0  0.81125  0.39977  0.28442  1.0000
  H   H1714     1.0  0.56240  0.62097  0.46155  1.0000
  H   H1715     1.0  0.62386  0.62950  0.29353  1.0000
  H   H1716     1.0  0.51212  0.45720  0.37448  1.0000
  H   H1717     1.0  0.59074  0.50971  0.44988  1.0000
  C   C1434     1.0  0.62056  0.64737  0.29476  1.0000
  H   H1718     1.0  0.78593  0.38542  0.30152  1.0000
  C   C1435     1.0  0.57723  0.55234  0.44791  1.0000
  C   C1436     1.0  0.82785  0.36425  0.29825  1.0000
  H   H1719     1.0  0.58176  0.61294  0.36413  1.0000
  H   H1720     1.0  0.66636  0.46483  0.27343  1.0000
  H   H1721     1.0  0.80052  0.34760  0.26208  1.0000
  H   H1722     1.0  0.63193  0.35692  0.32527  1.0000
  H   H1723     1.0  0.56010  0.65430  0.32336  1.0000
  C   C1437     1.0  0.62764  0.35695  0.35165  1.0000
  H   H1724     1.0  0.61835  0.60733  0.34928  1.0000
  C   C1438     1.0  0.70582  0.45577  0.28391  1.0000
  S   S382      1.0  0.75069  0.38179  0.25407  1.0000
  H   H1725     1.0  0.69822  0.50740  0.30735  1.0000
  H   H1726     1.0  0.63330  0.65328  0.30176  1.0000
  N   N99       1.0  0.59810  0.65212  0.30260  1.0000
  H   H1727     1.0  0.57504  0.55293  0.43460  1.0000
  C   C1439     1.0  0.60573  0.52114  0.47889  1.0000
  H   H1728     1.0  0.54232  0.46154  0.41051  1.0000
  C   C1440     1.0  0.84363  0.34670  0.29826  1.0000
  C   C1441     1.0  0.60132  0.35802  0.38222  1.0000
  C   C1442     1.0  0.63045  0.42837  0.47369  1.0000
  H   H1729     1.0  0.50379  0.62261  0.47772  1.0000
  H   H1730     1.0  0.57414  0.56956  0.45110  1.0000
  C   C1443     1.0  0.52430  0.45347  0.38370  1.0000
  H   H1731     1.0  0.80988  0.43528  0.28217  1.0000
  S   S383      1.0  0.50655  0.36365  0.38085  1.0000
  H   H1732     1.0  0.69113  0.35636  0.34880  1.0000
  C   C1444     1.0  0.67340  0.35605  0.34968  1.0000
  H   H1733     1.0  0.58547  0.65256  0.27897  1.0000
  H   H1734     1.0  0.52778  0.49378  0.39841  1.0000
  H   H1735     1.0  0.78383  0.41463  0.29879  1.0000
  C   C1445     1.0  0.58234  0.64507  0.29185  1.0000
  H   H1736     1.0  0.78971  0.38251  0.27194  1.0000
  C   C1446     1.0  0.60104  0.54139  0.46950  1.0000
  H   H1737     1.0  0.80477  0.40119  0.31056  1.0000
  C   C1447     1.0  0.75731  0.49113  0.24492  1.0000
  H   H1738     1.0  0.59632  0.34308  0.37718  1.0000
  H   H1739     1.0  0.83319  0.42222  0.29174  1.0000
  H   H1740     1.0  0.62256  0.33813  0.40601  1.0000
  H   H1741     1.0  0.84535  0.39098  0.26128  1.0000
  H   H1742     1.0  0.67019  0.35761  0.37548  1.0000
  C   C1448     1.0  0.61026  0.62752  0.32737  1.0000
  H   H1743     1.0  0.50536  0.38518  0.45803  1.0000
  H   H1744     1.0  0.59248  0.35835  0.39471  1.0000
  H   H1745     1.0  0.62296  0.65582  0.28210  1.0000
  H   H1746     1.0  0.66408  0.36929  0.24349  1.0000
  C   C1449     1.0  0.51032  0.49303  0.40162  1.0000
  C   C1450     1.0  0.51149  0.38648  0.46981  1.0000
  H   H1747     1.0  0.52283  0.44807  0.42525  1.0000
  H   H1748     1.0  0.58410  0.42800  0.47804  1.0000
  H   H1749     1.0  0.57756  0.36708  0.48410  1.0000
  S   S384      1.0  0.52248  0.66484  0.37055  1.0000
  C   C1451     1.0  0.56742  0.42223  0.47719  1.0000
  C   C1452     1.0  0.64002  0.35645  0.33646  1.0000
  H   H1750     1.0  0.55530  0.43471  0.48224  1.0000
  H   H1751     1.0  0.80048  0.66860  0.24184  1.0000
  H   H1752     1.0  0.61005  0.35758  0.35143  1.0000
  S   S385      1.0  0.70867  0.35096  0.23573  1.0000
  S   S386      1.0  0.70427  0.64191  0.23618  1.0000
  C   C1453     1.0  0.75133  0.51101  0.23572  1.0000
  H   H1753     1.0  0.62813  0.35888  0.23601  1.0000
  H   H1754     1.0  0.76065  0.52537  0.23586  1.0000
  Fe  Fe193     1.0  0.56550  0.65526  0.57539  1.0000
  Fe  Fe194     1.0  0.73640  0.43243  0.71454  1.0000
  S   S387      1.0  0.74758  0.42974  0.68769  1.0000
  C   C1454     1.0  0.52730  0.38916  0.50022  1.0000
  Fe  Fe195     1.0  0.71594  0.38715  0.71779  1.0000
  S   S388      1.0  0.72420  0.38207  0.69127  1.0000
  C   C1455     1.0  0.71771  0.48273  0.68791  1.0000
  Fe  Fe196     1.0  0.75732  0.39385  0.69512  1.0000
  S   S389      1.0  0.78455  0.37115  0.68352  1.0000
  Fe  Fe197     1.0  0.71397  0.41785  0.68573  1.0000
  S   S390      1.0  0.69067  0.43622  0.66818  1.0000
  S   S391      1.0  0.74916  0.39773  0.72196  1.0000
  S   S392      1.0  0.70262  0.42163  0.71223  1.0000
  H   H1755     1.0  0.84090  0.34763  0.72193  1.0000
  Fe  Fe198     1.0  0.55880  0.60625  0.57934  1.0000
  S   S393      1.0  0.56592  0.57410  0.59412  1.0000
  C   C1456     1.0  0.61588  0.40266  0.61823  1.0000
  S   S394      1.0  0.53837  0.60755  0.55817  1.0000
  S   S395      1.0  0.54056  0.63487  0.59067  1.0000
  Fe  Fe199     1.0  0.62744  0.43093  0.54587  1.0000
  S   S396      1.0  0.60116  0.45739  0.55020  1.0000
  S   S397      1.0  0.62943  0.41290  0.52294  1.0000
  Fe  Fe200     1.0  0.64362  0.43201  0.58032  1.0000
  S   S398      1.0  0.61823  0.45832  0.58719  1.0000
  S   S399      1.0  0.66906  0.41598  0.59689  1.0000
  Fe  Fe201     1.0  0.59518  0.43953  0.57511  1.0000
  S   S400      1.0  0.56066  0.43529  0.58605  1.0000
  Fe  Fe202     1.0  0.62666  0.47374  0.56162  1.0000
  S   S401      1.0  0.63132  0.50969  0.55491  1.0000
  S   S402      1.0  0.61965  0.41165  0.57028  1.0000
  S   S403      1.0  0.65382  0.44873  0.55532  1.0000
  C   C1457     1.0  0.63090  0.42793  0.50341  1.0000
  C   C1458     1.0  0.56341  0.36463  0.58890  1.0000
  C   C1459     1.0  0.63250  0.45072  0.50164  1.0000
  C   C1460     1.0  0.63801  0.37104  0.61048  1.0000
  H   H1756     1.0  0.63340  0.45943  0.51235  1.0000
  C   C1461     1.0  0.58434  0.55642  0.58325  1.0000
  C   C1462     1.0  0.58966  0.53527  0.59040  1.0000
  C   C1463     1.0  0.60376  0.52067  0.58166  1.0000
  C   C1464     1.0  0.61298  0.52736  0.56586  1.0000
  C   C1465     1.0  0.60779  0.54855  0.55877  1.0000
  C   C1466     1.0  0.59324  0.56295  0.56734  1.0000
  H   H1757     1.0  0.58284  0.53020  0.60272  1.0000
  H   H1758     1.0  0.60781  0.50448  0.58731  1.0000
  H   H1759     1.0  0.61486  0.55384  0.54655  1.0000
  H   H1760     1.0  0.58902  0.57911  0.56161  1.0000
  C   C1467     1.0  0.55892  0.37598  0.60279  1.0000
  C   C1468     1.0  0.52629  0.39045  0.55675  1.0000
  C   C1469     1.0  0.54836  0.39472  0.55244  1.0000
  C   C1470     1.0  0.55882  0.40893  0.56115  1.0000
  C   C1471     1.0  0.54736  0.41859  0.57440  1.0000
  C   C1472     1.0  0.52523  0.41453  0.57860  1.0000
  C   C1473     1.0  0.51465  0.40065  0.56968  1.0000
  H   H1761     1.0  0.55747  0.38685  0.54249  1.0000
  H   H1762     1.0  0.57588  0.41203  0.55776  1.0000
  H   H1763     1.0  0.51626  0.42203  0.58879  1.0000
  C   C1474     1.0  0.71494  0.55082  0.69731  1.0000
  H   H1764     1.0  0.51406  0.58964  0.51196  1.0000
  H   H1765     1.0  0.52528  0.54029  0.56263  1.0000
  C   C1475     1.0  0.68471  0.43000  0.64848  1.0000
  C   C1476     1.0  0.66855  0.44309  0.64044  1.0000
  C   C1477     1.0  0.66336  0.43893  0.62475  1.0000
  C   C1478     1.0  0.67445  0.42171  0.61684  1.0000
  C   C1479     1.0  0.69056  0.40860  0.62488  1.0000
  C   C1480     1.0  0.69565  0.41267  0.64062  1.0000
  H   H1766     1.0  0.65994  0.45650  0.64643  1.0000
  H   H1767     1.0  0.65081  0.44907  0.61881  1.0000
  H   H1768     1.0  0.69929  0.39525  0.61887  1.0000
  H   H1769     1.0  0.70814  0.40248  0.64662  1.0000
  H   H1770     1.0  0.74640  0.35113  0.71970  1.0000
  H   H1771     1.0  0.68946  0.63654  0.73253  1.0000
  H   H1772     1.0  0.52178  0.61339  0.52084  1.0000
  Fe  Fe203     1.0  0.56323  0.62980  0.54492  1.0000
  H   H1773     1.0  0.80901  0.37111  0.71266  1.0000
  C   C1481     1.0  0.75197  0.50007  0.72040  1.0000
  C   C1482     1.0  0.51111  0.47537  0.57045  1.0000
  H   H1774     1.0  0.52541  0.50218  0.60090  1.0000
  H   H1775     1.0  0.63965  0.35288  0.61025  1.0000
  C   C1483     1.0  0.66511  0.65583  0.71914  1.0000
  C   C1484     1.0  0.60781  0.64545  0.61464  1.0000
  H   H1776     1.0  0.69148  0.47277  0.71494  1.0000
  C   C1485     1.0  0.51155  0.49831  0.57165  1.0000
  H   H1777     1.0  0.60630  0.53868  0.51686  1.0000
  H   H1778     1.0  0.68125  0.48386  0.67189  1.0000
  C   C1486     1.0  0.57088  0.40113  0.50307  1.0000
  H   H1779     1.0  0.71576  0.46710  0.68250  1.0000
  C   C1487     1.0  0.68450  0.49910  0.67744  1.0000
  H   H1780     1.0  0.53226  0.38966  0.51242  1.0000
  Fe  Fe204     1.0  0.52248  0.63800  0.56802  1.0000
  H   H1781     1.0  0.69417  0.50933  0.66777  1.0000
  H   H1782     1.0  0.76694  0.53088  0.71272  1.0000
  H   H1783     1.0  0.62955  0.39908  0.49065  1.0000
  H   H1784     1.0  0.61833  0.35655  0.58839  1.0000
  H   H1785     1.0  0.61132  0.50472  0.50270  1.0000
  H   H1786     1.0  0.55467  0.48446  0.56277  1.0000
  C   C1488     1.0  0.51330  0.60791  0.51069  1.0000
  C   C1489     1.0  0.53018  0.53233  0.57458  1.0000
  H   H1787     1.0  0.62849  0.37454  0.73087  1.0000
  C   C1490     1.0  0.67088  0.34687  0.72049  1.0000
  C   C1491     1.0  0.62361  0.64128  0.66903  1.0000
  H   H1788     1.0  0.66634  0.48495  0.70712  1.0000
  H   H1789     1.0  0.51823  0.53780  0.58465  1.0000
  H   H1790     1.0  0.59633  0.37388  0.64059  1.0000
  H   H1791     1.0  0.67637  0.35847  0.71036  1.0000
  N   N100      1.0  0.53213  0.50798  0.57474  1.0000
  H   H1792     1.0  0.62526  0.37033  0.64176  1.0000
  C   C1492     1.0  0.58983  0.66371  0.66944  1.0000
  C   C1493     1.0  0.59177  0.62910  0.64606  1.0000
  C   C1494     1.0  0.67579  0.64859  0.73323  1.0000
  C   C1495     1.0  0.55003  0.50238  0.56207  1.0000
  H   H1793     1.0  0.72700  0.47859  0.69885  1.0000
  C   C1496     1.0  0.80707  0.35449  0.69106  1.0000
  H   H1794     1.0  0.56043  0.41351  0.50976  1.0000
  H   H1795     1.0  0.57903  0.60661  0.48710  1.0000
  H   H1796     1.0  0.58835  0.34941  0.57296  1.0000
  C   C1497     1.0  0.55016  0.65114  0.50114  1.0000
  N   N101      1.0  0.69613  0.49395  0.69245  1.0000
  H   H1797     1.0  0.72513  0.56304  0.69046  1.0000
  H   H1798     1.0  0.66845  0.50812  0.68023  1.0000
  S   S404      1.0  0.54588  0.66074  0.55326  1.0000
  C   C1498     1.0  0.73791  0.48860  0.73221  1.0000
  C   C1499     1.0  0.56387  0.63198  0.50140  1.0000
  S   S405      1.0  0.58514  0.62623  0.56560  1.0000
  C   C1500     1.0  0.58685  0.61920  0.63235  1.0000
  H   H1799     1.0  0.62943  0.40693  0.62521  1.0000
  H   H1800     1.0  0.55378  0.50606  0.59403  1.0000
  H   H1801     1.0  0.76038  0.49169  0.71043  1.0000
  H   H1802     1.0  0.68068  0.50713  0.72371  1.0000
  C   C1501     1.0  0.61256  0.65572  0.62823  1.0000
  C   C1502     1.0  0.69929  0.51455  0.69976  1.0000
  C   C1503     1.0  0.68315  0.47803  0.70361  1.0000
  C   C1504     1.0  0.58492  0.35779  0.58401  1.0000
  S   S406      1.0  0.57537  0.62048  0.51942  1.0000
  H   H1803     1.0  0.54678  0.65963  0.51210  1.0000
  H   H1804     1.0  0.61092  0.34956  0.63383  1.0000
  H   H1805     1.0  0.58810  0.40589  0.50305  1.0000
  C   C1505     1.0  0.57592  0.38045  0.61190  1.0000
  H   H1806     1.0  0.57677  0.60509  0.63381  1.0000
  H   H1807     1.0  0.62866  0.64821  0.68002  1.0000
  H   H1808     1.0  0.57992  0.64948  0.67396  1.0000
  H   H1809     1.0  0.57156  0.38958  0.62243  1.0000
  H   H1810     1.0  0.68107  0.46278  0.69769  1.0000
  C   C1506     1.0  0.83396  0.34451  0.71085  1.0000
  C   C1507     1.0  0.59485  0.62737  0.61667  1.0000
  C   C1508     1.0  0.59807  0.37371  0.60730  1.0000
  H   H1811     1.0  0.61458  0.62643  0.67366  1.0000
  C   C1509     1.0  0.68994  0.51893  0.71570  1.0000
  C   C1510     1.0  0.81584  0.35787  0.70562  1.0000
  H   H1812     1.0  0.52340  0.61319  0.49921  1.0000
  H   H1813     1.0  0.61824  0.41154  0.60580  1.0000
  H   H1814     1.0  0.59092  0.61974  0.60604  1.0000
  H   H1815     1.0  0.54224  0.38197  0.60619  1.0000
  S   S407      1.0  0.73345  0.46010  0.73187  1.0000
  H   H1816     1.0  0.58544  0.62194  0.65797  1.0000
  H   H1817     1.0  0.52566  0.46462  0.57166  1.0000
  H   H1818     1.0  0.72819  0.49276  0.67870  1.0000
  H   H1819     1.0  0.54522  0.50755  0.54952  1.0000
  C   C1511     1.0  0.75579  0.52230  0.72180  1.0000
  N   N102      1.0  0.68679  0.49391  0.58294  1.0000
  C   C1512     1.0  0.69273  0.48496  0.56689  1.0000
  C   C1513     1.0  0.66559  0.48530  0.59017  1.0000
  C   C1514     1.0  0.68336  0.51815  0.57974  1.0000
  C   C1515     1.0  0.70392  0.48689  0.59416  1.0000
  C   C1516     1.0  0.71605  0.50200  0.60118  1.0000
  C   C1517     1.0  0.70850  0.46420  0.59870  1.0000
  C   C1518     1.0  0.73149  0.49466  0.61226  1.0000
  C   C1519     1.0  0.72377  0.45708  0.60989  1.0000
  C   C1520     1.0  0.73521  0.47227  0.61669  1.0000
  H   H1820     1.0  0.69379  0.46669  0.56796  1.0000
  H   H1821     1.0  0.68030  0.49028  0.55805  1.0000
  H   H1822     1.0  0.70889  0.49056  0.56125  1.0000
  H   H1823     1.0  0.66581  0.46707  0.59087  1.0000
  H   H1824     1.0  0.65191  0.49155  0.58275  1.0000
  H   H1825     1.0  0.66134  0.49023  0.60280  1.0000
  H   H1826     1.0  0.69844  0.52573  0.57370  1.0000
  H   H1827     1.0  0.67025  0.52272  0.57131  1.0000
  H   H1828     1.0  0.67798  0.52596  0.59123  1.0000
  H   H1829     1.0  0.71390  0.51955  0.59836  1.0000
  H   H1830     1.0  0.70009  0.45171  0.59377  1.0000
  H   H1831     1.0  0.74060  0.50641  0.61749  1.0000
  H   H1832     1.0  0.72660  0.43963  0.61338  1.0000
  H   H1833     1.0  0.74701  0.46661  0.62538  1.0000
  H   H1834     1.0  0.65103  0.37556  0.61790  1.0000
  N   N103      1.0  0.61574  0.37860  0.61723  1.0000
  H   H1835     1.0  0.54601  0.53917  0.57649  1.0000
  H   H1836     1.0  0.60044  0.40962  0.62439  1.0000
  C   C1521     1.0  0.60750  0.52029  0.49578  1.0000
  C   C1522     1.0  0.61186  0.36763  0.63407  1.0000
  H   H1837     1.0  0.54212  0.48072  0.59172  1.0000
  C   C1523     1.0  0.71181  0.53119  0.69073  1.0000
  C   C1524     1.0  0.70546  0.55463  0.71291  1.0000
  H   H1838     1.0  0.56993  0.38484  0.51036  1.0000
  C   C1525     1.0  0.74556  0.53348  0.73493  1.0000
  C   C1526     1.0  0.50585  0.38317  0.49934  1.0000
  C   C1527     1.0  0.68089  0.34535  0.73513  1.0000
  H   H1839     1.0  0.55023  0.36161  0.58167  1.0000
  H   H1840     1.0  0.63883  0.63588  0.66166  1.0000
  H   H1841     1.0  0.64213  0.37889  0.59784  1.0000
  C   C1528     1.0  0.60466  0.64780  0.64443  1.0000
  C   C1529     1.0  0.69291  0.53879  0.72204  1.0000
  C   C1530     1.0  0.60467  0.53941  0.50380  1.0000
  H   H1842     1.0  0.70843  0.56962  0.71817  1.0000
  C   C1531     1.0  0.53862  0.49884  0.59104  1.0000
  C   C1532     1.0  0.81647  0.33730  0.68201  1.0000
  H   H1843     1.0  0.68609  0.54163  0.73436  1.0000
  H   H1844     1.0  0.56537  0.51056  0.56348  1.0000
  H   H1845     1.0  0.67065  0.64927  0.70763  1.0000
  H   H1846     1.0  0.71952  0.52903  0.67859  1.0000
  C   C1533     1.0  0.60207  0.36212  0.59304  1.0000
  S   S408      1.0  0.51374  0.37184  0.54621  1.0000
  C   C1534     1.0  0.63021  0.41677  0.48937  1.0000
  H   H1847     1.0  0.59777  0.57436  0.50130  1.0000
  N   N104      1.0  0.61014  0.65759  0.65919  1.0000
  H   H1848     1.0  0.77495  0.34349  0.71978  1.0000
  H   H1849     1.0  0.61375  0.65194  0.60236  1.0000
  C   C1535     1.0  0.75832  0.33822  0.72450  1.0000
  C   C1536     1.0  0.54118  0.65957  0.48653  1.0000
  C   C1537     1.0  0.59991  0.55948  0.49499  1.0000
  C   C1538     1.0  0.56833  0.62129  0.48701  1.0000
  H   H1850     1.0  0.50510  0.35390  0.62848  1.0000
  N   N105      1.0  0.56447  0.40023  0.48618  1.0000
  C   C1539     1.0  0.63340  0.46222  0.48594  1.0000
  C   C1540     1.0  0.54158  0.39402  0.48577  1.0000
  Fe  Fe205     1.0  0.60224  0.55747  0.91359  1.0000
  S   S409      1.0  0.62443  0.58547  0.91203  1.0000
  S   S410      1.0  0.56565  0.55408  0.91746  1.0000
  Fe  Fe206     1.0  0.63978  0.52333  0.91107  1.0000
  S   S411      1.0  0.66592  0.54806  0.90953  1.0000
  S   S412      1.0  0.64379  0.48619  0.91189  1.0000
  Fe  Fe207     1.0  0.64400  0.56343  0.92956  1.0000
  S   S413      1.0  0.65513  0.57877  0.95126  1.0000
  Fe  Fe208     1.0  0.64495  0.56855  0.89203  1.0000
  S   S414      1.0  0.65397  0.58739  0.86706  1.0000
  S   S415      1.0  0.62018  0.53688  0.93257  1.0000
  S   S416      1.0  0.62069  0.54262  0.89218  1.0000
  Fe  Fe209     1.0  0.52711  0.37119  0.90983  1.0000
  Fe  Fe210     1.0  0.56123  0.40384  0.89758  1.0000
  S   S417      1.0  0.56307  0.44012  0.89016  1.0000
  S   S418      1.0  0.54294  0.38106  0.88460  1.0000
  S   S419      1.0  0.54295  0.39615  0.92214  1.0000
  Fe  Fe211     1.0  0.71311  0.62659  0.76529  1.0000
  S   S420      1.0  0.73586  0.63484  0.78326  1.0000
  S   S421      1.0  0.58926  0.37933  0.90208  1.0000
  Fe  Fe212     1.0  0.74345  0.58779  0.75436  1.0000
  S   S422      1.0  0.76849  0.59410  0.77149  1.0000
  H   H1851     1.0  0.53822  0.50880  0.95941  1.0000
  Fe  Fe213     1.0  0.73903  0.59851  0.78992  1.0000
  S   S423      1.0  0.73941  0.58372  0.81643  1.0000
  Fe  Fe214     1.0  0.76313  0.63033  0.76352  1.0000
  C   C1541     1.0  0.66871  0.65694  0.74817  1.0000
  S   S424      1.0  0.71439  0.59030  0.77329  1.0000
  H   H1852     1.0  0.55424  0.48104  0.97906  1.0000
  H   H1853     1.0  0.90336  0.63214  0.77444  1.0000
  H   H1854     1.0  0.64537  0.53450  0.96515  1.0000
  H   H1855     1.0  0.72251  0.53059  0.75631  1.0000
  C   C1542     1.0  0.55731  0.46778  0.95502  1.0000
  C   C1543     1.0  0.64053  0.40009  0.95726  1.0000
  H   H1856     1.0  0.58124  0.34512  0.79667  1.0000
  C   C1544     1.0  0.87342  0.62297  0.76677  1.0000
  C   C1545     1.0  0.54695  0.49067  0.93058  1.0000
  H   H1857     1.0  0.54425  0.66555  0.78706  1.0000
  H   H1858     1.0  0.52838  0.65597  0.81549  1.0000
  C   C1546     1.0  0.55023  0.36306  0.97121  1.0000
  H   H1859     1.0  0.64274  0.46298  0.96449  1.0000
  C   C1547     1.0  0.67751  0.58362  0.85305  1.0000
  C   C1548     1.0  0.67601  0.59034  0.83633  1.0000
  C   C1549     1.0  0.69469  0.58974  0.82492  1.0000
  C   C1550     1.0  0.71522  0.58283  0.83018  1.0000
  C   C1551     1.0  0.71669  0.57561  0.84682  1.0000
  C   C1552     1.0  0.69792  0.57590  0.85821  1.0000
  H   H1860     1.0  0.66026  0.59615  0.83222  1.0000
  H   H1861     1.0  0.69322  0.59486  0.81211  1.0000
  H   H1862     1.0  0.73249  0.57019  0.85103  1.0000
  H   H1863     1.0  0.69935  0.57083  0.87105  1.0000
  C   C1553     1.0  0.62212  0.47356  0.90449  1.0000
  C   C1554     1.0  0.62264  0.45061  0.90480  1.0000
  C   C1555     1.0  0.60462  0.44014  0.90044  1.0000
  C   C1556     1.0  0.58621  0.45260  0.89529  1.0000
  C   C1557     1.0  0.58596  0.47554  0.89449  1.0000
  C   C1558     1.0  0.60372  0.48594  0.89922  1.0000
  H   H1864     1.0  0.63701  0.44092  0.90835  1.0000
  H   H1865     1.0  0.60518  0.42247  0.90078  1.0000
  H   H1866     1.0  0.57189  0.48537  0.89039  1.0000
  H   H1867     1.0  0.60278  0.50351  0.89914  1.0000
  C   C1559     1.0  0.72746  0.49986  0.74520  1.0000
  S   S425      1.0  0.74002  0.62379  0.74498  1.0000
  H   H1868     1.0  0.59513  0.48849  0.94803  1.0000
  H   H1869     1.0  0.91397  0.66213  0.78449  1.0000
  C   C1560     1.0  0.55812  0.44750  0.94787  1.0000
  C   C1561     1.0  0.64318  0.37732  0.77536  1.0000
  C   C1562     1.0  0.85431  0.64968  0.74901  1.0000
  C   C1563     1.0  0.51830  0.61487  0.91608  1.0000
  C   C1564     1.0  0.85561  0.62906  0.75772  1.0000
  C   C1565     1.0  0.52566  0.57554  0.91540  1.0000
  C   C1566     1.0  0.54801  0.57787  0.91643  1.0000
  C   C1567     1.0  0.55560  0.59878  0.91717  1.0000
  C   C1568     1.0  0.54070  0.61726  0.91713  1.0000
  H   H1870     1.0  0.58903  0.47485  0.93090  1.0000
  H   H1871     1.0  0.51973  0.55944  0.91473  1.0000
  H   H1872     1.0  0.57288  0.60071  0.91788  1.0000
  S   S426      1.0  0.58733  0.36879  0.94942  1.0000
  Fe  Fe215     1.0  0.56979  0.37029  0.92618  1.0000
  H   H1873     1.0  0.60912  0.35244  0.75327  1.0000
  N   N106      1.0  0.63171  0.42303  0.95360  1.0000
  H   H1874     1.0  0.58561  0.37172  0.78598  1.0000
  H   H1875     1.0  0.54655  0.63339  0.91782  1.0000
  C   C1569     1.0  0.88987  0.63762  0.76728  1.0000
  S   S427      1.0  0.68195  0.64867  0.76604  1.0000
  C   C1570     1.0  0.55555  0.42754  0.95754  1.0000
  H   H1876     1.0  0.84262  0.61791  0.75753  1.0000
  H   H1877     1.0  0.61757  0.41465  0.93218  1.0000
  H   H1878     1.0  0.71665  0.63117  0.82727  1.0000
  H   H1879     1.0  0.60238  0.40715  0.97868  1.0000
  H   H1880     1.0  0.52935  0.48877  0.93485  1.0000
  H   H1881     1.0  0.58725  0.50420  0.92966  1.0000
  H   H1882     1.0  0.67167  0.65530  0.80180  1.0000
  H   H1883     1.0  0.64317  0.45205  0.93892  1.0000
  C   C1571     1.0  0.59227  0.57467  0.96849  1.0000
  N   N107      1.0  0.56072  0.48870  0.94462  1.0000
  C   C1572     1.0  0.62611  0.36376  0.77276  1.0000
  H   H1884     1.0  0.65736  0.59633  0.98206  1.0000
  C   C1573     1.0  0.64697  0.54441  0.97509  1.0000
  S   S428      1.0  0.78716  0.65734  0.75437  1.0000
  C   C1574     1.0  0.57282  0.36579  0.96912  1.0000
  C   C1575     1.0  0.63178  0.45322  0.97290  1.0000
  H   H1885     1.0  0.56688  0.50988  0.96305  1.0000
  N   N108      1.0  0.75696  0.52545  0.79460  1.0000
  C   C1576     1.0  0.77654  0.53811  0.79569  1.0000
  C   C1577     1.0  0.74023  0.54006  0.78655  1.0000
  C   C1578     1.0  0.74774  0.51894  0.81166  1.0000
  C   C1579     1.0  0.76288  0.50666  0.78470  1.0000
  C   C1580     1.0  0.75703  0.48485  0.79012  1.0000
  C   C1581     1.0  0.77362  0.51016  0.76864  1.0000
  C   C1582     1.0  0.76161  0.46777  0.77997  1.0000
  C   C1583     1.0  0.77831  0.49293  0.75869  1.0000
  C   C1584     1.0  0.77214  0.47182  0.76428  1.0000
  H   H1886     1.0  0.78293  0.54615  0.78363  1.0000
  H   H1887     1.0  0.77274  0.55172  0.80376  1.0000
  H   H1888     1.0  0.79006  0.52732  0.80074  1.0000
  H   H1889     1.0  0.74654  0.54720  0.77414  1.0000
  H   H1890     1.0  0.73465  0.55404  0.79383  1.0000
  H   H1891     1.0  0.72546  0.53104  0.78514  1.0000
  H   H1892     1.0  0.75939  0.50755  0.81836  1.0000
  H   H1893     1.0  0.74418  0.53350  0.81887  1.0000
  H   H1894     1.0  0.73179  0.51116  0.81193  1.0000
  H   H1895     1.0  0.74855  0.48060  0.80201  1.0000
  H   H1896     1.0  0.77765  0.52644  0.76332  1.0000
  H   H1897     1.0  0.75659  0.45134  0.78413  1.0000
  H   H1898     1.0  0.71218  0.65201  0.84161  1.0000
  C   C1585     1.0  0.51538  0.48599  0.89555  1.0000
  H   H1899     1.0  0.69324  0.63429  0.80277  1.0000
  C   C1586     1.0  0.73106  0.52216  0.74648  1.0000
  N   N109      1.0  0.61451  0.34983  0.78618  1.0000
  H   H1900     1.0  0.58415  0.34787  0.77502  1.0000
  C   C1587     1.0  0.70431  0.64315  0.83278  1.0000
  H   H1901     1.0  0.78592  0.49616  0.74629  1.0000
  C   C1588     1.0  0.62112  0.36318  0.75632  1.0000
  C   C1589     1.0  0.68207  0.64516  0.81030  1.0000
  S   S429      1.0  0.75144  0.56148  0.73614  1.0000
  H   H1902     1.0  0.80394  0.65498  0.78698  1.0000
  H   H1903     1.0  0.61633  0.37113  0.80532  1.0000
  H   H1904     1.0  0.69165  0.63329  0.84032  1.0000
  C   C1590     1.0  0.65438  0.38955  0.76224  1.0000
  H   H1905     1.0  0.77500  0.45871  0.75624  1.0000
  H   H1906     1.0  0.73978  0.66185  0.82299  1.0000
  C   C1591     1.0  0.55200  0.44656  0.98199  1.0000
  H   H1907     1.0  0.64853  0.37846  0.78733  1.0000
  C   C1592     1.0  0.60936  0.42215  0.98097  1.0000
  H   H1908     1.0  0.54183  0.59815  0.96238  1.0000
  H   H1909     1.0  0.93284  0.64951  0.75921  1.0000
  H   H1910     1.0  0.65352  0.39933  0.96588  1.0000
  C   C1593     1.0  0.59041  0.35390  0.78589  1.0000
  H   H1911     1.0  0.55632  0.41222  0.95188  1.0000
  C   C1594     1.0  0.61285  0.42259  0.94372  1.0000
  H   H1912     1.0  0.53103  0.47889  0.89061  1.0000
  C   C1595     1.0  0.51090  0.59399  0.91501  1.0000
  H   H1913     1.0  0.52674  0.51878  0.89401  1.0000
  H   H1914     1.0  0.54828  0.50697  0.92325  1.0000
  C   C1596     1.0  0.65374  0.57921  0.98468  1.0000
  H   H1915     1.0  0.63764  0.34916  0.80445  1.0000
  H   H1916     1.0  0.64766  0.39268  0.94595  1.0000
  S   S430      1.0  0.55256  0.34424  0.91585  1.0000
  H   H1917     1.0  0.60612  0.56647  0.96188  1.0000
  H   H1918     1.0  0.62761  0.38894  0.96274  1.0000
  H   H1919     1.0  0.55693  0.52398  0.94525  1.0000
  H   H1920     1.0  0.59944  0.41301  0.95039  1.0000
  C   C1597     1.0  0.58404  0.48906  0.93806  1.0000
  H   H1921     1.0  0.71653  0.49123  0.75441  1.0000
  H   H1922     1.0  0.92622  0.66218  0.73954  1.0000
  C   C1598     1.0  0.62008  0.35369  0.80281  1.0000
  C   C1599     1.0  0.51770  0.66130  0.80594  1.0000
  H   H1923     1.0  0.66786  0.39922  0.76434  1.0000
  C   C1600     1.0  0.63220  0.37573  0.74336  1.0000
  N   N110      1.0  0.69465  0.65848  0.81988  1.0000
  H   H1924     1.0  0.60597  0.43945  0.94031  1.0000
  C   C1601     1.0  0.57376  0.58168  0.96048  1.0000
  H   H1925     1.0  0.70453  0.56196  0.96744  1.0000
  C   C1602     1.0  0.55538  0.50855  0.95359  1.0000
  H   H1926     1.0  0.56112  0.44679  0.93474  1.0000
  Fe  Fe216     1.0  0.56955  0.35550  0.89109  1.0000
  C   C1603     1.0  0.87051  0.66458  0.74958  1.0000
  H   H1927     1.0  0.69620  0.52582  0.98193  1.0000
  C   C1604     1.0  0.64914  0.43512  0.94331  1.0000
  C   C1605     1.0  0.65146  0.56656  0.97165  1.0000
  H   H1928     1.0  0.55202  0.47843  0.92164  1.0000
  H   H1929     1.0  0.66382  0.43619  0.95007  1.0000
  H   H1930     1.0  0.65486  0.42692  0.93205  1.0000
  C   C1606     1.0  0.55247  0.42707  0.97455  1.0000
  C   C1607     1.0  0.64886  0.38880  0.74630  1.0000
  C   C1608     1.0  0.70650  0.55879  0.98045  1.0000
  C   C1609     1.0  0.55447  0.46665  0.97246  1.0000
  H   H1931     1.0  0.67062  0.63452  0.81836  1.0000
  H   H1932     1.0  0.51648  0.33869  0.89332  1.0000
  H   H1933     1.0  0.87436  0.60688  0.77354  1.0000
  H   H1934     1.0  0.57316  0.57871  0.94774  1.0000
  H   H1935     1.0  0.61050  0.34341  0.81262  1.0000
  H   H1936     1.0  0.66652  0.66580  0.83667  1.0000
  C   C1610     1.0  0.51299  0.50843  0.89738  1.0000
  C   C1611     1.0  0.55615  0.59266  0.96879  1.0000
  C   C1612     1.0  0.92741  0.66526  0.75252  1.0000
  H   H1937     1.0  0.60185  0.36766  0.98160  1.0000
  H   H1938     1.0  0.54123  0.36257  0.96060  1.0000
  C   C1613     1.0  0.62435  0.43294  0.96907  1.0000
  H   H1939     1.0  0.84029  0.65436  0.74208  1.0000
  H   H1940     1.0  0.55588  0.34632  0.85028  1.0000
  C   C1614     1.0  0.59325  0.57858  0.98485  1.0000
  C   C1615     1.0  0.88877  0.65904  0.75889  1.0000
  H   H1941     1.0  0.50907  0.33822  0.87297  1.0000
  H   H1942     1.0  0.55069  0.41149  0.98198  1.0000
  C   C1616     1.0  0.58431  0.36620  0.98304  1.0000
  H   H1943     1.0  0.71618  0.59129  0.98267  1.0000
  S   S431      1.0  0.70242  0.36207  0.73772  1.0000
  C   C1617     1.0  0.55704  0.59686  0.98515  1.0000
  C   C1618     1.0  0.81093  0.66871  0.77941  1.0000
  C   C1619     1.0  0.52659  0.66667  0.78991  1.0000
  H   H1944     1.0  0.75688  0.33823  0.73809  1.0000
  H   H1945     1.0  0.65810  0.39773  0.73614  1.0000
  Fe  Fe217     1.0  0.93825  0.85206  0.06484  1.0000
  S   S432      1.0  0.96419  0.86891  0.07545  1.0000
  S   S433      1.0  0.91650  0.82732  0.08006  1.0000
  Fe  Fe218     1.0  0.94750  0.87581  0.03023  1.0000
  S   S434      1.0  0.97427  0.89412  0.03843  1.0000
  S   S435      1.0  0.93904  0.88787  0.00436  1.0000
  Fe  Fe219     1.0  0.98464  0.86255  0.05210  1.0000
  Fe  Fe220     1.0  0.95180  0.89935  0.06091  1.0000
  S   S436      1.0  0.95330  0.93329  0.06884  1.0000
  S   S437      1.0  0.95972  0.84322  0.04219  1.0000
  S   S438      1.0  0.92389  0.88337  0.05205  1.0000
  Fe  Fe221     1.0  0.90867  0.76668  0.17283  1.0000
  S   S439      1.0  0.91322  0.78370  0.19513  1.0000
  S   S440      1.0  0.93163  0.78041  0.15117  1.0000
  Fe  Fe222     1.0  0.87322  0.73703  0.19195  1.0000
  S   S441      1.0  0.84197  0.71851  0.18921  1.0000
  Fe  Fe223     1.0  0.87663  0.78469  0.19996  1.0000
  H   H1946     1.0  0.51091  0.68061  0.10472  1.0000
  Fe  Fe224     1.0  0.91343  0.75015  0.20874  1.0000
  C   C1620     1.0  0.57161  0.69432  0.21107  1.0000
  S   S442      1.0  0.87202  0.76996  0.17675  1.0000
  S   S443      1.0  0.91032  0.73247  0.18618  1.0000
  C   C1621     1.0  0.69100  0.96281  0.23023  1.0000
  H   H1947     1.0  0.91365  0.95970  0.03568  1.0000
  H   H1948     1.0  0.57831  0.73640  0.21341  1.0000
  S   S444      1.0  0.86573  0.99346  0.07198  1.0000
  C   C1622     1.0  0.99576  0.76853  0.12846  1.0000
  H   H1949     1.0  0.77244  0.98042  0.21233  1.0000
  H   H1950     1.0  0.57003  0.69415  0.19773  1.0000
  C   C1623     1.0  0.84055  0.80913  0.23518  1.0000
  C   C1624     1.0  0.67692  0.92815  0.22539  1.0000
  C   C1625     1.0  0.52467  0.68480  0.22288  1.0000
  H   H1951     1.0  0.72624  0.77109  0.22246  1.0000
  H   H1952     1.0  0.87451  0.91983  0.02547  1.0000
  C   C1626     1.0  0.81844  0.76593  0.21010  1.0000
  N   N111      1.0  0.89888  0.94339  0.01781  1.0000
  H   H1953     1.0  0.83293  0.76099  0.20179  1.0000
  H   H1954     1.0  0.67387  0.91087  0.23035  1.0000
  C   C1627     1.0  0.51844  0.71985  0.20714  1.0000
  C   C1628     1.0  0.98011  0.74833  0.21516  1.0000
  H   H1955     1.0  0.87792  0.97488  0.03805  1.0000
  C   C1629     1.0  0.82993  0.69234  0.19020  1.0000
  H   H1956     1.0  0.99104  0.82130  0.06491  1.0000
  C   C1630     1.0  0.80689  0.79518  0.19046  1.0000
  C   C1631     1.0  0.76444  0.80210  0.23457  1.0000
  C   C1632     1.0  0.91822  0.94572  0.00555  1.0000
  H   H1957     1.0  0.82635  0.85316  0.20910  1.0000
  C   C1633     1.0  0.92012  0.81546  0.10029  1.0000
  C   C1634     1.0  0.93735  0.82084  0.10880  1.0000
  C   C1635     1.0  0.94040  0.81024  0.12447  1.0000
  C   C1636     1.0  0.92587  0.79463  0.13205  1.0000
  C   C1637     1.0  0.90806  0.78994  0.12384  1.0000
  C   C1638     1.0  0.90533  0.80018  0.10798  1.0000
  H   H1958     1.0  0.94832  0.83311  0.10326  1.0000
  H   H1959     1.0  0.95426  0.81396  0.13069  1.0000
  H   H1960     1.0  0.89684  0.77786  0.12945  1.0000
  H   H1961     1.0  0.89185  0.79601  0.10154  1.0000
  C   C1639     1.0  0.92889  0.94986  0.06977  1.0000
  C   C1640     1.0  0.92965  0.97253  0.06533  1.0000
  H   H1962     1.0  0.81059  0.75486  0.18102  1.0000
  C   C1641     1.0  0.89023  0.97704  0.07134  1.0000
  C   C1642     1.0  0.88951  0.95441  0.07593  1.0000
  C   C1643     1.0  0.90880  0.94078  0.07502  1.0000
  H   H1963     1.0  0.94515  0.97958  0.06113  1.0000
  C   C1644     1.0  0.85647  0.99171  0.02196  1.0000
  H   H1964     1.0  0.87395  0.94741  0.08008  1.0000
  H   H1965     1.0  0.90814  0.92333  0.07850  1.0000
  H   H1966     1.0  0.54800  0.67425  0.09225  1.0000
  H   H1967     1.0  0.56069  0.73458  0.19760  1.0000
  H   H1968     1.0  0.96806  0.81535  0.07937  1.0000
  C   C1645     1.0  0.98464  0.80889  0.07469  1.0000
  C   C1646     1.0  0.68526  0.00275  0.23143  1.0000
  S   S445      1.0  0.87647  0.75240  0.21544  1.0000
  H   H1969     1.0  0.76168  0.67976  0.20923  1.0000
  C   C1647     1.0  0.88182  0.96095  0.01415  1.0000
  H   H1970     1.0  0.81181  0.80793  0.19788  1.0000
  H   H1971     1.0  0.96176  0.77976  0.09099  1.0000
  H   H1972     1.0  0.80173  0.86195  0.23365  1.0000
  C   C1648     1.0  0.78073  0.78070  0.21221  1.0000
  C   C1649     1.0  0.56135  0.73279  0.21113  1.0000
  C   C1650     1.0  0.88985  0.92164  0.01714  1.0000
  H   H1973     1.0  0.79992  0.70660  0.18104  1.0000
  H   H1974     1.0  0.75709  0.75976  0.20383  1.0000
  H   H1975     1.0  0.50817  0.78290  0.22246  1.0000
  H   H1976     1.0  0.89337  0.94044  0.04415  1.0000
  H   H1977     1.0  0.91459  0.94251  0.99307  1.0000
  C   C1651     1.0  0.97646  0.75801  0.12781  1.0000
  C   C1652     1.0  0.82650  0.84224  0.22026  1.0000
  C   C1653     1.0  0.74203  0.77795  0.22286  1.0000
  N   N112      1.0  0.55552  0.71051  0.21845  1.0000
  C   C1654     1.0  0.96480  0.76203  0.11404  1.0000
  N   N113      1.0  0.79995  0.77508  0.20073  1.0000
  S   S446      1.0  0.85668  0.81691  0.20262  1.0000
  H   H1978     1.0  0.82145  0.79162  0.18172  1.0000
  H   H1979     1.0  0.88609  0.91892  0.00458  1.0000
  N   N114      1.0  0.90036  0.84608  0.15969  1.0000
  C   C1655     1.0  0.88649  0.82698  0.16019  1.0000
  C   C1656     1.0  0.92172  0.83773  0.16559  1.0000
  C   C1657     1.0  0.88930  0.86118  0.17134  1.0000
  C   C1658     1.0  0.90406  0.85796  0.14315  1.0000
  C   C1659     1.0  0.89510  0.85160  0.12914  1.0000
  C   C1660     1.0  0.91709  0.87657  0.14068  1.0000
  C   C1661     1.0  0.89909  0.86317  0.11371  1.0000
  C   C1662     1.0  0.92109  0.88791  0.12516  1.0000
  C   C1663     1.0  0.91216  0.88117  0.11169  1.0000
  H   H1980     1.0  0.86976  0.83207  0.15662  1.0000
  H   H1981     1.0  0.89407  0.81450  0.15215  1.0000
  H   H1982     1.0  0.88434  0.81830  0.17272  1.0000
  H   H1983     1.0  0.93078  0.82670  0.15695  1.0000
  H   H1984     1.0  0.91956  0.82807  0.17777  1.0000
  H   H1985     1.0  0.93256  0.85111  0.16700  1.0000
  H   H1986     1.0  0.87356  0.86848  0.16698  1.0000
  H   H1987     1.0  0.88536  0.85246  0.18375  1.0000
  H   H1988     1.0  0.89957  0.87490  0.17308  1.0000
  H   H1989     1.0  0.88530  0.83749  0.12964  1.0000
  H   H1990     1.0  0.92441  0.88242  0.15073  1.0000
  H   H1991     1.0  0.89242  0.85780  0.10312  1.0000
  H   H1992     1.0  0.93124  0.90198  0.12349  1.0000
  H   H1993     1.0  0.91548  0.88982  0.09963  1.0000
  H   H1994     1.0  0.99031  0.87430  0.00262  1.0000
  H   H1995     1.0  0.92009  0.93082  0.03653  1.0000
  N   N115      1.0  0.99954  0.80466  0.08798  1.0000
  C   C1664     1.0  0.96571  0.74570  0.22943  1.0000
  C   C1665     1.0  0.53293  0.70516  0.21600  1.0000
  C   C1666     1.0  0.76196  0.98760  0.22198  1.0000
  H   H1996     1.0  0.56958  0.67734  0.21694  1.0000
  H   H1997     1.0  0.55030  0.74583  0.21663  1.0000
  C   C1667     1.0  0.98238  0.97779  0.08361  1.0000
  H   H1998     1.0  0.90166  0.90793  0.02092  1.0000
  C   C1668     1.0  0.70800  0.98884  0.20876  1.0000
  C   C1669     1.0  0.74424  0.79318  0.23403  1.0000
  C   C1670     1.0  0.98512  0.99950  0.08624  1.0000
  H   H1999     1.0  0.85724  0.67265  0.19927  1.0000
  C   C1671     1.0  0.91031  0.98610  0.06597  1.0000
  H   H2000     1.0  0.97015  0.74715  0.13819  1.0000
  H   H2001     1.0  0.66087  0.93661  0.22275  1.0000
  H   H2002     1.0  0.93197  0.93372  0.00868  1.0000
  H   H2003     1.0  0.81387  0.75106  0.21831  1.0000
  C   C1672     1.0  0.79795  0.67148  0.18648  1.0000
  H   H2004     1.0  0.95322  0.84262  0.99757  1.0000
  H   H2005     1.0  0.58882  0.69806  0.21262  1.0000
  C   C1673     1.0  0.97212  0.77693  0.10096  1.0000
  H   H2006     1.0  0.79148  0.74263  0.19632  1.0000
  C   C1674     1.0  0.84047  0.82312  0.22070  1.0000
  C   C1675     1.0  0.87281  0.97555  0.02580  1.0000
  H   H2007     1.0  0.94945  0.75426  0.11383  1.0000
  C   C1676     1.0  0.80844  0.69157  0.18558  1.0000
  C   C1677     1.0  0.90677  0.94369  0.03425  1.0000
  H   H2008     1.0  0.98283  0.79384  0.06852  1.0000
  H   H2009     1.0  0.71246  0.95418  0.20875  1.0000
  H   H2010     1.0  0.85136  0.79444  0.23569  1.0000
  C   C1678     1.0  0.79574  0.75861  0.18946  1.0000
  H   H2011     1.0  0.78254  0.76461  0.18151  1.0000
  H   H2012     1.0  0.92444  0.96249  0.00484  1.0000
  H   H2013     1.0  0.79344  0.80273  0.18326  1.0000
  H   H2014     1.0  0.97380  0.74870  0.20332  1.0000
  C   C1679     1.0  0.75997  0.77163  0.21213  1.0000
  H   H2015     1.0  0.82429  0.77797  0.21767  1.0000
  C   C1680     1.0  0.70432  0.96730  0.21530  1.0000
  C   C1681     1.0  0.99157  0.78827  0.10134  1.0000
  C   C1682     1.0  0.78238  0.79603  0.22383  1.0000
  C   C1683     1.0  0.81252  0.84725  0.23415  1.0000
  C   C1684     1.0  0.85702  0.97977  0.99487  1.0000
  H   H2016     1.0  0.79757  0.80367  0.22459  1.0000
  H   H2017     1.0  0.98650  0.83162  0.10155  1.0000
  H   H2018     1.0  0.98930  0.68606  0.21185  1.0000
  C   C1685     1.0  0.84861  0.99382  0.00655  1.0000
  H   H2019     1.0  0.96627  0.97117  0.08571  1.0000
  H   H2020     1.0  0.87913  0.95277  0.98922  1.0000
  H   H2021     1.0  0.68706  0.92717  0.21350  1.0000
  H   H2022     1.0  0.71885  0.99188  0.19765  1.0000
  H   H2023     1.0  0.72000  0.92675  0.22803  1.0000
  H   H2024     1.0  0.99797  0.94766  0.07611  1.0000
  H   H2025     1.0  0.84980  0.00269  0.03103  1.0000
  H   H2026     1.0  0.52298  0.73588  0.20172  1.0000
  H   H2027     1.0  0.78163  0.67126  0.18260  1.0000
  C   C1686     1.0  0.87333  0.96350  0.99859  1.0000
  S   S447      1.0  0.93706  0.74162  0.22894  1.0000
  H   H2028     1.0  0.79800  0.67930  0.22073  1.0000
  C   C1687     1.0  0.84074  0.67254  0.19572  1.0000
  C   C1688     1.0  0.00039  0.96449  0.07829  1.0000
  C   C1689     1.0  0.94378  0.87448  0.98608  1.0000
  C   C1690     1.0  0.50309  0.67973  0.22137  1.0000
  H   H2029     1.0  0.53471  0.67282  0.22977  1.0000
  C   C1691     1.0  0.95043  0.85219  0.98611  1.0000
  Fe  Fe225     1.0  0.85176  0.93803  0.41816  1.0000
  S   S448      1.0  0.87565  0.96448  0.41534  1.0000
  S   S449      1.0  0.83791  0.92663  0.44402  1.0000
  Fe  Fe226     1.0  0.84860  0.93903  0.38069  1.0000
  S   S450      1.0  0.87165  0.96661  0.37585  1.0000
  S   S451      1.0  0.84295  0.92569  0.35637  1.0000
  Fe  Fe227     1.0  0.89173  0.94738  0.39418  1.0000
  S   S452      1.0  0.92817  0.94783  0.38732  1.0000
  Fe  Fe228     1.0  0.85349  0.98117  0.39740  1.0000
  H   H2030     1.0  0.82318  0.81570  0.32006  1.0000
  S   S453      1.0  0.86986  0.91892  0.39834  1.0000
  S   S454      1.0  0.82841  0.95563  0.40095  1.0000
  C   C1692     1.0  0.65226  0.68039  0.25311  1.0000
  H   H2031     1.0  0.88346  0.93433  0.44801  1.0000
  Fe  Fe229     1.0  0.60086  0.71631  0.26187  1.0000
  S   S455      1.0  0.61801  0.72860  0.28156  1.0000
  Fe  Fe230     1.0  0.56603  0.75388  0.26204  1.0000
  S   S456      1.0  0.58082  0.76961  0.28212  1.0000
  Fe  Fe231     1.0  0.61397  0.76261  0.26856  1.0000
  S   S457      1.0  0.64641  0.78021  0.26764  1.0000
  Fe  Fe232     1.0  0.58443  0.73493  0.29421  1.0000
  S   S458      1.0  0.58521  0.72566  0.32163  1.0000
  S   S459      1.0  0.56732  0.71998  0.27542  1.0000
  Fe  Fe233     1.0  0.75608  0.89977  0.29376  1.0000
  S   S460      1.0  0.78297  0.90216  0.27320  1.0000
  S   S461      1.0  0.75939  0.90620  0.32036  1.0000
  Fe  Fe234     1.0  0.72332  0.88281  0.27168  1.0000
  S   S462      1.0  0.74848  0.88429  0.24982  1.0000
  S   S463      1.0  0.68783  0.87385  0.26959  1.0000
  Fe  Fe235     1.0  0.77241  0.86946  0.26738  1.0000
  S   S464      1.0  0.79456  0.83832  0.26610  1.0000
  Fe  Fe236     1.0  0.75649  0.91718  0.25757  1.0000
  S   S465      1.0  0.76310  0.94558  0.23758  1.0000
  S   S466      1.0  0.74677  0.86621  0.28885  1.0000
  S   S467      1.0  0.72998  0.91659  0.27855  1.0000
  H   H2032     1.0  0.59506  0.77222  0.31645  1.0000
  C   C1693     1.0  0.76513  0.72802  0.24662  1.0000
  H   H2033     1.0  0.59049  0.70327  0.35342  1.0000
  C   C1694     1.0  0.97525  0.00222  0.40837  1.0000
  H   H2034     1.0  0.80747  0.86193  0.29027  1.0000
  C   C1695     1.0  0.56788  0.70802  0.33472  1.0000
  C   C1696     1.0  0.99712  0.89752  0.48371  1.0000
  C   C1697     1.0  0.88529  0.93466  0.47410  1.0000
  S   S468      1.0  0.98629  0.85911  0.39379  1.0000
  H   H2035     1.0  0.68198  0.94558  0.26259  1.0000
  C   C1698     1.0  0.54745  0.70284  0.33046  1.0000
  C   C1699     1.0  0.83933  0.86735  0.34819  1.0000
  H   H2036     1.0  0.57786  0.68159  0.30707  1.0000
  C   C1700     1.0  0.53380  0.68958  0.34158  1.0000
  H   H2037     1.0  0.54189  0.70949  0.31882  1.0000
  C   C1701     1.0  0.65749  0.80664  0.26747  1.0000
  C   C1702     1.0  0.64433  0.82619  0.26775  1.0000
  C   C1703     1.0  0.65392  0.84651  0.26823  1.0000
  C   C1704     1.0  0.67676  0.84770  0.26850  1.0000
  C   C1705     1.0  0.68992  0.82815  0.26823  1.0000
  C   C1706     1.0  0.68034  0.80784  0.26771  1.0000
  H   H2038     1.0  0.64350  0.86143  0.26849  1.0000
  H   H2039     1.0  0.70747  0.82865  0.26850  1.0000
  H   H2040     1.0  0.69072  0.79288  0.26763  1.0000
  H   H2041     1.0  0.55665  0.69270  0.24253  1.0000
  C   C1707     1.0  0.74105  0.98371  0.24843  1.0000
  H   H2042     1.0  0.73528  0.97367  0.25936  1.0000
  H   H2043     1.0  0.82690  0.87595  0.37220  1.0000
  C   C1708     1.0  0.81243  0.83315  0.24858  1.0000
  C   C1709     1.0  0.82651  0.81411  0.24906  1.0000
  C   C1710     1.0  0.54052  0.68112  0.35694  1.0000
  H   H2044     1.0  0.82654  0.80313  0.26020  1.0000
  C   C1711     1.0  0.80162  0.86480  0.35919  1.0000
  C   C1712     1.0  0.57471  0.69940  0.35000  1.0000
  H   H2045     1.0  0.85233  0.97456  0.44924  1.0000
  H   H2046     1.0  0.71855  0.93752  0.24748  1.0000
  H   H2047     1.0  0.62676  0.82567  0.26763  1.0000
  C   C1713     1.0  0.97450  0.74503  0.24470  1.0000
  C   C1714     1.0  0.81890  0.92298  0.34638  1.0000
  C   C1715     1.0  0.79814  0.92119  0.35494  1.0000
  C   C1716     1.0  0.78007  0.91647  0.34672  1.0000
  C   C1717     1.0  0.78239  0.91392  0.32980  1.0000
  C   C1718     1.0  0.80295  0.91682  0.32111  1.0000
  C   C1719     1.0  0.82112  0.92089  0.32941  1.0000
  H   H2048     1.0  0.79614  0.92265  0.36800  1.0000
  H   H2049     1.0  0.76425  0.91446  0.35357  1.0000
  H   H2050     1.0  0.80493  0.91581  0.30801  1.0000
  H   H2051     1.0  0.83704  0.92241  0.32262  1.0000
  C   C1720     1.0  0.94408  0.92312  0.38994  1.0000
  C   C1721     1.0  0.93519  0.90405  0.39792  1.0000
  C   C1722     1.0  0.94821  0.88433  0.39908  1.0000
  C   C1723     1.0  0.97028  0.88387  0.39274  1.0000
  C   C1724     1.0  0.97925  0.90306  0.38506  1.0000
  C   C1725     1.0  0.96604  0.92254  0.38339  1.0000
  H   H2052     1.0  0.91827  0.90439  0.40307  1.0000
  H   H2053     1.0  0.94128  0.86946  0.40505  1.0000
  H   H2054     1.0  0.54553  0.72058  0.24244  1.0000
  H   H2055     1.0  0.97279  0.93713  0.37687  1.0000
  C   C1726     1.0  0.85202  0.92944  0.46146  1.0000
  C   C1727     1.0  0.87440  0.93318  0.45999  1.0000
  H   H2056     1.0  0.57438  0.71467  0.23849  1.0000
  N   N116      1.0  0.62614  0.77647  0.32564  1.0000
  C   C1728     1.0  0.61768  0.76562  0.34178  1.0000
  C   C1729     1.0  0.60695  0.78513  0.31685  1.0000
  C   C1730     1.0  0.63838  0.75937  0.31625  1.0000
  C   C1731     1.0  0.64056  0.79460  0.32695  1.0000
  C   C1732     1.0  0.64994  0.80651  0.31258  1.0000
  C   C1733     1.0  0.64555  0.80112  0.34223  1.0000
  C   C1734     1.0  0.66338  0.82387  0.31339  1.0000
  C   C1735     1.0  0.65906  0.81853  0.34290  1.0000
  C   C1736     1.0  0.66793  0.82988  0.32851  1.0000
  H   H2057     1.0  0.60743  0.77733  0.34923  1.0000
  H   H2058     1.0  0.60694  0.75206  0.34038  1.0000
  H   H2059     1.0  0.63124  0.75804  0.34885  1.0000
  H   H2060     1.0  0.59800  0.79895  0.32293  1.0000
  H   H2061     1.0  0.61170  0.79122  0.30387  1.0000
  H   H2062     1.0  0.65358  0.75319  0.32195  1.0000
  H   H2063     1.0  0.64327  0.76552  0.30330  1.0000
  H   H2064     1.0  0.64683  0.80250  0.30056  1.0000
  H   H2065     1.0  0.63920  0.79312  0.35385  1.0000
  H   H2066     1.0  0.67025  0.83279  0.30220  1.0000
  H   H2067     1.0  0.66263  0.82331  0.35466  1.0000
  H   H2068     1.0  0.67832  0.84342  0.32904  1.0000
  N   N117      1.0  0.91223  0.91324  0.34521  1.0000
  C   C1737     1.0  0.89626  0.91910  0.33280  1.0000
  C   C1738     1.0  0.89944  0.90967  0.36138  1.0000
  C   C1739     1.0  0.92582  0.93239  0.34536  1.0000
  C   C1740     1.0  0.92660  0.89341  0.34215  1.0000
  C   C1741     1.0  0.92540  0.88121  0.32845  1.0000
  C   C1742     1.0  0.94244  0.88568  0.35314  1.0000
  C   C1743     1.0  0.93927  0.86250  0.32607  1.0000
  C   C1744     1.0  0.95615  0.86696  0.35071  1.0000
  H   H2069     1.0  0.88473  0.90583  0.33262  1.0000
  H   H2070     1.0  0.88570  0.93403  0.33565  1.0000
  H   H2071     1.0  0.90464  0.92282  0.32032  1.0000
  H   H2072     1.0  0.88926  0.89516  0.36203  1.0000
  H   H2073     1.0  0.88816  0.92411  0.36391  1.0000
  H   H2074     1.0  0.90998  0.90717  0.37168  1.0000
  H   H2075     1.0  0.93592  0.93557  0.33347  1.0000
  H   H2076     1.0  0.91553  0.94761  0.34780  1.0000
  H   H2077     1.0  0.93722  0.93001  0.35515  1.0000
  H   H2078     1.0  0.91390  0.88577  0.31942  1.0000
  H   H2079     1.0  0.94433  0.89404  0.36381  1.0000
  H   H2080     1.0  0.78192  0.83446  0.30372  1.0000
  H   H2081     1.0  0.96363  0.74289  0.25585  1.0000
  H   H2082     1.0  0.79697  0.87996  0.30531  1.0000
  H   H2083     1.0  0.77922  0.85516  0.34374  1.0000
  H   H2084     1.0  0.85578  0.87192  0.34954  1.0000
  C   C1745     1.0  0.82306  0.86960  0.36103  1.0000
  H   H2085     1.0  0.78208  0.82634  0.32529  1.0000
  H   H2086     1.0  0.97252  0.95887  0.42391  1.0000
  C   C1746     1.0  0.97956  0.95525  0.41143  1.0000
  H   H2087     1.0  0.59911  0.68514  0.29085  1.0000
  H   H2088     1.0  0.82593  0.87393  0.30185  1.0000
  H   H2089     1.0  0.98273  0.93709  0.41170  1.0000
  H   H2090     1.0  0.82323  0.92483  0.47841  1.0000
  C   C1747     1.0  0.59505  0.67625  0.30312  1.0000
  H   H2091     1.0  0.71098  0.71800  0.25228  1.0000
  H   H2092     1.0  0.84006  0.83477  0.30724  1.0000
  C   C1748     1.0  0.99646  0.99133  0.40671  1.0000
  H   H2093     1.0  0.90271  0.93701  0.47284  1.0000
  H   H2094     1.0  0.78886  0.86743  0.36899  1.0000
  C   C1749     1.0  0.83426  0.86015  0.33348  1.0000
  C   C1750     1.0  0.84055  0.92776  0.47715  1.0000
  H   H2095     1.0  0.81850  0.82315  0.29888  1.0000
  C   C1751     1.0  0.73674  0.69501  0.24393  1.0000
  C   C1752     1.0  0.81261  0.85484  0.33122  1.0000
  H   H2096     1.0  0.96033  0.99353  0.40958  1.0000
  N   N118      1.0  0.68779  0.93980  0.23705  1.0000
  S   S469      1.0  0.59913  0.74949  0.24760  1.0000
  C   C1753     1.0  0.68148  0.98126  0.23813  1.0000
  H   H2097     1.0  0.96677  0.95945  0.40274  1.0000
  H   H2098     1.0  0.99620  0.90271  0.37997  1.0000
  C   C1754     1.0  0.78497  0.84022  0.31569  1.0000
  H   H2099     1.0  0.51781  0.68600  0.33835  1.0000
  N   N119      1.0  0.99979  0.96720  0.40626  1.0000
  C   C1755     1.0  0.79632  0.85767  0.34450  1.0000
  C   C1756     1.0  0.51274  0.75752  0.24213  1.0000
  H   H2100     1.0  0.67139  0.97960  0.24962  1.0000
  H   H2101     1.0  0.99529  0.96910  0.38057  1.0000
  N   N120      1.0  0.80753  0.84788  0.31533  1.0000
  H   H2102     1.0  0.68674  0.67551  0.25633  1.0000
  H   H2103     1.0  0.83999  0.99260  0.43412  1.0000
  H   H2104     1.0  0.79495  0.97960  0.25363  1.0000
  H   H2105     1.0  0.77230  0.85374  0.31792  1.0000
  C   C1757     1.0  0.82302  0.82960  0.31026  1.0000
  H   H2106     1.0  0.64938  0.69291  0.26158  1.0000
  C   C1758     1.0  0.95459  0.85538  0.33718  1.0000
  H   H2107     1.0  0.84729  0.85939  0.32371  1.0000
  H   H2108     1.0  0.62828  0.74504  0.31562  1.0000
  C   C1759     1.0  0.80967  0.86671  0.30266  1.0000
  H   H2109     1.0  0.78199  0.99090  0.28107  1.0000
  H   H2110     1.0  0.56659  0.67942  0.37277  1.0000
  C   C1760     1.0  0.67344  0.67054  0.25008  1.0000
  C   C1761     1.0  0.77356  0.70790  0.24126  1.0000
  H   H2111     1.0  0.00119  0.89940  0.47054  1.0000
  C   C1762     1.0  0.74268  0.73158  0.25070  1.0000
  C   C1763     1.0  0.63483  0.67367  0.24543  1.0000
  S   S470      1.0  0.53768  0.76811  0.24694  1.0000
  H   H2112     1.0  0.88741  0.99255  0.44528  1.0000
  S   S471      1.0  0.60770  0.68446  0.24986  1.0000
  H   H2113     1.0  0.93817  0.85339  0.31556  1.0000
  H   H2114     1.0  0.96800  0.86139  0.35945  1.0000
  C   C1764     1.0  0.56119  0.68587  0.36101  1.0000
  H   H2115     1.0  0.73622  0.74713  0.25493  1.0000
  H   H2116     1.0  0.84743  0.97517  0.47667  1.0000
  H   H2117     1.0  0.99301  0.70008  0.23841  1.0000
  H   H2118     1.0  0.96527  0.84085  0.33535  1.0000
  C   C1765     1.0  0.79331  0.99691  0.25563  1.0000
  H   H2119     1.0  0.60562  0.68217  0.31185  1.0000
  C   C1766     1.0  0.99720  0.74700  0.24574  1.0000
  C   C1767     1.0  0.50369  0.73892  0.25084  1.0000
  C   C1768     1.0  0.75954  0.69066  0.23988  1.0000
  C   C1769     1.0  0.67423  0.93783  0.25307  1.0000
  C   C1770     1.0  0.72850  0.71515  0.24927  1.0000
  H   H2120     1.0  0.77606  0.74095  0.24764  1.0000
  H   H2121     1.0  0.82712  0.99018  0.45463  1.0000
  H   H2122     1.0  0.51187  0.73040  0.26089  1.0000
  C   C1771     1.0  0.85447  0.98945  0.48029  1.0000
  H   H2123     1.0  0.79110  0.70626  0.23828  1.0000
  H   H2124     1.0  0.73026  0.79818  0.24222  1.0000
  H   H2125     1.0  0.97011  0.92074  0.48269  1.0000
  H   H2126     1.0  0.65735  0.94531  0.25202  1.0000
  C   C1772     1.0  0.84332  0.99081  0.44728  1.0000
  H   H2127     1.0  0.72505  0.68284  0.24287  1.0000
  H   H2128     1.0  0.76622  0.81401  0.24325  1.0000
  H   H2129     1.0  0.67239  0.92029  0.25791  1.0000
  C   C1773     1.0  0.70935  0.92835  0.23963  1.0000
  H   H2130     1.0  0.70755  0.91136  0.24565  1.0000
  C   C1774     1.0  0.75461  0.97412  0.23607  1.0000
  C   C1775     1.0  0.55802  0.70951  0.23623  1.0000
  Fe  Fe237     1.0  0.87643  0.94180  0.53296  1.0000
  S   S472      1.0  0.89865  0.96567  0.54091  1.0000
  S   S473      1.0  0.88879  0.93359  0.50712  1.0000
  Fe  Fe238     1.0  0.84954  0.93903  0.56668  1.0000
  S   S474      1.0  0.87003  0.96254  0.57679  1.0000
  S   S475      1.0  0.81806  0.92774  0.58128  1.0000
  Fe  Fe239     1.0  0.86846  0.98218  0.55248  1.0000
  Fe  Fe240     1.0  0.89861  0.94398  0.56439  1.0000
  S   S476      1.0  0.93074  0.94021  0.57571  1.0000
  S   S477      1.0  0.84587  0.96020  0.54283  1.0000
  S   S478      1.0  0.87851  0.91857  0.55597  1.0000
  N   N121      1.0  0.50960  0.71214  0.58727  1.0000
  Fe  Fe241     1.0  0.61104  0.76084  0.69372  1.0000
  S   S479      1.0  0.60458  0.73765  0.71657  1.0000
  S   S480      1.0  0.63296  0.78803  0.69956  1.0000
  Fe  Fe242     1.0  0.58356  0.73320  0.67417  1.0000
  S   S481      1.0  0.57619  0.70896  0.69605  1.0000
  S   S482      1.0  0.56486  0.72388  0.65327  1.0000
  Fe  Fe243     1.0  0.56930  0.73822  0.71047  1.0000
  H   H2131     1.0  0.99469  0.80501  0.63068  1.0000
  Fe  Fe244     1.0  0.61164  0.71070  0.70004  1.0000
  C   C1776     1.0  0.99240  0.73916  0.72123  1.0000
  S   S483      1.0  0.57511  0.76293  0.68857  1.0000
  S   S484      1.0  0.61970  0.73334  0.67736  1.0000
  Fe  Fe245     1.0  0.73225  0.87680  0.68826  1.0000
  S   S485      1.0  0.70961  0.85502  0.67654  1.0000
  Fe  Fe246     1.0  0.77620  0.89887  0.67778  1.0000
  S   S486      1.0  0.77913  0.90905  0.70310  1.0000
  S   S487      1.0  0.80569  0.90415  0.65875  1.0000
  Fe  Fe247     1.0  0.76779  0.87554  0.71230  1.0000
  H   H2132     1.0  0.83035  0.99204  0.56999  1.0000
  Fe  Fe248     1.0  0.74338  0.91949  0.70324  1.0000
  H   H2133     1.0  0.96810  0.91882  0.53986  1.0000
  S   S488      1.0  0.76776  0.86433  0.68722  1.0000
  S   S489      1.0  0.74085  0.91115  0.67724  1.0000
  S   S490      1.0  0.73183  0.88625  0.71404  1.0000
  H   H2134     1.0  0.54460  0.71595  0.58184  1.0000
  C   C1777     1.0  0.59302  0.70789  0.60868  1.0000
  C   C1778     1.0  0.64041  0.68001  0.73479  1.0000
  H   H2135     1.0  0.94207  0.00021  0.56545  1.0000
  H   H2136     1.0  0.53509  0.74840  0.62846  1.0000
  C   C1779     1.0  0.99619  0.82155  0.68805  1.0000
  H   H2137     1.0  0.85284  0.95492  0.62739  1.0000
  C   C1780     1.0  0.57269  0.70986  0.63549  1.0000
  C   C1781     1.0  0.51130  0.72506  0.63780  1.0000
  C   C1782     1.0  0.97930  0.90975  0.49091  1.0000
  H   H2138     1.0  0.66928  0.71710  0.70833  1.0000
  H   H2139     1.0  0.97587  0.94179  0.52579  1.0000
  C   C1783     1.0  0.55947  0.69344  0.63172  1.0000
  H   H2140     1.0  0.99830  0.78548  0.59182  1.0000
  C   C1784     1.0  0.85290  0.97062  0.62001  1.0000
  H   H2141     1.0  0.93698  0.93089  0.49532  1.0000
  H   H2142     1.0  0.54606  0.68814  0.64043  1.0000
  C   C1785     1.0  0.65418  0.80668  0.69274  1.0000
  C   C1786     1.0  0.66174  0.81954  0.70413  1.0000
  C   C1787     1.0  0.67881  0.83408  0.69955  1.0000
  C   C1788     1.0  0.68848  0.83629  0.68338  1.0000
  C   C1789     1.0  0.68093  0.82342  0.67199  1.0000
  C   C1790     1.0  0.66408  0.80864  0.67663  1.0000
  H   H2143     1.0  0.65427  0.81832  0.71663  1.0000
  H   H2144     1.0  0.68420  0.84387  0.70849  1.0000
  H   H2145     1.0  0.68811  0.82494  0.65943  1.0000
  H   H2146     1.0  0.65857  0.79897  0.66767  1.0000
  H   H2147     1.0  0.78639  0.99125  0.73433  1.0000
  C   C1791     1.0  0.92860  0.82730  0.70596  1.0000
  C   C1792     1.0  0.69933  0.70407  0.73100  1.0000
  C   C1793     1.0  0.72495  0.99091  0.72763  1.0000
  H   H2148     1.0  0.51538  0.74550  0.57720  1.0000
  H   H2149     1.0  0.77288  0.96102  0.72058  1.0000
  H   H2150     1.0  0.95734  0.94943  0.49941  1.0000
  H   H2151     1.0  0.98278  0.88832  0.53062  1.0000
  C   C1794     1.0  0.98650  0.89170  0.51754  1.0000
  H   H2152     1.0  0.68956  0.73387  0.69688  1.0000
  H   H2153     1.0  0.80100  0.99514  0.57115  1.0000
  H   H2154     1.0  0.70769  0.99081  0.72594  1.0000
  H   H2155     1.0  0.98422  0.73492  0.71101  1.0000
  C   C1795     1.0  0.81493  0.92328  0.60300  1.0000
  C   C1796     1.0  0.79373  0.92361  0.61126  1.0000
  C   C1797     1.0  0.79058  0.91885  0.62843  1.0000
  C   C1798     1.0  0.80859  0.91299  0.63745  1.0000
  C   C1799     1.0  0.82980  0.91327  0.62923  1.0000
  C   C1800     1.0  0.83299  0.91857  0.61212  1.0000
  H   H2156     1.0  0.77965  0.92735  0.60431  1.0000
  H   H2157     1.0  0.77425  0.91947  0.63464  1.0000
  H   H2158     1.0  0.84386  0.90891  0.63610  1.0000
  H   H2159     1.0  0.84940  0.91829  0.60595  1.0000
  C   C1801     1.0  0.94756  0.91648  0.57252  1.0000
  C   C1802     1.0  0.96988  0.91651  0.57486  1.0000
  C   C1803     1.0  0.98408  0.89840  0.57130  1.0000
  C   C1804     1.0  0.97591  0.87996  0.56577  1.0000
  C   C1805     1.0  0.95348  0.87958  0.56396  1.0000
  C   C1806     1.0  0.93933  0.89796  0.56714  1.0000
  H   H2160     1.0  0.97629  0.93075  0.57913  1.0000
  C   C1807     1.0  0.83495  0.97777  0.61126  1.0000
  H   H2161     1.0  0.94710  0.86529  0.55974  1.0000
  H   H2162     1.0  0.92209  0.89777  0.56546  1.0000
  H   H2163     1.0  0.85837  0.84715  0.71581  1.0000
  H   H2164     1.0  0.00136  0.89879  0.57281  1.0000
  H   H2165     1.0  0.93112  0.89720  0.51272  1.0000
  H   H2166     1.0  0.93303  0.84470  0.70319  1.0000
  H   H2167     1.0  0.84242  0.92801  0.50329  1.0000
  C   C1808     1.0  0.58975  0.71677  0.62397  1.0000
  N   N122      1.0  0.94368  0.81472  0.71700  1.0000
  N   N123      1.0  0.75625  0.85727  0.63626  1.0000
  C   C1809     1.0  0.76289  0.83931  0.64860  1.0000
  C   C1810     1.0  0.75272  0.87800  0.64422  1.0000
  C   C1811     1.0  0.73485  0.85188  0.63105  1.0000
  C   C1812     1.0  0.77367  0.86016  0.62255  1.0000
  C   C1813     1.0  0.79559  0.86300  0.62577  1.0000
  C   C1814     1.0  0.76929  0.86182  0.60580  1.0000
  C   C1815     1.0  0.81208  0.86696  0.61305  1.0000
  C   C1816     1.0  0.78589  0.86612  0.59317  1.0000
  C   C1817     1.0  0.80721  0.86875  0.59679  1.0000
  H   H2168     1.0  0.77719  0.84323  0.65486  1.0000
  H   H2169     1.0  0.74955  0.83617  0.65863  1.0000
  H   H2170     1.0  0.76713  0.82372  0.64285  1.0000
  H   H2171     1.0  0.76765  0.88225  0.64962  1.0000
  H   H2172     1.0  0.73935  0.87695  0.65433  1.0000
  H   H2173     1.0  0.74811  0.89200  0.63531  1.0000
  H   H2174     1.0  0.73651  0.83673  0.62452  1.0000
  H   H2175     1.0  0.72243  0.84895  0.64178  1.0000
  H   H2176     1.0  0.72757  0.86567  0.62312  1.0000
  H   H2177     1.0  0.80002  0.86319  0.63816  1.0000
  H   H2178     1.0  0.75310  0.86035  0.60211  1.0000
  H   H2179     1.0  0.82855  0.86967  0.61585  1.0000
  H   H2180     1.0  0.78217  0.86795  0.58048  1.0000
  H   H2181     1.0  0.81986  0.87286  0.58700  1.0000
  C   C1818     1.0  0.64747  0.67161  0.71986  1.0000
  C   C1819     1.0  0.53177  0.70431  0.58072  1.0000
  H   H2182     1.0  0.78951  0.92781  0.73451  1.0000
  C   C1820     1.0  0.99649  0.98471  0.56175  1.0000
  C   C1821     1.0  0.50995  0.71625  0.60469  1.0000
  C   C1822     1.0  0.56291  0.68436  0.61652  1.0000
  C   C1823     1.0  0.83454  0.99814  0.60136  1.0000
  C   C1824     1.0  0.87110  0.98330  0.61897  1.0000
  H   H2183     1.0  0.68437  0.69652  0.72945  1.0000
  C   C1825     1.0  0.98306  0.80120  0.71899  1.0000
  N   N124      1.0  0.95499  0.92014  0.51626  1.0000
  H   H2184     1.0  0.60585  0.71385  0.59967  1.0000
  H   H2185     1.0  0.59368  0.67110  0.68058  1.0000
  H   H2186     1.0  0.91133  0.82789  0.71171  1.0000
  C   C1826     1.0  0.93761  0.90503  0.52277  1.0000
  H   H2187     1.0  0.92834  0.81957  0.69431  1.0000
  H   H2188     1.0  0.97885  0.79293  0.73103  1.0000
  C   C1827     1.0  0.93555  0.79232  0.72076  1.0000
  C   C1828     1.0  0.70114  0.72707  0.72752  1.0000
  H   H2189     1.0  0.98794  0.81238  0.58422  1.0000
  H   H2190     1.0  0.62616  0.68485  0.66677  1.0000
  H   H2191     1.0  0.94861  0.94086  0.53623  1.0000
  C   C1829     1.0  0.94501  0.93777  0.50511  1.0000
  C   C1830     1.0  0.97375  0.98321  0.56237  1.0000
  H   H2192     1.0  0.98136  0.80241  0.60516  1.0000
  C   C1831     1.0  0.85137  0.92963  0.49127  1.0000
  C   C1832     1.0  0.73928  0.97351  0.72239  1.0000
  C   C1833     1.0  0.82373  0.85026  0.72347  1.0000
  H   H2193     1.0  0.96689  0.96762  0.56119  1.0000
  C   C1834     1.0  0.96225  0.93086  0.53007  1.0000
  H   H2194     1.0  0.85461  0.97439  0.50510  1.0000
  H   H2195     1.0  0.53424  0.74127  0.59992  1.0000
  H   H2196     1.0  0.69123  0.77171  0.72990  1.0000
  S   S491      1.0  0.72829  0.95132  0.71366  1.0000
  C   C1835     1.0  0.57945  0.69188  0.60475  1.0000
  S   S492      1.0  0.63470  0.68031  0.70184  1.0000
  H   H2197     1.0  0.55246  0.67191  0.61380  1.0000
  C   C1836     1.0  0.76156  0.97403  0.72465  1.0000
  H   H2198     1.0  0.53244  0.70178  0.56749  1.0000
  H   H2199     1.0  0.67227  0.77488  0.71478  1.0000
  H   H2200     1.0  0.93172  0.94762  0.51178  1.0000
  H   H2201     1.0  0.99481  0.83583  0.61329  1.0000
  H   H2202     1.0  0.66204  0.74492  0.70163  1.0000
  H   H2203     1.0  0.94430  0.78259  0.73045  1.0000
  C   C1837     1.0  0.62269  0.67773  0.65539  1.0000
  S   S493      1.0  0.58342  0.68237  0.58486  1.0000
  C   C1838     1.0  0.67556  0.73390  0.70656  1.0000
  S   S494      1.0  0.99382  0.85783  0.56030  1.0000
  H   H2204     1.0  0.64900  0.75042  0.73101  1.0000
  C   C1839     1.0  0.96687  0.81319  0.70998  1.0000
  C   C1840     1.0  0.97366  0.90745  0.50816  1.0000
  C   C1841     1.0  0.97412  0.82342  0.69425  1.0000
  H   H2205     1.0  0.88517  0.97748  0.62551  1.0000
  C   C1842     1.0  0.84542  0.84168  0.72487  1.0000
  C   C1843     1.0  0.87387  0.93282  0.48980  1.0000
  H   H2206     1.0  0.94847  0.84243  0.73018  1.0000
  H   H2207     1.0  0.81415  0.97320  0.58326  1.0000
  C   C1844     1.0  0.80689  0.84347  0.73523  1.0000
  H   H2208     1.0  0.91783  0.79273  0.72535  1.0000
  C   C1845     1.0  0.52408  0.73659  0.62534  1.0000
  H   H2209     1.0  0.53088  0.67460  0.48632  1.0000
  C   C1846     1.0  0.76921  0.99136  0.73237  1.0000
  H   H2210     1.0  0.82010  0.86223  0.71338  1.0000
  H   H2211     1.0  0.93767  0.78292  0.70977  1.0000
  H   H2212     1.0  0.63890  0.67431  0.64856  1.0000
  H   H2213     1.0  0.96308  0.83297  0.68653  1.0000
  C   C1847     1.0  0.94213  0.82568  0.73239  1.0000
  N   N125      1.0  0.68222  0.74117  0.72195  1.0000
  H   H2214     1.0  0.59973  0.72974  0.62650  1.0000
  C   C1848     1.0  0.81517  0.99077  0.57853  1.0000
  H   H2215     1.0  0.57918  0.67600  0.66252  1.0000
  C   C1849     1.0  0.52354  0.73225  0.60904  1.0000
  H   H2216     1.0  0.61331  0.69086  0.64821  1.0000
  H   H2217     1.0  0.00147  0.82949  0.67607  1.0000
  H   H2218     1.0  0.70020  0.76761  0.70866  1.0000
  H   H2219     1.0  0.82165  0.96688  0.61202  1.0000
  S   S495      1.0  0.54094  0.74110  0.73085  1.0000
  H   H2220     1.0  0.94365  0.89163  0.53159  1.0000
  H   H2221     1.0  0.72472  0.75272  0.72741  1.0000
  C   C1850     1.0  0.51193  0.74090  0.73018  1.0000
  H   H2222     1.0  0.51288  0.73052  0.70590  1.0000
  C   C1851     1.0  0.99471  0.80268  0.59500  1.0000
  H   H2223     1.0  0.92341  0.91384  0.52929  1.0000
  H   H2224     1.0  0.79108  0.98578  0.60674  1.0000
  S   S496      1.0  0.77957  0.85446  0.73441  1.0000
  C   C1852     1.0  0.68688  0.76480  0.71871  1.0000
  C   C1853     1.0  0.85851  0.98877  0.49677  1.0000
  C   C1854     1.0  0.66333  0.73945  0.73464  1.0000
  H   H2225     1.0  0.53688  0.68841  0.58740  1.0000
  C   C1855     1.0  0.50313  0.73282  0.57752  1.0000
  C   C1856     1.0  0.72163  0.73548  0.72980  1.0000
  H   H2226     1.0  0.51235  0.72811  0.65047  1.0000
  H   H2227     1.0  0.62670  0.69203  0.73548  1.0000
  C   C1857     1.0  0.73900  0.72158  0.73526  1.0000
  C   C1858     1.0  0.95968  0.00157  0.56488  1.0000
  H   H2228     1.0  0.62216  0.67002  0.62563  1.0000
  C   C1859     1.0  0.50245  0.73470  0.71666  1.0000
  Fe  Fe249     1.0  0.94217  0.90577  0.89483  1.0000
  S   S497      1.0  0.92069  0.87769  0.90300  1.0000
  S   S498      1.0  0.93860  0.94192  0.89815  1.0000
  Fe  Fe250     1.0  0.98043  0.87596  0.88280  1.0000
  S   S499      1.0  0.96247  0.84514  0.88993  1.0000
  H   H2229     1.0  0.74940  0.92133  0.73737  1.0000
  Fe  Fe251     1.0  0.93380  0.86410  0.87907  1.0000
  S   S500      1.0  0.90954  0.85147  0.86316  1.0000
  Fe  Fe252     1.0  0.95078  0.86086  0.91320  1.0000
  S   S501      1.0  0.95145  0.84084  0.93801  1.0000
  S   S502      1.0  0.95281  0.89390  0.87025  1.0000
  S   S503      1.0  0.97126  0.88989  0.90676  1.0000
  H   H2230     1.0  0.75484  0.70160  0.77838  1.0000
  Fe  Fe253     1.0  0.90914  0.77238  0.78894  1.0000
  S   S504      1.0  0.92219  0.78603  0.76374  1.0000
  S   S505      1.0  0.92694  0.78020  0.81073  1.0000
  Fe  Fe254     1.0  0.87872  0.74184  0.77496  1.0000
  S   S506      1.0  0.89010  0.75349  0.74889  1.0000
  S   S507      1.0  0.85621  0.71347  0.78409  1.0000
  Fe  Fe255     1.0  0.92451  0.75154  0.75668  1.0000
  C   C1860     1.0  0.87112  0.85517  0.91969  1.0000
  Fe  Fe256     1.0  0.88715  0.78731  0.75754  1.0000
  H   H2231     1.0  0.92049  0.68981  0.77858  1.0000
  S   S508      1.0  0.91349  0.73736  0.78219  1.0000
  S   S509      1.0  0.87365  0.77614  0.78338  1.0000
  H   H2232     1.0  0.83264  0.98893  0.86880  1.0000
  H   H2233     1.0  0.92849  0.81814  0.88452  1.0000
  H   H2234     1.0  0.91085  0.82035  0.93439  1.0000
  H   H2235     1.0  0.64538  0.67909  0.76046  1.0000
  H   H2236     1.0  0.88498  0.78176  0.90084  1.0000
  H   H2237     1.0  0.88759  0.85175  0.94177  1.0000
  C   C1861     1.0  0.90837  0.67743  0.77737  1.0000
  C   C1862     1.0  0.71126  0.67073  0.80892  1.0000
  C   C1863     1.0  0.83351  0.81917  0.74957  1.0000
  C   C1864     1.0  0.89945  0.77975  0.90815  1.0000
  H   H2238     1.0  0.83099  0.67701  0.79785  1.0000
  H   H2239     1.0  0.83714  0.80723  0.75967  1.0000
  H   H2240     1.0  0.79896  0.82265  0.75744  1.0000
  H   H2241     1.0  0.78972  0.89768  0.77567  1.0000
  C   C1865     1.0  0.82992  0.70412  0.75990  1.0000
  H   H2242     1.0  0.86803  0.68047  0.74288  1.0000
  H   H2243     1.0  0.83708  0.71773  0.75228  1.0000
  H   H2244     1.0  0.81015  0.69561  0.74136  1.0000
  H   H2245     1.0  0.87058  0.99528  0.84415  1.0000
  H   H2246     1.0  0.98165  0.75002  0.76101  1.0000
  C   C1866     1.0  0.91516  0.83252  0.84798  1.0000
  C   C1867     1.0  0.89860  0.82885  0.83802  1.0000
  C   C1868     1.0  0.90204  0.81333  0.82628  1.0000
  C   C1869     1.0  0.92200  0.80099  0.82456  1.0000
  C   C1870     1.0  0.93851  0.80461  0.83459  1.0000
  C   C1871     1.0  0.93522  0.82039  0.84611  1.0000
  H   H2247     1.0  0.88300  0.83807  0.83938  1.0000
  H   H2248     1.0  0.88914  0.81068  0.81875  1.0000
  H   H2249     1.0  0.95401  0.79517  0.83337  1.0000
  H   H2250     1.0  0.94816  0.82304  0.85361  1.0000
  C   C1872     1.0  0.91343  0.95733  0.89831  1.0000
  C   C1873     1.0  0.89349  0.94777  0.89748  1.0000
  C   C1874     1.0  0.87378  0.96096  0.89796  1.0000
  C   C1875     1.0  0.87408  0.98363  0.89921  1.0000
  H   H2251     1.0  0.99535  0.88180  0.97252  1.0000
  C   C1876     1.0  0.91361  0.97997  0.89948  1.0000
  H   H2252     1.0  0.89328  0.93028  0.89658  1.0000
  H   H2253     1.0  0.85835  0.95357  0.89744  1.0000
  H   H2254     1.0  0.68857  0.68456  0.79118  1.0000
  H   H2255     1.0  0.92894  0.98745  0.90015  1.0000
  H   H2256     1.0  0.80640  0.91529  0.74987  1.0000
  C   C1877     1.0  0.94909  0.85425  0.95631  1.0000
  C   C1878     1.0  0.94292  0.87664  0.95626  1.0000
  H   H2257     1.0  0.95771  0.82478  0.97145  1.0000
  H   H2258     1.0  0.93988  0.88617  0.94484  1.0000
  C   C1879     1.0  0.51290  0.67371  0.77755  1.0000
  C   C1880     1.0  0.83613  0.69892  0.77581  1.0000
  C   C1881     1.0  0.90189  0.69650  0.75131  1.0000
  H   H2259     1.0  0.94182  0.81006  0.91416  1.0000
  H   H2260     1.0  0.83298  0.98119  0.84825  1.0000
  H   H2261     1.0  0.92482  0.82737  0.73794  1.0000
  C   C1882     1.0  0.99085  0.74771  0.74934  1.0000
  C   C1883     1.0  0.76451  0.97722  0.77610  1.0000
  S   S510      1.0  0.87794  0.81605  0.73934  1.0000
  C   C1884     1.0  0.81452  0.69157  0.75377  1.0000
  C   C1885     1.0  0.99988  0.94140  0.88119  1.0000
  H   H2262     1.0  0.80072  0.93353  0.77270  1.0000
  C   C1886     1.0  0.88605  0.84517  0.93019  1.0000
  H   H2263     1.0  0.73255  0.98057  0.76738  1.0000
  C   C1887     1.0  0.74901  0.68192  0.80134  1.0000
  C   C1888     1.0  0.79089  0.91395  0.74425  1.0000
  C   C1889     1.0  0.74716  0.96986  0.76882  1.0000
  H   H2264     1.0  0.89311  0.77690  0.92129  1.0000
  H   H2265     1.0  0.93327  0.78906  0.88403  1.0000
  C   C1890     1.0  0.82638  0.68122  0.78552  1.0000
  C   C1891     1.0  0.78361  0.96387  0.77752  1.0000
  H   H2266     1.0  0.52095  0.67788  0.76547  1.0000
  H   H2267     1.0  0.73522  0.94532  0.75634  1.0000
  C   C1892     1.0  0.86950  0.84697  0.90469  1.0000
  C   C1893     1.0  0.71674  0.69036  0.73654  1.0000
  H   H2268     1.0  0.76047  0.89591  0.77914  1.0000
  C   C1894     1.0  0.89959  0.82711  0.92567  1.0000
  C   C1895     1.0  0.89881  0.81869  0.91024  1.0000
  C   C1896     1.0  0.76843  0.93551  0.76344  1.0000
  N   N126      1.0  0.90619  0.67439  0.75993  1.0000
  H   H2269     1.0  0.88620  0.70442  0.75642  1.0000
  C   C1897     1.0  0.98353  0.98482  0.89402  1.0000
  H   H2270     1.0  0.66774  0.74413  0.74658  1.0000
  H   H2271     1.0  0.79296  0.89840  0.73813  1.0000
  N   N127      1.0  0.77133  0.91406  0.75639  1.0000
  H   H2272     1.0  0.76329  0.99356  0.78026  1.0000
  H   H2273     1.0  0.89241  0.68323  0.78360  1.0000
  S   S511      1.0  0.84966  0.00037  0.89973  1.0000
  C   C1898     1.0  0.88288  0.82884  0.90009  1.0000
  C   C1899     1.0  0.82863  0.99489  0.85611  1.0000
  C   C1900     1.0  0.67916  0.67435  0.82811  1.0000
  N   N128      1.0  0.91275  0.79931  0.90530  1.0000
  C   C1901     1.0  0.92083  0.80216  0.88762  1.0000
  H   H2274     1.0  0.91503  0.70780  0.75259  1.0000
  C   C1902     1.0  0.73657  0.69908  0.73862  1.0000
  H   H2275     1.0  0.71589  0.70343  0.77244  1.0000
  C   C1903     1.0  0.89406  0.99306  0.89986  1.0000
  C   C1904     1.0  0.95292  0.84211  0.97130  1.0000
  C   C1905     1.0  0.78554  0.94323  0.77142  1.0000
  H   H2276     1.0  0.98054  0.94392  0.91123  1.0000
  H   H2277     1.0  0.96960  0.97464  0.89595  1.0000
  H   H2278     1.0  0.67028  0.68548  0.81913  1.0000
  C   C1906     1.0  0.77461  0.89613  0.76957  1.0000
  H   H2279     1.0  0.94379  0.78185  0.90986  1.0000
  H   H2280     1.0  0.93502  0.90388  0.97090  1.0000
  H   H2281     1.0  0.88081  0.82324  0.88833  1.0000
  H   H2282     1.0  0.79713  0.96976  0.78309  1.0000
  H   H2283     1.0  0.90768  0.80164  0.87931  1.0000
  H   H2284     1.0  0.76612  0.68119  0.80382  1.0000
  C   C1907     1.0  0.94016  0.88663  0.97108  1.0000
  C   C1908     1.0  0.72080  0.69446  0.78364  1.0000
  C   C1909     1.0  0.74900  0.94941  0.76248  1.0000
  C   C1910     1.0  0.81189  0.82796  0.74828  1.0000
  C   C1911     1.0  0.93235  0.79502  0.91470  1.0000
  C   C1912     1.0  0.74268  0.69351  0.78698  1.0000
  H   H2285     1.0  0.50506  0.75138  0.75448  1.0000
  H   H2286     1.0  0.94074  0.67682  0.75258  1.0000
  H   H2287     1.0  0.90918  0.76467  0.90465  1.0000
  H   H2288     1.0  0.85812  0.85494  0.89638  1.0000
  H   H2289     1.0  0.65738  0.72256  0.73675  1.0000
  H   H2290     1.0  0.92795  0.78946  0.92781  1.0000
  C   C1913     1.0  0.97998  0.74225  0.73625  1.0000
  H   H2291     1.0  0.86103  0.86949  0.92306  1.0000
  H   H2292     1.0  0.68794  0.68484  0.83534  1.0000
  C   C1914     1.0  0.80503  0.67367  0.76340  1.0000
  H   H2293     1.0  0.90130  0.69581  0.73791  1.0000
  H   H2294     1.0  0.98181  0.94464  0.88150  1.0000
  H   H2295     1.0  0.85076  0.98146  0.98291  1.0000
  H   H2296     1.0  0.77634  0.87969  0.76463  1.0000
  S   S512      1.0  0.95134  0.73762  0.73838  1.0000
  C   C1915     1.0  0.85039  0.82609  0.73790  1.0000
  H   H2297     1.0  0.81055  0.99806  0.85681  1.0000
  C   C1916     1.0  0.75228  0.90892  0.74790  1.0000
  C   C1917     1.0  0.70525  0.68344  0.79447  1.0000
  H   H2298     1.0  0.73701  0.90797  0.75635  1.0000
  H   H2299     1.0  0.75490  0.89272  0.74280  1.0000
  H   H2300     1.0  0.95156  0.81633  0.74193  1.0000
  H   H2301     1.0  0.50598  0.68231  0.96947  1.0000
  C   C1918     1.0  0.73361  0.67078  0.81226  1.0000
  C   C1919     1.0  0.65096  0.67261  0.74892  1.0000
  C   C1920     1.0  0.99874  0.94186  0.91054  1.0000
  H   H2302     1.0  0.75008  0.68834  0.74284  1.0000
  H   H2303     1.0  0.71484  0.67284  0.73926  1.0000
  H   H2304     1.0  0.75452  0.72827  0.73688  1.0000
