data_image0
_chemical_formula_structural       SFeS2FeS2FeSFeS3CH3C2FeS2H2C6H4C6HC2HCH2C5H2C6H2CSCNC9H14CHC2H2C2HCHNHCH6SCH2NCH3C2HC2H3CH2C2HC2NHCH2CHCH6NC2HCH5FeH2CH2C3SHCH2SFeS2FeS2FeSFeS3CS2CHC6HCH2C6H6NC3H2C6H4NC6H16C2HC3H2FeH3C2H2FeCHC3HCH2CHC2H3CH2CSHC3H3C2H3C2SFeS2FeS2FeSFeS3CHCH2CFeS2C2SH3C3H2CHFeCHC6H4SHC4H2C7H5SH6CNHC2HC3HCHCHNSNHCH2CHCH7CH2CHCH2NC7HCH11FeCH4NC2H3C5H2CH2CHCHC2HCHC2NCHCH5NHC2H3CHCH2CFe2SHSCFeS2FeS2FeSFeS3H2C2H3CHCH5C6H5C3H2C7H4NH3SH2C2H2C2H2CH4CH3CHNHC2HC6H5C2HCNC7H2CNHCH3C2HCH2SH6CHCH2CHC2H2C2H2CHC3FeC2HC3HCHFeS2CSFeSFeSHSHSCFeS2FeS2Fe2S3CSHC6H5CH3NC4H2C6H4C6H9NC4H15CSH2C2H3CHC2NC2HCSC3H2CH2CH2CH4CH2CHSHCHNHC4HC2H4CHCHCHC2FeHC2FeS2H3CSHCFeS2FeHSFeSCS2HSCFeS2FeS2Fe2S3HSHCFeC6H4CH2CHC3H2C6H4CHCH2C6H4NHC3H2CHCH2NH3CH7CHCHCH3CH4C2HC2HCH2SCHC2HCHNHSC2H2CHCH2NC9H14NC6HCH4CH4CH4CHCH3C2HSHCHCH4CFeNHFeHCH5CFeSH2SFeSFeS2NSHCFeSNFeS2FeS2FeS2FeSFeS2HSHCHC6H5C7H4C6H5CH5CHCHC2HC2H3FeHC2H2CHC2SCSC2HC3SHC2HCH3CH2CH4NC3H8NHSC2H3C5H5CH3SH2Fe2CH8CH2CHC5FeCSFeHSFeHNSFeS2FeSHFeS2FeSFeS2FeSFeS3HCSHC2H2C6H4CH2C7H4CH4C6H4C2HCNC8H4CH3CHC2FeH3C2H3CNH3SH2CH3CSCH2CH4CHSH2CHC3H4C2HCH3S2C2H2SH2SH2CH2CH2SHSHFeHSFeCHSHFeSHSC2FeS2FeS2CH2FeS2C6H5CHC2H5C4HCH3C6H3CHSC2HNHCHCHC2H2CHC3HC4HCHNCSH2C2NCH3CHCHCH3CH4C3HCHFeCHCH6CFeH6C3HCSHC3HCHC2H3CH2FeC4NH2C3H2CH2CH3S2CSC2S2H2SH2SFeS2FeS2FeSHFe2HFeS2CHSC6H5NC3HC3FeHC7H2NHCHC6H6CH2SC2HCHCNC9H14CH2C2H5C2H2CHC2H4C4H2NH2SH2FeHC3H2CHCH2CHC3NHCFeCHC2H3CHCHC2H3CHFeS2FeS2HSHCFeSH2FeS2HC2FeS2FeSHCHCFeS2CH3C6H4C9SHCHCH2C6H4NCHC3H2C4H4CH2CHNHC4HCH2SH4FeCH2SHCHCHCHSHCHCH2CH2NCH3CHSC3H4CH2FeC2H4FeSH2C2Fe2CNH2C2NCH5C2SC2HC2HS2C2HCNHCHFeS2FeSFeS2HCSHCFeSFeSHFeS2FeSC2SHFeS2FeSFeHS2HC2H4C6H4C6HCSH3FeC4SCHC8H4NCHC4HCH4CHCH4CH2FeC2HCH2CH2CH7CH2CH3C2NC4HCFeH4CH3SH2FeH3C2HC2H2SHC3H2CH2CH3C2HNCNCHSH2CSHCHCHSHC2H3CSNH3SH2SFeSCSFeS2FeS2FeSFeS3FeS2C2H2SCHSH2CHSHCH2C6H6CH2C6H6C6H6CH2C3H5C2H3CHCHCHC2HC2H2C4H4C2FeHN2SCHCNH2SHFeCHCSH2C2H2CH2C2HCH3CH2C2H3NH3C2H3CH6S2CHCHCH3SFeCH2SC3FeH2FeSFeS2FeS2FeSFeS3FeS2CSCHC3HC6H7SHC6H4C6H4CNHCHCH2C3HCHCH5CH2NC7H12C2FeSHCHCH3NH4NC4HCHCH3SC2SCH2CH4CHCH6C6HCH2CH2CSC2HFeSC2FeS2FeS2FeSFeS3H2C2H2FeSHCSH4C7H4CHC9H8C6H5C2HCH2SHCH9CSN2H2CH2CH2CSHSH4CH2C3H8C2HNHC2HNC3HCH3C3HCH3CH2SHCSCSC2HFeHCSHFeS2FeS2FeS2FeSFeS3C2HC7H5CH5C6H6C7H4CNC9H14C2H2CH2CHNH3CH2C2HSCH3CH3CH2C2SFeCHCNH4CHC2H2CHCNHCH4CHCFeHFeH2C3HCHC4NHC
_chemical_formula_sum              "S288 Fe144 C1080 H1296 N72"
_cell_length_a       54.6112
_cell_length_b       54.4968
_cell_length_c       54.6096
_cell_angle_alpha    89.5385
_cell_angle_beta     89.4416
_cell_angle_gamma    88.9419

_space_group_name_H-M_alt    "P 1"
_space_group_IT_number       1

loop_
  _space_group_symop_operation_xyz
  'x, y, z'

loop_
  _atom_site_type_symbol
  _atom_site_label
  _atom_site_symmetry_multiplicity
  _atom_site_fract_x
  _atom_site_fract_y
  _atom_site_fract_z
  _atom_site_occupancy
  S   S1        1.0  0.22911  0.32111  0.15214  1.0000
  Fe  Fe1       1.0  0.17481  0.30199  0.28395  1.0000
  S   S2        1.0  0.14910  0.27824  0.26357  1.0000
  S   S3        1.0  0.20556  0.32337  0.26600  1.0000
  Fe  Fe2       1.0  0.15183  0.28846  0.33387  1.0000
  S   S4        1.0  0.12498  0.26289  0.31694  1.0000
  S   S5        1.0  0.15266  0.29242  0.37521  1.0000
  Fe  Fe3       1.0  0.15712  0.25057  0.29345  1.0000
  S   S6        1.0  0.16747  0.21212  0.28111  1.0000
  Fe  Fe4       1.0  0.11963  0.29293  0.28895  1.0000
  S   S7        1.0  0.08379  0.31143  0.27731  1.0000
  S   S8        1.0  0.18434  0.27369  0.31251  1.0000
  S   S9        1.0  0.14500  0.31917  0.30721  1.0000
  C   C1        1.0  0.23801  0.26043  0.16199  1.0000
  H   H1        1.0  0.02065  0.39933  0.39112  1.0000
  H   H2        1.0  0.22766  0.19548  0.23554  1.0000
  H   H3        1.0  0.16738  0.31250  0.49920  1.0000
  C   C2        1.0  0.04694  0.41443  0.42580  1.0000
  C   C3        1.0  0.20881  0.24211  0.23350  1.0000
  Fe  Fe5       1.0  0.11267  0.39265  0.46818  1.0000
  S   S10       1.0  0.10349  0.38397  0.42889  1.0000
  S   S11       1.0  0.09952  0.42982  0.48048  1.0000
  H   H4        1.0  0.22570  0.25315  0.23379  1.0000
  H   H5        1.0  0.18974  0.31016  0.43084  1.0000
  C   C4        1.0  0.13778  0.31747  0.38973  1.0000
  C   C5        1.0  0.12805  0.33725  0.37632  1.0000
  C   C6        1.0  0.11748  0.35750  0.38856  1.0000
  C   C7        1.0  0.11699  0.35830  0.41425  1.0000
  C   C8        1.0  0.12634  0.33838  0.42768  1.0000
  C   C9        1.0  0.13643  0.31790  0.41542  1.0000
  H   H6        1.0  0.12885  0.33707  0.35655  1.0000
  H   H7        1.0  0.11004  0.37276  0.37806  1.0000
  H   H8        1.0  0.12548  0.33863  0.44745  1.0000
  H   H9        1.0  0.14349  0.30241  0.42582  1.0000
  C   C10       1.0  0.19525  0.19876  0.29170  1.0000
  C   C11       1.0  0.20613  0.17921  0.27870  1.0000
  C   C12       1.0  0.22890  0.16914  0.28581  1.0000
  C   C13       1.0  0.06454  0.30793  0.37862  1.0000
  C   C14       1.0  0.22910  0.19661  0.32033  1.0000
  C   C15       1.0  0.20681  0.20738  0.31261  1.0000
  H   H10       1.0  0.19691  0.17163  0.26316  1.0000
  C   C16       1.0  0.25123  0.25030  0.28164  1.0000
  C   C17       1.0  0.19837  0.24756  0.14865  1.0000
  H   H11       1.0  0.19832  0.22193  0.32321  1.0000
  C   C18       1.0  0.19561  0.36674  0.40626  1.0000
  H   H12       1.0  0.03034  0.23999  0.27002  1.0000
  H   H13       1.0  0.23710  0.15411  0.27565  1.0000
  C   C19       1.0  0.20186  0.34577  0.49765  1.0000
  C   C20       1.0  0.19299  0.32966  0.43069  1.0000
  C   C21       1.0  0.05408  0.27089  0.27415  1.0000
  C   C22       1.0  0.05537  0.29638  0.27626  1.0000
  C   C23       1.0  0.03354  0.31049  0.27666  1.0000
  H   H14       1.0  0.07074  0.25984  0.27365  1.0000
  H   H15       1.0  0.03440  0.33025  0.27809  1.0000
  C   C24       1.0  0.22463  0.31907  0.18415  1.0000
  C   C25       1.0  0.20370  0.30745  0.19340  1.0000
  C   C26       1.0  0.19829  0.30764  0.21863  1.0000
  C   C27       1.0  0.21342  0.31999  0.23472  1.0000
  C   C28       1.0  0.23461  0.33118  0.22553  1.0000
  C   C29       1.0  0.18631  0.20945  0.21580  1.0000
  H   H16       1.0  0.19136  0.29877  0.18090  1.0000
  H   H17       1.0  0.18192  0.29910  0.22546  1.0000
  C   C30       1.0  0.11506  0.49667  0.49554  1.0000
  S   S12       1.0  0.09738  0.37318  0.50108  1.0000
  C   C31       1.0  0.03116  0.25970  0.27201  1.0000
  N   N1        1.0  0.13016  0.34601  0.22255  1.0000
  C   C32       1.0  0.13858  0.34679  0.24831  1.0000
  C   C33       1.0  0.10799  0.36199  0.22069  1.0000
  C   C34       1.0  0.12325  0.32034  0.21741  1.0000
  C   C35       1.0  0.14888  0.35416  0.20458  1.0000
  C   C36       1.0  0.14434  0.35277  0.17906  1.0000
  C   C37       1.0  0.17196  0.36344  0.21160  1.0000
  C   C38       1.0  0.16211  0.35933  0.16171  1.0000
  C   C39       1.0  0.18945  0.37022  0.19407  1.0000
  C   C40       1.0  0.18467  0.36788  0.16921  1.0000
  H   H18       1.0  0.14294  0.36574  0.25403  1.0000
  H   H19       1.0  0.12424  0.34031  0.26134  1.0000
  H   H20       1.0  0.15505  0.33478  0.25112  1.0000
  H   H21       1.0  0.09362  0.35642  0.23423  1.0000
  H   H22       1.0  0.09951  0.36119  0.20230  1.0000
  H   H23       1.0  0.11242  0.38150  0.22424  1.0000
  H   H24       1.0  0.11347  0.31856  0.19981  1.0000
  H   H25       1.0  0.13970  0.30803  0.21668  1.0000
  H   H26       1.0  0.11065  0.31293  0.23174  1.0000
  H   H27       1.0  0.12712  0.34624  0.17233  1.0000
  H   H28       1.0  0.17737  0.36494  0.23050  1.0000
  H   H29       1.0  0.15860  0.35741  0.14232  1.0000
  H   H30       1.0  0.20725  0.37643  0.19979  1.0000
  H   H31       1.0  0.19874  0.37218  0.15576  1.0000
  C   C41       1.0  0.23428  0.24878  0.18455  1.0000
  H   H32       1.0  0.23036  0.31324  0.47150  1.0000
  C   C42       1.0  0.16602  0.49166  0.43464  1.0000
  C   C43       1.0  0.19604  0.34289  0.45272  1.0000
  H   H33       1.0  0.05675  0.28389  0.34973  1.0000
  H   H34       1.0  0.19309  0.25516  0.23130  1.0000
  C   C44       1.0  0.21138  0.30821  0.47694  1.0000
  C   C45       1.0  0.01407  0.31341  0.38597  1.0000
  H   H35       1.0  0.19493  0.37583  0.38854  1.0000
  C   C46       1.0  0.22009  0.25985  0.14408  1.0000
  H   H36       1.0  0.18437  0.24749  0.13471  1.0000
  N   N2        1.0  0.00484  0.28433  0.35180  1.0000
  H   H37       1.0  0.20694  0.23346  0.25196  1.0000
  C   C47       1.0  0.19296  0.34144  0.40787  1.0000
  H   H38       1.0  0.18553  0.19493  0.20164  1.0000
  H   H39       1.0  0.03061  0.37509  0.47128  1.0000
  H   H40       1.0  0.23204  0.19258  0.20304  1.0000
  H   H41       1.0  0.15635  0.33810  0.48149  1.0000
  H   H42       1.0  0.24620  0.34112  0.23782  1.0000
  H   H43       1.0  0.22288  0.26954  0.12687  1.0000
  S   S13       1.0  0.15010  0.39683  0.48402  1.0000
  C   C48       1.0  0.05559  0.32318  0.39711  1.0000
  H   H44       1.0  0.08419  0.30592  0.37573  1.0000
  H   H45       1.0  0.05092  0.36929  0.44575  1.0000
  N   N3        1.0  0.19480  0.33014  0.47677  1.0000
  C   C49       1.0  0.19868  0.38033  0.42747  1.0000
  H   H46       1.0  0.03229  0.43054  0.46928  1.0000
  H   H47       1.0  0.05623  0.40103  0.41334  1.0000
  H   H48       1.0  0.16305  0.30937  0.46685  1.0000
  C   C50       1.0  0.04840  0.29521  0.36378  1.0000
  C   C51       1.0  0.01802  0.42132  0.45833  1.0000
  H   H49       1.0  0.20405  0.49638  0.42603  1.0000
  C   C52       1.0  0.19449  0.23570  0.17114  1.0000
  C   C53       1.0  0.23003  0.20604  0.21819  1.0000
  H   H50       1.0  0.23768  0.20302  0.33681  1.0000
  H   H51       1.0  0.06829  0.33292  0.40853  1.0000
  H   H52       1.0  0.20041  0.40009  0.42617  1.0000
  C   C54       1.0  0.24042  0.33041  0.20037  1.0000
  H   H53       1.0  0.16979  0.22167  0.21452  1.0000
  H   H54       1.0  0.20113  0.38043  0.46604  1.0000
  C   C55       1.0  0.24037  0.17767  0.30680  1.0000
  C   C56       1.0  0.19900  0.36870  0.45041  1.0000
  H   H55       1.0  0.20529  0.29365  0.46437  1.0000
  C   C57       1.0  0.04242  0.38398  0.45727  1.0000
  C   C58       1.0  0.00907  0.38993  0.42869  1.0000
  N   N4        1.0  0.02882  0.40223  0.44207  1.0000
  H   H56       1.0  0.06185  0.42293  0.43647  1.0000
  C   C59       1.0  0.00742  0.39025  0.40268  1.0000
  H   H57       1.0  0.16790  0.47202  0.43767  1.0000
  H   H58       1.0  0.03833  0.42936  0.41467  1.0000
  C   C60       1.0  0.16935  0.32209  0.48120  1.0000
  H   H59       1.0  0.05751  0.39263  0.46749  1.0000
  C   C61       1.0  0.02254  0.29739  0.36720  1.0000
  H   H60       1.0  0.18463  0.20003  0.23382  1.0000
  H   H61       1.0  0.22063  0.35303  0.49515  1.0000
  H   H62       1.0  0.17720  0.22668  0.17349  1.0000
  H   H63       1.0  0.24022  0.28761  0.28868  1.0000
  H   H64       1.0  0.02348  0.33770  0.41525  1.0000
  H   H65       1.0  0.19008  0.33090  0.39136  1.0000
  N   N5        1.0  0.20930  0.22351  0.21381  1.0000
  C   C62       1.0  0.03040  0.32589  0.40080  1.0000
  C   C63       1.0  0.21254  0.23585  0.18978  1.0000
  H   H66       1.0  0.00789  0.43564  0.44765  1.0000
  C   C64       1.0  0.01671  0.26670  0.33458  1.0000
  H   H67       1.0  0.24784  0.21532  0.21987  1.0000
  H   H68       1.0  0.10522  0.47972  0.49476  1.0000
  H   H69       1.0  0.23868  0.24280  0.29511  1.0000
  H   H70       1.0  0.02885  0.27622  0.32126  1.0000
  H   H71       1.0  0.21217  0.29940  0.49540  1.0000
  Fe  Fe6       1.0  0.13566  0.43282  0.49898  1.0000
  H   H72       1.0  0.02769  0.25241  0.34444  1.0000
  H   H73       1.0  0.24847  0.25007  0.19802  1.0000
  C   C65       1.0  0.01058  0.29924  0.27511  1.0000
  H   H74       1.0  0.00482  0.41361  0.47173  1.0000
  H   H75       1.0  0.12766  0.49239  0.44329  1.0000
  C   C66       1.0  0.00932  0.27378  0.27262  1.0000
  C   C67       1.0  0.14057  0.49616  0.49745  1.0000
  C   C68       1.0  0.25227  0.27557  0.27810  1.0000
  S   S14       1.0  0.15725  0.46797  0.49694  1.0000
  H   H76       1.0  0.00302  0.25694  0.32338  1.0000
  C   C69       1.0  0.14330  0.50321  0.43783  1.0000
  H   H77       1.0  0.18876  0.36142  0.50037  1.0000
  H   H78       1.0  0.00297  0.31423  0.32591  1.0000
  S   S15       1.0  0.22772  0.29041  0.85367  1.0000
  Fe  Fe7       1.0  0.15027  0.31024  0.73784  1.0000
  S   S16       1.0  0.13734  0.27155  0.73924  1.0000
  S   S17       1.0  0.15899  0.33396  0.77026  1.0000
  Fe  Fe8       1.0  0.14701  0.31309  0.68215  1.0000
  S   S18       1.0  0.13461  0.27409  0.67915  1.0000
  S   S19       1.0  0.14664  0.34425  0.65436  1.0000
  Fe  Fe9       1.0  0.10974  0.28320  0.71098  1.0000
  S   S20       1.0  0.07103  0.26859  0.71053  1.0000
  Fe  Fe10      1.0  0.16333  0.26544  0.70765  1.0000
  S   S21       1.0  0.18353  0.22912  0.71303  1.0000
  S   S22       1.0  0.12033  0.32252  0.71245  1.0000
  S   S23       1.0  0.17795  0.30377  0.70794  1.0000
  C   C70       1.0  0.03315  0.37704  0.52442  1.0000
  S   S24       1.0  0.15163  0.34736  0.53791  1.0000
  S   S25       1.0  0.12297  0.41625  0.53464  1.0000
  C   C71       1.0  0.09492  0.29992  0.77642  1.0000
  H   H79       1.0  0.07804  0.34202  0.81900  1.0000
  C   C72       1.0  0.21503  0.22291  0.70839  1.0000
  C   C73       1.0  0.23066  0.23978  0.69719  1.0000
  C   C74       1.0  0.20433  0.21593  0.80210  1.0000
  C   C75       1.0  0.24372  0.20960  0.82293  1.0000
  C   C76       1.0  0.24935  0.19392  0.71261  1.0000
  C   C77       1.0  0.22446  0.19999  0.71595  1.0000
  H   H80       1.0  0.22349  0.25743  0.69115  1.0000
  C   C78       1.0  0.21944  0.21946  0.82228  1.0000
  H   H81       1.0  0.09225  0.28306  0.78769  1.0000
  H   H82       1.0  0.23435  0.25204  0.75411  1.0000
  C   C79       1.0  0.14870  0.34415  0.62202  1.0000
  C   C80       1.0  0.15336  0.32278  0.60859  1.0000
  C   C81       1.0  0.15423  0.32390  0.58277  1.0000
  C   C82       1.0  0.15005  0.34626  0.57029  1.0000
  C   C83       1.0  0.14524  0.36748  0.58380  1.0000
  C   C84       1.0  0.14482  0.36646  0.60950  1.0000
  H   H83       1.0  0.15648  0.30551  0.61805  1.0000
  H   H84       1.0  0.15808  0.30740  0.57244  1.0000
  H   H85       1.0  0.14233  0.38483  0.57449  1.0000
  H   H86       1.0  0.14131  0.38309  0.61975  1.0000
  H   H87       1.0  0.20142  0.33550  0.51539  1.0000
  H   H88       1.0  0.05918  0.50313  0.53125  1.0000
  N   N6        1.0  0.07988  0.32093  0.78562  1.0000
  C   C85       1.0  0.04170  0.31005  0.71829  1.0000
  C   C86       1.0  0.04284  0.28494  0.71326  1.0000
  C   C87       1.0  0.02094  0.27214  0.71063  1.0000
  H   H89       1.0  0.05840  0.32009  0.72032  1.0000
  H   H90       1.0  0.02164  0.25270  0.70670  1.0000
  C   C88       1.0  0.20931  0.30282  0.83007  1.0000
  C   C89       1.0  0.19477  0.28711  0.81636  1.0000
  C   C90       1.0  0.17996  0.29638  0.79739  1.0000
  C   C91       1.0  0.17880  0.32162  0.79269  1.0000
  C   C92       1.0  0.19309  0.33741  0.80657  1.0000
  C   C93       1.0  0.20866  0.32800  0.82491  1.0000
  H   H91       1.0  0.19491  0.26773  0.82044  1.0000
  H   H92       1.0  0.16892  0.28407  0.78689  1.0000
  H   H93       1.0  0.19217  0.35698  0.80309  1.0000
  H   H94       1.0  0.21960  0.34031  0.83552  1.0000
  N   N7        1.0  0.06903  0.31478  0.64031  1.0000
  C   C94       1.0  0.04805  0.29813  0.64420  1.0000
  C   C95       1.0  0.09039  0.29969  0.63214  1.0000
  C   C96       1.0  0.07470  0.32563  0.66441  1.0000
  C   C97       1.0  0.06430  0.33440  0.62192  1.0000
  C   C98       1.0  0.04344  0.33479  0.60648  1.0000
  C   C99       1.0  0.08159  0.35321  0.61808  1.0000
  H   H95       1.0  0.10644  0.34554  0.76973  1.0000
  H   H96       1.0  0.23723  0.23778  0.86649  1.0000
  H   H97       1.0  0.04410  0.28742  0.62749  1.0000
  H   H98       1.0  0.05188  0.28425  0.65889  1.0000
  H   H99       1.0  0.03123  0.30846  0.65004  1.0000
  H   H100      1.0  0.08763  0.29235  0.61343  1.0000
  H   H101      1.0  0.09382  0.28380  0.64469  1.0000
  H   H102      1.0  0.10753  0.31043  0.63158  1.0000
  H   H103      1.0  0.05959  0.33802  0.67082  1.0000
  H   H104      1.0  0.07759  0.31114  0.67860  1.0000
  H   H105      1.0  0.09193  0.33619  0.66412  1.0000
  H   H106      1.0  0.02947  0.32107  0.60772  1.0000
  H   H107      1.0  0.09825  0.35372  0.62851  1.0000
  H   H108      1.0  0.21236  0.18668  0.72415  1.0000
  H   H109      1.0  0.05500  0.38565  0.57177  1.0000
  H   H110      1.0  0.01840  0.37170  0.65291  1.0000
  C   C100      1.0  0.05743  0.37148  0.58563  1.0000
  C   C101      1.0  0.05317  0.31671  0.78463  1.0000
  H   H111      1.0  0.09179  0.38547  0.59755  1.0000
  C   C102      1.0  0.24708  0.21969  0.86685  1.0000
  C   C103      1.0  0.02855  0.40235  0.52573  1.0000
  C   C104      1.0  0.00496  0.41173  0.52190  1.0000
  H   H112      1.0  0.10730  0.32811  0.81271  1.0000
  H   H113      1.0  0.05438  0.27863  0.77123  1.0000
  Fe  Fe11      1.0  0.13389  0.37991  0.51828  1.0000
  H   H114      1.0  0.11487  0.30381  0.77703  1.0000
  H   H115      1.0  0.18586  0.22362  0.80196  1.0000
  H   H116      1.0  0.21183  0.23028  0.83707  1.0000
  C   C105      1.0  0.08625  0.34274  0.77053  1.0000
  C   C106      1.0  0.24854  0.31681  0.70694  1.0000
  H   H117      1.0  0.09050  0.29576  0.75702  1.0000
  H   H118      1.0  0.07813  0.36004  0.77782  1.0000
  Fe  Fe12      1.0  0.08779  0.41077  0.51492  1.0000
  C   C107      1.0  0.07810  0.37147  0.60029  1.0000
  H   H119      1.0  0.02449  0.35285  0.57663  1.0000
  C   C108      1.0  0.08715  0.32536  0.81128  1.0000
  C   C109      1.0  0.04023  0.35308  0.58856  1.0000
  C   C110      1.0  0.03625  0.33564  0.79135  1.0000
  H   H120      1.0  0.07990  0.34073  0.75139  1.0000
  C   C111      1.0  0.22509  0.33223  0.74134  1.0000
  H   H121      1.0  0.04244  0.35322  0.79756  1.0000
  H   H122      1.0  0.01804  0.34130  0.72601  1.0000
  C   C112      1.0  0.23171  0.33369  0.71669  1.0000
  H   H123      1.0  0.01746  0.34152  0.51842  1.0000
  C   C113      1.0  0.01882  0.32202  0.72144  1.0000
  C   C114      1.0  0.04316  0.29408  0.77707  1.0000
  H   H124      1.0  0.08232  0.30954  0.82331  1.0000
  H   H125      1.0  0.22321  0.34751  0.70498  1.0000
  H   H126      1.0  0.20113  0.20022  0.76630  1.0000
  C   C115      1.0  0.21292  0.20275  0.78195  1.0000
  H   H127      1.0  0.05134  0.36969  0.52771  1.0000
  H   H128      1.0  0.24344  0.18309  0.76596  1.0000
  C   C116      1.0  0.24273  0.26049  0.77052  1.0000
  S   S26       1.0  0.05196  0.42276  0.53152  1.0000
  H   H129      1.0  0.22774  0.27024  0.78057  1.0000
  C   C117      1.0  0.25209  0.19675  0.80178  1.0000
  C   C118      1.0  0.23675  0.19318  0.78179  1.0000
  C   C119      1.0  0.02267  0.49069  0.52512  1.0000
  H   H130      1.0  0.01057  0.27394  0.76915  1.0000
  H   H131      1.0  0.23374  0.20506  0.87123  1.0000
  H   H132      1.0  0.02663  0.47226  0.53186  1.0000
  C   C120      1.0  0.01400  0.36112  0.51928  1.0000
  C   C121      1.0  0.23541  0.31400  0.75635  1.0000
  H   H133      1.0  0.24940  0.24542  0.78264  1.0000
  H   H134      1.0  0.22924  0.31327  0.77518  1.0000
  H   H135      1.0  0.21133  0.34484  0.74875  1.0000
  C   C122      1.0  0.01095  0.33242  0.78978  1.0000
  C   C123      1.0  0.01783  0.29101  0.77582  1.0000
  S   S27       1.0  0.21351  0.74596  0.13637  1.0000
  Fe  Fe13      1.0  0.15553  0.73570  0.26585  1.0000
  S   S28       1.0  0.13287  0.76842  0.25387  1.0000
  S   S29       1.0  0.17451  0.70909  0.23993  1.0000
  Fe  Fe14      1.0  0.15365  0.74961  0.31974  1.0000
  S   S30       1.0  0.13213  0.78405  0.31122  1.0000
  S   S31       1.0  0.16165  0.74567  0.36034  1.0000
  Fe  Fe15      1.0  0.10928  0.76041  0.28713  1.0000
  S   S32       1.0  0.06885  0.76751  0.29665  1.0000
  Fe  Fe16      1.0  0.15741  0.78886  0.27918  1.0000
  S   S33       1.0  0.17322  0.82457  0.26550  1.0000
  S   S34       1.0  0.12999  0.72556  0.29709  1.0000
  S   S35       1.0  0.18108  0.75663  0.28958  1.0000
  C   C124      1.0  0.21596  0.78041  0.22295  1.0000
  H   H136      1.0  0.24892  0.76791  0.25616  1.0000
  C   C125      1.0  0.23889  0.85777  0.26635  1.0000
  H   H137      1.0  0.09778  0.67618  0.42162  1.0000
  H   H138      1.0  0.05468  0.67442  0.43586  1.0000
  C   C126      1.0  0.16137  0.54343  0.42948  1.0000
  Fe  Fe17      1.0  0.13825  0.64690  0.46211  1.0000
  S   S36       1.0  0.15459  0.64752  0.42370  1.0000
  S   S37       1.0  0.10047  0.63158  0.46252  1.0000
  C   C127      1.0  0.18411  0.53095  0.42556  1.0000
  C   C128      1.0  0.25063  0.84719  0.28656  1.0000
  S   S38       1.0  0.09718  0.56910  0.49328  1.0000
  H   H139      1.0  0.22122  0.67094  0.13507  1.0000
  H   H140      1.0  0.24645  0.76005  0.18945  1.0000
  H   H141      1.0  0.20662  0.79644  0.23181  1.0000
  C   C129      1.0  0.20328  0.83229  0.27355  1.0000
  C   C130      1.0  0.21523  0.82111  0.29339  1.0000
  C   C131      1.0  0.21245  0.75376  0.02196  1.0000
  H   H142      1.0  0.15717  0.66762  0.19980  1.0000
  H   H143      1.0  0.23320  0.71673  0.05112  1.0000
  C   C132      1.0  0.21525  0.85054  0.26002  1.0000
  H   H144      1.0  0.20610  0.80709  0.30402  1.0000
  Fe  Fe18      1.0  0.09212  0.65958  0.49104  1.0000
  C   C133      1.0  0.17093  0.66724  0.18531  1.0000
  H   H145      1.0  0.20616  0.85913  0.24456  1.0000
  C   C134      1.0  0.15967  0.71808  0.37745  1.0000
  C   C135      1.0  0.15753  0.69527  0.36618  1.0000
  C   C136      1.0  0.15590  0.67378  0.38057  1.0000
  C   C137      1.0  0.15571  0.67499  0.40628  1.0000
  C   C138      1.0  0.15731  0.69784  0.41753  1.0000
  C   C139      1.0  0.15966  0.71924  0.40316  1.0000
  H   H146      1.0  0.15757  0.69417  0.34640  1.0000
  H   H147      1.0  0.15478  0.65616  0.37173  1.0000
  H   H148      1.0  0.15742  0.69897  0.43730  1.0000
  H   H149      1.0  0.16140  0.73680  0.41202  1.0000
  S   S39       1.0  0.15201  0.62057  0.49132  1.0000
  H   H150      1.0  0.21207  0.72040  0.07601  1.0000
  C   C140      1.0  0.17343  0.87237  0.31192  1.0000
  C   C141      1.0  0.01957  0.77113  0.28775  1.0000
  C   C142      1.0  0.04205  0.76058  0.28011  1.0000
  C   C143      1.0  0.04237  0.74446  0.26031  1.0000
  H   H151      1.0  0.01919  0.78387  0.30283  1.0000
  H   H152      1.0  0.05952  0.73620  0.25423  1.0000
  C   C144      1.0  0.20343  0.73688  0.16588  1.0000
  C   C145      1.0  0.21731  0.72043  0.18007  1.0000
  C   C146      1.0  0.20857  0.71256  0.20305  1.0000
  C   C147      1.0  0.18600  0.72128  0.21219  1.0000
  C   C148      1.0  0.17235  0.73825  0.19831  1.0000
  C   C149      1.0  0.18095  0.74584  0.17511  1.0000
  C   C150      1.0  0.08435  0.68941  0.41476  1.0000
  H   H153      1.0  0.21908  0.69936  0.21368  1.0000
  H   H154      1.0  0.15481  0.74494  0.20512  1.0000
  H   H155      1.0  0.17006  0.75858  0.16427  1.0000
  H   H156      1.0  0.15021  0.69154  0.16188  1.0000
  H   H157      1.0  0.22734  0.76097  0.08193  1.0000
  S   S40       1.0  0.12882  0.67735  0.48844  1.0000
  H   H158      1.0  0.22957  0.91158  0.25567  1.0000
  H   H159      1.0  0.18238  0.69298  0.12976  1.0000
  H   H160      1.0  0.02424  0.70487  0.42092  1.0000
  H   H161      1.0  0.22990  0.96700  0.29553  1.0000
  H   H162      1.0  0.16084  0.85769  0.31602  1.0000
  H   H163      1.0  0.12924  0.57627  0.45231  1.0000
  C   C151      1.0  0.19667  0.87203  0.32215  1.0000
  N   N8        1.0  0.15975  0.57055  0.42754  1.0000
  H   H164      1.0  0.16468  0.59884  0.40014  1.0000
  C   C152      1.0  0.19305  0.65437  0.18875  1.0000
  C   C153      1.0  0.25039  0.92316  0.29975  1.0000
  H   H165      1.0  0.20707  0.77778  0.20501  1.0000
  C   C154      1.0  0.18512  0.68156  0.14588  1.0000
  C   C155      1.0  0.18537  0.75672  0.05747  1.0000
  C   C156      1.0  0.17705  0.58165  0.44488  1.0000
  H   H166      1.0  0.23512  0.63815  0.21359  1.0000
  C   C157      1.0  0.22851  0.76394  0.06172  1.0000
  H   H167      1.0  0.24458  0.63715  0.13571  1.0000
  C   C158      1.0  0.21920  0.73501  0.00507  1.0000
  H   H168      1.0  0.12289  0.53642  0.43931  1.0000
  N   N9        1.0  0.21021  0.74928  0.04869  1.0000
  S   S41       1.0  0.05706  0.68169  0.48803  1.0000
  N   N10       1.0  0.24270  0.78429  0.22050  1.0000
  H   H169      1.0  0.20199  0.85709  0.33435  1.0000
  C   C159      1.0  0.00807  0.67409  0.49509  1.0000
  H   H170      1.0  0.19857  0.95792  0.29411  1.0000
  H   H171      1.0  0.13433  0.60109  0.43160  1.0000
  C   C160      1.0  0.03195  0.66669  0.50114  1.0000
  H   H172      1.0  0.23682  0.83053  0.14835  1.0000
  C   C161      1.0  0.18327  0.90946  0.28954  1.0000
  H   H173      1.0  0.15408  0.57010  0.38864  1.0000
  H   H174      1.0  0.18285  0.75265  0.07740  1.0000
  H   H175      1.0  0.01411  0.55182  0.45999  1.0000
  H   H176      1.0  0.19502  0.64495  0.20610  1.0000
  H   H177      1.0  0.02072  0.72607  0.23335  1.0000
  H   H178      1.0  0.24793  0.87155  0.25559  1.0000
  H   H179      1.0  0.23446  0.71328  0.17305  1.0000
  C   C162      1.0  0.14003  0.54110  0.49775  1.0000
  H   H180      1.0  0.22332  0.61257  0.19656  1.0000
  H   H181      1.0  0.22883  0.79403  0.17306  1.0000
  C   C163      1.0  0.16632  0.57848  0.40231  1.0000
  H   H182      1.0  0.17334  0.57535  0.46399  1.0000
  C   C164      1.0  0.22613  0.92992  0.26393  1.0000
  H   H183      1.0  0.17708  0.92366  0.27704  1.0000
  H   H184      1.0  0.24096  0.94224  0.25745  1.0000
  N   N11       1.0  0.08299  0.74484  0.37189  1.0000
  C   C165      1.0  0.09457  0.73342  0.35000  1.0000
  C   C166      1.0  0.06303  0.76148  0.36307  1.0000
  C   C167      1.0  0.10131  0.76018  0.38413  1.0000
  C   C168      1.0  0.07461  0.72548  0.38906  1.0000
  C   C169      1.0  0.04999  0.72397  0.39762  1.0000
  C   C170      1.0  0.09150  0.70759  0.39814  1.0000
  C   C171      1.0  0.04299  0.70565  0.41428  1.0000
  H   H185      1.0  0.23157  0.88788  0.32363  1.0000
  C   C172      1.0  0.23865  0.80880  0.18144  1.0000
  H   H186      1.0  0.10012  0.74754  0.33633  1.0000
  H   H187      1.0  0.11156  0.72284  0.35437  1.0000
  H   H188      1.0  0.08180  0.72090  0.34072  1.0000
  H   H189      1.0  0.04904  0.75122  0.35279  1.0000
  H   H190      1.0  0.07013  0.77560  0.35002  1.0000
  H   H191      1.0  0.05411  0.77172  0.37836  1.0000
  H   H192      1.0  0.11750  0.74927  0.39030  1.0000
  H   H193      1.0  0.10865  0.77455  0.37153  1.0000
  H   H194      1.0  0.09336  0.76935  0.40058  1.0000
  H   H195      1.0  0.03584  0.73676  0.39187  1.0000
  H   H196      1.0  0.11050  0.70763  0.39259  1.0000
  Fe  Fe19      1.0  0.11340  0.60719  0.49317  1.0000
  C   C173      1.0  0.21359  0.88998  0.31571  1.0000
  H   H197      1.0  0.20095  0.71101  0.04687  1.0000
  H   H198      1.0  0.18173  0.77673  0.05528  1.0000
  H   H199      1.0  0.21586  0.95169  0.32131  1.0000
  H   H200      1.0  0.20044  0.54087  0.42080  1.0000
  N   N12       1.0  0.22506  0.92814  0.29109  1.0000
  C   C174      1.0  0.20748  0.90911  0.29883  1.0000
  C   C175      1.0  0.21424  0.72317  0.05586  1.0000
  H   H201      1.0  0.12097  0.57395  0.42036  1.0000
  H   H202      1.0  0.20901  0.93760  0.25593  1.0000
  H   H203      1.0  0.17098  0.74689  0.04732  1.0000
  C   C176      1.0  0.02034  0.73874  0.24851  1.0000
  C   C177      1.0  0.14087  0.52871  0.43549  1.0000
  C   C178      1.0  0.24706  0.80686  0.20595  1.0000
  C   C179      1.0  0.24299  0.82968  0.16714  1.0000
  C   C180      1.0  0.21202  0.65482  0.17070  1.0000
  H   H204      1.0  0.14864  0.89106  0.28762  1.0000
  H   H205      1.0  0.22606  0.78397  0.05851  1.0000
  C   C181      1.0  0.16700  0.68084  0.16397  1.0000
  H   H206      1.0  0.24746  0.75885  0.05565  1.0000
  H   H207      1.0  0.17561  0.60209  0.44458  1.0000
  C   C182      1.0  0.16668  0.89112  0.29576  1.0000
  H   H208      1.0  0.19648  0.57708  0.44053  1.0000
  C   C183      1.0  0.23878  0.82872  0.29999  1.0000
  H   H209      1.0  0.18551  0.57343  0.39731  1.0000
  C   C184      1.0  0.20735  0.66886  0.14915  1.0000
  C   C185      1.0  0.13495  0.58074  0.43320  1.0000
  H   H210      1.0  0.00511  0.68887  0.48204  1.0000
  C   C186      1.0  0.24225  0.62659  0.15305  1.0000
  H   H211      1.0  0.21176  0.76387  0.23426  1.0000
  C   C187      1.0  0.21695  0.95224  0.30094  1.0000
  C   C188      1.0  0.23748  0.62701  0.19668  1.0000
  N   N13       1.0  0.23619  0.64258  0.17425  1.0000
  C   C189      1.0  0.20817  0.77765  0.01212  1.0000
  H   H212      1.0  0.08257  0.51924  0.49189  1.0000
  C   C190      1.0  0.06013  0.68843  0.42280  1.0000
  H   H213      1.0  0.22382  0.71650  0.01076  1.0000
  H   H214      1.0  0.20354  0.79295  0.02384  1.0000
  H   H215      1.0  0.24452  0.80033  0.25631  1.0000
  H   H216      1.0  0.22776  0.61285  0.15015  1.0000
  H   H217      1.0  0.04371  0.57368  0.48633  1.0000
  N   N14       1.0  0.00693  0.56359  0.49687  1.0000
  H   H218      1.0  0.24772  0.82040  0.31567  1.0000
  C   C191      1.0  0.10219  0.51917  0.49414  1.0000
  C   C192      1.0  0.11453  0.54146  0.49539  1.0000
  H   H219      1.0  0.02294  0.59911  0.49003  1.0000
  H   H220      1.0  0.25156  0.74559  0.21837  1.0000
  H   H221      1.0  0.25154  0.92340  0.32007  1.0000
  C   C193      1.0  0.02790  0.58060  0.49750  1.0000
  H   H222      1.0  0.25145  0.67392  0.19189  1.0000
  C   C194      1.0  0.18637  0.50547  0.42832  1.0000
  H   H223      1.0  0.17276  0.51826  0.50003  1.0000
  H   H224      1.0  0.14970  0.55816  0.49899  1.0000
  C   C195      1.0  0.15302  0.51849  0.49855  1.0000
  Fe  Fe20      1.0  0.25231  0.73545  0.12544  1.0000
  Fe  Fe21      1.0  0.13934  0.65001  0.51789  1.0000
  S   S42       1.0  0.20384  0.75156  0.83886  1.0000
  H   H225      1.0  0.07778  0.72313  0.58479  1.0000
  S   S43       1.0  0.15723  0.65751  0.55438  1.0000
  C   C196      1.0  0.02883  0.75835  0.61050  1.0000
  Fe  Fe22      1.0  0.14025  0.75993  0.65582  1.0000
  S   S44       1.0  0.12540  0.79684  0.66698  1.0000
  S   S45       1.0  0.13689  0.75546  0.61461  1.0000
  Fe  Fe23      1.0  0.14921  0.74598  0.70899  1.0000
  S   S46       1.0  0.13329  0.78126  0.72352  1.0000
  S   S47       1.0  0.16932  0.71876  0.73358  1.0000
  Fe  Fe24      1.0  0.10366  0.77681  0.69559  1.0000
  S   S48       1.0  0.06520  0.79407  0.69575  1.0000
  Fe  Fe25      1.0  0.15600  0.79849  0.69381  1.0000
  S   S49       1.0  0.17473  0.83259  0.70741  1.0000
  S   S50       1.0  0.11740  0.73954  0.68343  1.0000
  S   S51       1.0  0.17315  0.76347  0.68019  1.0000
  H   H226      1.0  0.19923  0.80560  0.77498  1.0000
  H   H227      1.0  0.09457  0.85189  0.71749  1.0000
  C   C197      1.0  0.20356  0.84255  0.69678  1.0000
  C   C198      1.0  0.21491  0.86150  0.70939  1.0000
  H   H228      1.0  0.00917  0.73388  0.73326  1.0000
  H   H229      1.0  0.23427  0.78203  0.79048  1.0000
  H   H230      1.0  0.10008  0.70142  0.59554  1.0000
  C   C199      1.0  0.21501  0.83269  0.67596  1.0000
  H   H231      1.0  0.20603  0.86946  0.72531  1.0000
  C   C200      1.0  0.24577  0.79840  0.78722  1.0000
  H   H232      1.0  0.15404  0.69246  0.79755  1.0000
  H   H233      1.0  0.20631  0.81818  0.66602  1.0000
  H   H234      1.0  0.21216  0.63332  0.85172  1.0000
  H   H235      1.0  0.18768  0.87085  0.64392  1.0000
  H   H236      1.0  0.13418  0.90349  0.70181  1.0000
  C   C201      1.0  0.15220  0.68506  0.57083  1.0000
  C   C202      1.0  0.15559  0.68509  0.59632  1.0000
  C   C203      1.0  0.15124  0.70657  0.61003  1.0000
  C   C204      1.0  0.14366  0.72825  0.59827  1.0000
  C   C205      1.0  0.14049  0.72828  0.57276  1.0000
  C   C206      1.0  0.14481  0.70683  0.55908  1.0000
  H   H237      1.0  0.16153  0.66839  0.60552  1.0000
  H   H238      1.0  0.15378  0.70634  0.62966  1.0000
  H   H239      1.0  0.13479  0.74502  0.56350  1.0000
  H   H240      1.0  0.14258  0.70716  0.53942  1.0000
  H   H241      1.0  0.01647  0.81131  0.68599  1.0000
  C   C207      1.0  0.03633  0.78133  0.70309  1.0000
  C   C208      1.0  0.03410  0.75932  0.71622  1.0000
  C   C209      1.0  0.23778  0.87022  0.70164  1.0000
  H   H242      1.0  0.05039  0.74930  0.72189  1.0000
  H   H243      1.0  0.11560  0.88940  0.72500  1.0000
  C   C210      1.0  0.21667  0.76358  0.97094  1.0000
  C   C211      1.0  0.19618  0.74443  0.80837  1.0000
  C   C212      1.0  0.17359  0.75284  0.79923  1.0000
  C   C213      1.0  0.16582  0.74603  0.77582  1.0000
  C   C214      1.0  0.18033  0.73020  0.76153  1.0000
  C   C215      1.0  0.20321  0.72217  0.77042  1.0000
  C   C216      1.0  0.21133  0.72965  0.79358  1.0000
  H   H244      1.0  0.16176  0.76431  0.81053  1.0000
  H   H245      1.0  0.14808  0.75213  0.76931  1.0000
  H   H246      1.0  0.21452  0.70988  0.75948  1.0000
  H   H247      1.0  0.20750  0.80087  0.97988  1.0000
  N   N15       1.0  0.07159  0.68573  0.57401  1.0000
  H   H248      1.0  0.12136  0.83664  0.70536  1.0000
  H   H249      1.0  0.07226  0.64631  0.57091  1.0000
  H   H250      1.0  0.07983  0.87763  0.67039  1.0000
  S   S52       1.0  0.10199  0.63415  0.52198  1.0000
  H   H251      1.0  0.16410  0.88180  0.67990  1.0000
  H   H252      1.0  0.12490  0.83855  0.61160  1.0000
  C   C217      1.0  0.01567  0.63628  0.52921  1.0000
  C   C218      1.0  0.05219  0.74483  0.65396  1.0000
  H   H253      1.0  0.09376  0.83848  0.68794  1.0000
  H   H254      1.0  0.20959  0.83388  0.78679  1.0000
  C   C219      1.0  0.20998  0.64806  0.79149  1.0000
  C   C220      1.0  0.16830  0.86678  0.64461  1.0000
  H   H255      1.0  0.07546  0.67948  0.53537  1.0000
  H   H256      1.0  0.09801  0.90462  0.67305  1.0000
  C   C221      1.0  0.08454  0.68951  0.55024  1.0000
  H   H257      1.0  0.23953  0.68032  0.86402  1.0000
  H   H258      1.0  0.14334  0.87447  0.71560  1.0000
  H   H259      1.0  0.25086  0.68538  0.80803  1.0000
  H   H260      1.0  0.24537  0.80896  0.80459  1.0000
  C   C222      1.0  0.03562  0.64757  0.51798  1.0000
  H   H261      1.0  0.08122  0.89278  0.69901  1.0000
  H   H262      1.0  0.24441  0.63731  0.85671  1.0000
  H   H263      1.0  0.05135  0.54441  0.51610  1.0000
  C   C223      1.0  0.03619  0.53193  0.51596  1.0000
  H   H264      1.0  0.15892  0.66683  0.76077  1.0000
  N   N16       1.0  0.23711  0.81356  0.76620  1.0000
  H   H265      1.0  0.10384  0.68274  0.55064  1.0000
  C   C224      1.0  0.15767  0.85448  0.62528  1.0000
  C   C225      1.0  0.08020  0.70403  0.59173  1.0000
  H   H266      1.0  0.10000  0.84915  0.64744  1.0000
  C   C226      1.0  0.07885  0.66093  0.58325  1.0000
  C   C227      1.0  0.04481  0.68900  0.57072  1.0000
  C   C228      1.0  0.02754  0.67179  0.57969  1.0000
  C   C229      1.0  0.03529  0.70985  0.55800  1.0000
  C   C230      1.0  0.19225  0.64924  0.77317  1.0000
  C   C231      1.0  0.25189  0.66794  0.81872  1.0000
  H   H267      1.0  0.01868  0.62192  0.54270  1.0000
  H   H268      1.0  0.09919  0.65858  0.58422  1.0000
  H   H269      1.0  0.07191  0.65756  0.60217  1.0000
  H   H270      1.0  0.08535  0.70910  0.54456  1.0000
  H   H271      1.0  0.03294  0.65542  0.58964  1.0000
  C   C232      1.0  0.01069  0.75066  0.72269  1.0000
  C   C233      1.0  0.01494  0.79422  0.69606  1.0000
  H   H272      1.0  0.04728  0.72383  0.55093  1.0000
  C   C234      1.0  0.18711  0.67877  0.81455  1.0000
  N   N17       1.0  0.11409  0.87224  0.68947  1.0000
  C   C235      1.0  0.12744  0.88555  0.70872  1.0000
  C   C236      1.0  0.09238  0.88749  0.68265  1.0000
  C   C237      1.0  0.10557  0.84889  0.70048  1.0000
  C   C238      1.0  0.12920  0.86694  0.66736  1.0000
  C   C239      1.0  0.11886  0.85482  0.64708  1.0000
  C   C240      1.0  0.15436  0.87307  0.66533  1.0000
  C   C241      1.0  0.13297  0.84862  0.62645  1.0000
  H   H273      1.0  0.06123  0.74019  0.67103  1.0000
  H   H274      1.0  0.22886  0.72331  0.80030  1.0000
  C   C242      1.0  0.16941  0.67961  0.79621  1.0000
  N   N18       1.0  0.22807  0.66272  0.83086  1.0000
  H   H275      1.0  0.08511  0.75820  0.63693  1.0000
  C   C243      1.0  0.06565  0.75511  0.63482  1.0000
  H   H276      1.0  0.19433  0.63816  0.75686  1.0000
  H   H277      1.0  0.02103  0.76405  0.59325  1.0000
  H   H278      1.0  0.05375  0.64175  0.52285  1.0000
  C   C244      1.0  0.21030  0.78241  0.98699  1.0000
  C   C245      1.0  0.23773  0.84182  0.66787  1.0000
  H   H279      1.0  0.07020  0.70260  0.60952  1.0000
  C   C246      1.0  0.02700  0.74146  0.65164  1.0000
  H   H280      1.0  0.24634  0.84851  0.75000  1.0000
  H   H281      1.0  0.25030  0.84695  0.78230  1.0000
  S   S53       1.0  0.24873  0.72636  0.89089  1.0000
  H   H282      1.0  0.16872  0.84910  0.60955  1.0000
  H   H283      1.0  0.22340  0.70006  0.84316  1.0000
  H   H284      1.0  0.03425  0.58352  0.51655  1.0000
  H   H285      1.0  0.21903  0.76744  0.95153  1.0000
  H   H286      1.0  0.06467  0.76996  0.59841  1.0000
  H   H287      1.0  0.01733  0.73392  0.66727  1.0000
  C   C247      1.0  0.20826  0.66321  0.81251  1.0000
  H   H288      1.0  0.21259  0.77151  0.75594  1.0000
  C   C248      1.0  0.17214  0.66517  0.77543  1.0000
  H   H289      1.0  0.21397  0.74726  0.71867  1.0000
  H   H290      1.0  0.23429  0.62344  0.82917  1.0000
  C   C249      1.0  0.22454  0.77743  0.74128  1.0000
  H   H291      1.0  0.18419  0.69127  0.82960  1.0000
  C   C250      1.0  0.21129  0.82135  0.77085  1.0000
  C   C251      1.0  0.22106  0.73996  0.97995  1.0000
  H   H292      1.0  0.22533  0.63555  0.78883  1.0000
  H   H293      1.0  0.22687  0.72559  0.96742  1.0000
  C   C252      1.0  0.22976  0.63811  0.84257  1.0000
  C   C253      1.0  0.01446  0.74832  0.62992  1.0000
  H   H294      1.0  0.24636  0.88471  0.71164  1.0000
  H   H295      1.0  0.20353  0.83107  0.75456  1.0000
  C   C254      1.0  0.23862  0.79890  0.74350  1.0000
  H   H296      1.0  0.20731  0.67756  0.86143  1.0000
  C   C255      1.0  0.05402  0.76178  0.61312  1.0000
  C   C256      1.0  0.01260  0.53891  0.50716  1.0000
  C   C257      1.0  0.22430  0.68100  0.85064  1.0000
  Fe  Fe26      1.0  0.24154  0.74558  0.85498  1.0000
  C   C258      1.0  0.22525  0.76338  0.71999  1.0000
  C   C259      1.0  0.24929  0.86048  0.68082  1.0000
  H   H297      1.0  0.24645  0.83424  0.65168  1.0000
  C   C260      1.0  0.04100  0.50814  0.52478  1.0000
  C   C261      1.0  0.24001  0.77027  0.70028  1.0000
  C   C262      1.0  0.01027  0.71244  0.55310  1.0000
  H   H298      1.0  0.24014  0.75958  0.68364  1.0000
  C   C263      1.0  0.25209  0.83605  0.76520  1.0000
  H   H299      1.0  0.00361  0.72776  0.54209  1.0000
  Fe  Fe27      1.0  0.29375  0.33230  0.08632  1.0000
  S   S54       1.0  0.33070  0.32778  0.10379  1.0000
  S   S55       1.0  0.28627  0.34617  0.04736  1.0000
  C   C264      1.0  0.26623  0.23472  0.26776  1.0000
  S   S56       1.0  0.30166  0.32159  0.15676  1.0000
  Fe  Fe28      1.0  0.31575  0.35238  0.13328  1.0000
  S   S57       1.0  0.34197  0.37915  0.14970  1.0000
  Fe  Fe29      1.0  0.31396  0.29725  0.12602  1.0000
  S   S58       1.0  0.33666  0.26386  0.13711  1.0000
  H   H300      1.0  0.29305  0.25431  0.20191  1.0000
  S   S59       1.0  0.27816  0.29938  0.10598  1.0000
  H   H301      1.0  0.34842  0.07932  0.31533  1.0000
  S   S60       1.0  0.35064  0.48623  0.10470  1.0000
  C   C265      1.0  0.36749  0.41060  0.01843  1.0000
  Fe  Fe30      1.0  0.30889  0.16430  0.23582  1.0000
  S   S61       1.0  0.31535  0.18423  0.27073  1.0000
  S   S62       1.0  0.28900  0.18153  0.20364  1.0000
  Fe  Fe31      1.0  0.32393  0.11454  0.25786  1.0000
  S   S63       1.0  0.33055  0.13045  0.29511  1.0000
  S   S64       1.0  0.33621  0.07639  0.24578  1.0000
  Fe  Fe32      1.0  0.29596  0.15282  0.28843  1.0000
  Fe  Fe33      1.0  0.34940  0.16059  0.27458  1.0000
  S   S65       1.0  0.38456  0.17689  0.28845  1.0000
  S   S66       1.0  0.28752  0.13385  0.25331  1.0000
  S   S67       1.0  0.34489  0.14375  0.23753  1.0000
  C   C266      1.0  0.35330  0.14116  0.16397  1.0000
  S   S68       1.0  0.46787  0.10855  0.33472  1.0000
  H   H302      1.0  0.35448  0.01674  0.28762  1.0000
  C   C267      1.0  0.40637  0.15735  0.30282  1.0000
  C   C268      1.0  0.42205  0.16681  0.32054  1.0000
  C   C269      1.0  0.44046  0.15188  0.33123  1.0000
  C   C270      1.0  0.44378  0.12758  0.32365  1.0000
  C   C271      1.0  0.42831  0.11827  0.30568  1.0000
  C   C272      1.0  0.40946  0.13294  0.29557  1.0000
  H   H303      1.0  0.41985  0.18575  0.32609  1.0000
  H   H304      1.0  0.45226  0.15930  0.34503  1.0000
  H   H305      1.0  0.43125  0.09975  0.29920  1.0000
  H   H306      1.0  0.39787  0.12572  0.28150  1.0000
  H   H307      1.0  0.30098  0.07833  0.15874  1.0000
  C   C273      1.0  0.32247  0.17196  0.13651  1.0000
  H   H308      1.0  0.47939  0.15644  0.50024  1.0000
  H   H309      1.0  0.32836  0.24888  0.22950  1.0000
  H   H310      1.0  0.36266  0.47719  0.04289  1.0000
  N   N19       1.0  0.31855  0.11113  0.17107  1.0000
  C   C274      1.0  0.33236  0.02653  0.24265  1.0000
  C   C275      1.0  0.32069  0.04844  0.25015  1.0000
  C   C276      1.0  0.29746  0.04745  0.26106  1.0000
  C   C277      1.0  0.28594  0.02467  0.26420  1.0000
  H   H311      1.0  0.28829  0.06418  0.26696  1.0000
  H   H312      1.0  0.26787  0.02404  0.27245  1.0000
  C   C278      1.0  0.34358  0.40949  0.13853  1.0000
  C   C279      1.0  0.32393  0.42057  0.12619  1.0000
  C   C280      1.0  0.32613  0.44446  0.11660  1.0000
  C   C281      1.0  0.34809  0.45721  0.11887  1.0000
  C   C282      1.0  0.36767  0.44624  0.13140  1.0000
  C   C283      1.0  0.36530  0.42252  0.14143  1.0000
  H   H313      1.0  0.30704  0.41077  0.12414  1.0000
  H   H314      1.0  0.31085  0.45299  0.10712  1.0000
  H   H315      1.0  0.38464  0.45595  0.13328  1.0000
  H   H316      1.0  0.38053  0.41405  0.15105  1.0000
  C   C284      1.0  0.32305  0.24169  0.15619  1.0000
  C   C285      1.0  0.29867  0.23515  0.15304  1.0000
  C   C286      1.0  0.28850  0.21657  0.16770  1.0000
  C   C287      1.0  0.30249  0.20477  0.18587  1.0000
  C   C288      1.0  0.32676  0.21157  0.18934  1.0000
  C   C289      1.0  0.33709  0.22982  0.17432  1.0000
  H   H317      1.0  0.28791  0.24393  0.13880  1.0000
  H   H318      1.0  0.32906  0.07822  0.19119  1.0000
  H   H319      1.0  0.33771  0.20240  0.20319  1.0000
  H   H320      1.0  0.35603  0.23471  0.17666  1.0000
  H   H321      1.0  0.34201  0.27716  0.22202  1.0000
  H   H322      1.0  0.28859  0.31717  0.22560  1.0000
  H   H323      1.0  0.35345  0.19548  0.13260  1.0000
  H   H324      1.0  0.38081  0.16835  0.15696  1.0000
  H   H325      1.0  0.32298  0.30936  0.03157  1.0000
  N   N20       1.0  0.34676  0.39436  0.05721  1.0000
  C   C290      1.0  0.32071  0.39917  0.06391  1.0000
  C   C291      1.0  0.34804  0.36991  0.04534  1.0000
  C   C292      1.0  0.36142  0.39274  0.07990  1.0000
  C   C293      1.0  0.35606  0.41460  0.04161  1.0000
  H   H326      1.0  0.31042  0.18436  0.12643  1.0000
  H   H327      1.0  0.27780  0.28374  0.19965  1.0000
  H   H328      1.0  0.36610  0.13040  0.17472  1.0000
  H   H329      1.0  0.33313  0.27084  0.25330  1.0000
  H   H330      1.0  0.26853  0.30526  0.25953  1.0000
  H   H331      1.0  0.30901  0.40047  0.04735  1.0000
  H   H332      1.0  0.31321  0.38423  0.07568  1.0000
  H   H333      1.0  0.31795  0.41630  0.07446  1.0000
  H   H334      1.0  0.34017  0.35538  0.05738  1.0000
  H   H335      1.0  0.36724  0.36394  0.04134  1.0000
  H   H336      1.0  0.33711  0.36971  0.02825  1.0000
  H   H337      1.0  0.36108  0.41026  0.09011  1.0000
  H   H338      1.0  0.35446  0.37846  0.09281  1.0000
  H   H339      1.0  0.38099  0.38831  0.07582  1.0000
  H   H340      1.0  0.31097  0.31291  0.24962  1.0000
  C   C294      1.0  0.29543  0.27430  0.20432  1.0000
  S   S69       1.0  0.42166  0.49428  0.08968  1.0000
  H   H341      1.0  0.49412  0.15782  0.32135  1.0000
  H   H342      1.0  0.32009  0.31391  0.21794  1.0000
  C   C295      1.0  0.29917  0.11750  0.18923  1.0000
  C   C296      1.0  0.36208  0.16301  0.15382  1.0000
  H   H343      1.0  0.30642  0.12980  0.20342  1.0000
  H   H344      1.0  0.34691  0.44376  0.06763  1.0000
  H   H345      1.0  0.29424  0.14669  0.14420  1.0000
  C   C297      1.0  0.39257  0.06854  0.32831  1.0000
  H   H346      1.0  0.29169  0.10547  0.14281  1.0000
  C   C298      1.0  0.35256  0.05929  0.31384  1.0000
  C   C299      1.0  0.35467  0.43923  0.04991  1.0000
  N   N21       1.0  0.30305  0.28012  0.22950  1.0000
  C   C300      1.0  0.32761  0.26877  0.23385  1.0000
  C   C301      1.0  0.49055  0.20266  0.24178  1.0000
  H   H347      1.0  0.32145  0.09214  0.13678  1.0000
  C   C302      1.0  0.28490  0.27021  0.24718  1.0000
  S   S70       1.0  0.26805  0.16410  0.31714  1.0000
  C   C303      1.0  0.28259  0.24443  0.25051  1.0000
  C   C304      1.0  0.38621  0.06323  0.28523  1.0000
  C   C305      1.0  0.49723  0.48474  0.07942  1.0000
  H   H348      1.0  0.35231  0.08979  0.17106  1.0000
  H   H349      1.0  0.34578  0.05021  0.33086  1.0000
  C   C306      1.0  0.32864  0.13401  0.16050  1.0000
  H   H350      1.0  0.28333  0.12744  0.18088  1.0000
  H   H351      1.0  0.48938  0.08995  0.49764  1.0000
  C   C307      1.0  0.26878  0.28551  0.26116  1.0000
  H   H352      1.0  0.26528  0.21500  0.27063  1.0000
  H   H353      1.0  0.29195  0.10096  0.19880  1.0000
  C   C308      1.0  0.36379  0.45862  0.03585  1.0000
  H   H354      1.0  0.38723  0.08839  0.32774  1.0000
  H   H355      1.0  0.41271  0.06807  0.32499  1.0000
  H   H356      1.0  0.29356  0.23149  0.23997  1.0000
  H   H357      1.0  0.34119  0.05318  0.29834  1.0000
  C   C309      1.0  0.46581  0.19706  0.24400  1.0000
  H   H358      1.0  0.34496  0.10477  0.19976  1.0000
  H   H359      1.0  0.45230  0.20674  0.23295  1.0000
  C   C310      1.0  0.31343  0.15028  0.14670  1.0000
  H   H360      1.0  0.37670  0.05320  0.27052  1.0000
  S   S71       1.0  0.27975  0.35914  0.11476  1.0000
  H   H361      1.0  0.35035  0.02709  0.23422  1.0000
  C   C311      1.0  0.30771  0.09618  0.15148  1.0000
  H   H362      1.0  0.26978  0.21119  0.16478  1.0000
  N   N22       1.0  0.37915  0.05415  0.30988  1.0000
  H   H363      1.0  0.43908  0.17494  0.26255  1.0000
  C   C312      1.0  0.40522  0.01742  0.32379  1.0000
  C   C313      1.0  0.30573  0.30718  0.23089  1.0000
  C   C314      1.0  0.33713  0.09539  0.18367  1.0000
  C   C315      1.0  0.37645  0.43018  0.00441  1.0000
  H   H364      1.0  0.49621  0.21672  0.22885  1.0000
  C   C316      1.0  0.34674  0.17831  0.14003  1.0000
  C   C317      1.0  0.36994  0.01058  0.29834  1.0000
  H   H365      1.0  0.30937  0.28005  0.19049  1.0000
  H   H366      1.0  0.36996  0.39251  0.01092  1.0000
  H   H367      1.0  0.38136  0.08304  0.28278  1.0000
  H   H368      1.0  0.46900  0.15301  0.28769  1.0000
  C   C318      1.0  0.45840  0.17910  0.26060  1.0000
  H   H369      1.0  0.40624  0.06081  0.28185  1.0000
  C   C319      1.0  0.29392  0.33310  0.01855  1.0000
  H   H370      1.0  0.38883  0.06173  0.34723  1.0000
  C   C320      1.0  0.31304  0.31591  0.01569  1.0000
  H   H371      1.0  0.41787  0.02871  0.33350  1.0000
  C   C321      1.0  0.38456  0.02741  0.31122  1.0000
  C   C322      1.0  0.37460  0.45413  0.01310  1.0000
  Fe  Fe34      1.0  0.26695  0.32593  0.13563  1.0000
  H   H372      1.0  0.48272  0.47510  0.08895  1.0000
  C   C323      1.0  0.49858  0.15111  0.50018  1.0000
  C   C324      1.0  0.47568  0.16668  0.27502  1.0000
  Fe  Fe35      1.0  0.49611  0.11885  0.36302  1.0000
  S   S72       1.0  0.49887  0.09897  0.39919  1.0000
  S   S73       1.0  0.49383  0.14788  0.45034  1.0000
  H   H373      1.0  0.25636  0.33977  0.19336  1.0000
  H   H374      1.0  0.25456  0.27063  0.15850  1.0000
  H   H375      1.0  0.49942  0.12496  0.29261  1.0000
  C   C325      1.0  0.50099  0.17207  0.27351  1.0000
  S   S74       1.0  0.47297  0.50059  0.13880  1.0000
  H   H376      1.0  0.50220  0.02770  0.33641  1.0000
  C   C326      1.0  0.49149  0.50357  0.06298  1.0000
  Fe  Fe36      1.0  0.31211  0.31399  0.84957  1.0000
  S   S75       1.0  0.29245  0.28913  0.87551  1.0000
  S   S76       1.0  0.33289  0.30021  0.81632  1.0000
  Fe  Fe37      1.0  0.28875  0.35979  0.87210  1.0000
  H   H377      1.0  0.49427  0.20666  0.68244  1.0000
  S   S77       1.0  0.28694  0.40124  0.87362  1.0000
  Fe  Fe38      1.0  0.30062  0.31656  0.90490  1.0000
  S   S78       1.0  0.31692  0.30573  0.94186  1.0000
  C   C327      1.0  0.32733  0.36858  0.80070  1.0000
  S   S79       1.0  0.32385  0.33931  0.87937  1.0000
  S   S80       1.0  0.27900  0.33678  0.83983  1.0000
  H   H378      1.0  0.34281  0.39083  0.90646  1.0000
  S   S81       1.0  0.37981  0.46587  0.85225  1.0000
  C   C328      1.0  0.30550  0.05888  0.71585  1.0000
  Fe  Fe39      1.0  0.31099  0.12245  0.74542  1.0000
  S   S82       1.0  0.32347  0.13419  0.70793  1.0000
  S   S83       1.0  0.29251  0.08694  0.75615  1.0000
  Fe  Fe40      1.0  0.33379  0.16692  0.76991  1.0000
  S   S84       1.0  0.34934  0.18145  0.73464  1.0000
  S   S85       1.0  0.33722  0.18433  0.80708  1.0000
  Fe  Fe41      1.0  0.31234  0.17251  0.71962  1.0000
  Fe  Fe42      1.0  0.35912  0.14227  0.72605  1.0000
  S   S86       1.0  0.39425  0.12541  0.71123  1.0000
  S   S87       1.0  0.29629  0.16008  0.75550  1.0000
  S   S88       1.0  0.34724  0.12840  0.76297  1.0000
  H   H379      1.0  0.34941  0.45869  0.80797  1.0000
  S   S89       1.0  0.46104  0.17832  0.63220  1.0000
  H   H380      1.0  0.34159  0.35168  0.95971  1.0000
  C   C329      1.0  0.46204  0.20912  0.75922  1.0000
  Fe  Fe43      1.0  0.49582  0.15687  0.62328  1.0000
  C   C330      1.0  0.44142  0.16337  0.65310  1.0000
  C   C331      1.0  0.42209  0.17644  0.66444  1.0000
  C   C332      1.0  0.40714  0.16494  0.68210  1.0000
  C   C333      1.0  0.41156  0.14036  0.68846  1.0000
  C   C334      1.0  0.43071  0.12729  0.67696  1.0000
  C   C335      1.0  0.44543  0.13867  0.65919  1.0000
  H   H381      1.0  0.41901  0.19561  0.65989  1.0000
  H   H382      1.0  0.39263  0.17523  0.69121  1.0000
  H   H383      1.0  0.43416  0.10823  0.68173  1.0000
  H   H384      1.0  0.45981  0.12823  0.65012  1.0000
  C   C336      1.0  0.44082  0.19612  0.75478  1.0000
  H   H385      1.0  0.25881  0.29642  0.79795  1.0000
  H   H386      1.0  0.38915  0.08647  0.75085  1.0000
  C   C337      1.0  0.30944  0.03640  0.70376  1.0000
  H   H387      1.0  0.36829  0.38725  0.92722  1.0000
  C   C338      1.0  0.29764  0.05908  0.74029  1.0000
  C   C339      1.0  0.29378  0.03662  0.75248  1.0000
  C   C340      1.0  0.27498  0.23625  0.83702  1.0000
  H   H388      1.0  0.28753  0.03663  0.77134  1.0000
  H   H389      1.0  0.35792  0.01313  0.71249  1.0000
  C   C341      1.0  0.33509  0.26803  0.81380  1.0000
  C   C342      1.0  0.33560  0.25304  0.83468  1.0000
  C   C343      1.0  0.33686  0.22740  0.83233  1.0000
  C   C344      1.0  0.33708  0.21657  0.80912  1.0000
  C   C345      1.0  0.33662  0.23155  0.78820  1.0000
  C   C346      1.0  0.33601  0.25725  0.79056  1.0000
  H   H390      1.0  0.33545  0.26121  0.85266  1.0000
  H   H391      1.0  0.33749  0.21591  0.84858  1.0000
  H   H392      1.0  0.33696  0.22335  0.77023  1.0000
  H   H393      1.0  0.33602  0.26879  0.77436  1.0000
  C   C347      1.0  0.30687  0.31571  0.97125  1.0000
  H   H394      1.0  0.31224  0.44459  0.82867  1.0000
  C   C348      1.0  0.28749  0.33259  0.97419  1.0000
  H   H395      1.0  0.35260  0.45551  0.77510  1.0000
  H   H396      1.0  0.26743  0.24620  0.68394  1.0000
  C   C349      1.0  0.31422  0.41792  0.87111  1.0000
  C   C350      1.0  0.31435  0.44247  0.87871  1.0000
  C   C351      1.0  0.33492  0.45710  0.87422  1.0000
  C   C352      1.0  0.35542  0.44724  0.86201  1.0000
  C   C353      1.0  0.35575  0.42235  0.85563  1.0000
  C   C354      1.0  0.33519  0.40774  0.86002  1.0000
  H   H397      1.0  0.29821  0.45046  0.88738  1.0000
  H   H398      1.0  0.33449  0.47622  0.87936  1.0000
  H   H399      1.0  0.37176  0.41453  0.84663  1.0000
  H   H400      1.0  0.33528  0.38889  0.85400  1.0000
  N   N23       1.0  0.38088  0.05233  0.73315  1.0000
  H   H401      1.0  0.38747  0.38263  0.80220  1.0000
  C   C355      1.0  0.37010  0.06546  0.71183  1.0000
  C   C356      1.0  0.36783  0.38532  0.80056  1.0000
  C   C357      1.0  0.39213  0.02877  0.72499  1.0000
  H   H402      1.0  0.32703  0.37167  0.98081  1.0000
  H   H403      1.0  0.48623  0.17548  0.67756  1.0000
  C   C358      1.0  0.44066  0.17878  0.73621  1.0000
  H   H404      1.0  0.31010  0.45185  0.99670  1.0000
  C   C359      1.0  0.36120  0.04757  0.75144  1.0000
  H   H405      1.0  0.41294  0.07496  0.73152  1.0000
  H   H406      1.0  0.28298  0.27427  0.79728  1.0000
  N   N24       1.0  0.26279  0.27709  0.76337  1.0000
  H   H407      1.0  0.35640  0.05433  0.70229  1.0000
  H   H408      1.0  0.38449  0.07043  0.69819  1.0000
  H   H409      1.0  0.36055  0.08282  0.71740  1.0000
  C   C360      1.0  0.37739  0.01034  0.71476  1.0000
  H   H410      1.0  0.49769  0.03241  0.53302  1.0000
  H   H411      1.0  0.33023  0.47616  0.78790  1.0000
  H   H412      1.0  0.43041  0.03627  0.73395  1.0000
  H   H413      1.0  0.26644  0.35473  0.99969  1.0000
  H   H414      1.0  0.28830  0.19582  0.86512  1.0000
  H   H415      1.0  0.29259  0.42514  0.76720  1.0000
  H   H416      1.0  0.31530  0.03638  0.68478  1.0000
  C   C361      1.0  0.41766  0.02336  0.72673  1.0000
  H   H417      1.0  0.33127  0.48283  0.97123  1.0000
  C   C362      1.0  0.26491  0.21050  0.70103  1.0000
  H   H418      1.0  0.28832  0.43003  0.81263  1.0000
  C   C363      1.0  0.31958  0.30743  0.99213  1.0000
  H   H419      1.0  0.28810  0.24059  0.85177  1.0000
  H   H420      1.0  0.30045  0.45652  0.76275  1.0000
  H   H421      1.0  0.31560  0.35279  0.80221  1.0000
  C   C364      1.0  0.31721  0.39210  0.79718  1.0000
  H   H422      1.0  0.47629  0.02353  0.66399  1.0000
  H   H423      1.0  0.49833  0.14312  0.70610  1.0000
  H   H424      1.0  0.27063  0.18958  0.80017  1.0000
  H   H425      1.0  0.29004  0.24777  0.76464  1.0000
  C   C365      1.0  0.25550  0.23339  0.69315  1.0000
  C   C366      1.0  0.35256  0.36521  0.80251  1.0000
  H   H426      1.0  0.30818  0.07603  0.70620  1.0000
  C   C367      1.0  0.27310  0.28808  0.78579  1.0000
  C   C368      1.0  0.48863  0.08076  0.54332  1.0000
  H   H427      1.0  0.35366  0.42807  0.92022  1.0000
  C   C369      1.0  0.46168  0.17441  0.72197  1.0000
  H   H428      1.0  0.48290  0.07940  0.56295  1.0000
  H   H429      1.0  0.30055  0.39331  0.92260  1.0000
  S   S90       1.0  0.29601  0.20275  0.69584  1.0000
  C   C370      1.0  0.30620  0.01393  0.71611  1.0000
  H   H430      1.0  0.29388  0.46189  0.80770  1.0000
  C   C371      1.0  0.28132  0.34149  0.99766  1.0000
  C   C372      1.0  0.33173  0.46367  0.96594  1.0000
  H   H431      1.0  0.35860  0.37647  0.97201  1.0000
  C   C373      1.0  0.48326  0.20477  0.74519  1.0000
  H   H432      1.0  0.36843  0.03738  0.76764  1.0000
  N   N25       1.0  0.32105  0.43776  0.79103  1.0000
  H   H433      1.0  0.29811  0.27334  0.74560  1.0000
  S   S91       1.0  0.26572  0.33804  0.89873  1.0000
  C   C374      1.0  0.34391  0.45663  0.94454  1.0000
  C   C375      1.0  0.30818  0.43799  0.76724  1.0000
  H   H434      1.0  0.34625  0.03652  0.74389  1.0000
  H   H435      1.0  0.35269  0.47050  0.93324  1.0000
  C   C376      1.0  0.48573  0.00652  0.66895  1.0000
  H   H436      1.0  0.40706  0.06063  0.76114  1.0000
  C   C377      1.0  0.27746  0.19340  0.84817  1.0000
  H   H437      1.0  0.30648  0.36180  0.93095  1.0000
  H   H438      1.0  0.27151  0.28573  0.71297  1.0000
  N   N26       1.0  0.33349  0.16368  0.63999  1.0000
  C   C378      1.0  0.30663  0.16601  0.64437  1.0000
  C   C379      1.0  0.34567  0.18017  0.65744  1.0000
  C   C380      1.0  0.33856  0.17246  0.61470  1.0000
  C   C381      1.0  0.34321  0.13826  0.64291  1.0000
  C   C382      1.0  0.32797  0.11786  0.64793  1.0000
  C   C383      1.0  0.36871  0.13322  0.64033  1.0000
  C   C384      1.0  0.33784  0.09412  0.65058  1.0000
  C   C385      1.0  0.37835  0.10940  0.64287  1.0000
  C   C386      1.0  0.36296  0.08990  0.64801  1.0000
  H   H439      1.0  0.29608  0.15529  0.63096  1.0000
  H   H440      1.0  0.30155  0.15998  0.66326  1.0000
  H   H441      1.0  0.29997  0.18542  0.64279  1.0000
  H   H442      1.0  0.34395  0.17316  0.67655  1.0000
  H   H443      1.0  0.33740  0.19902  0.65722  1.0000
  H   H444      1.0  0.36547  0.18227  0.65334  1.0000
  H   H445      1.0  0.33034  0.16013  0.60097  1.0000
  H   H446      1.0  0.33095  0.19133  0.61158  1.0000
  H   H447      1.0  0.35853  0.17323  0.61061  1.0000
  H   H448      1.0  0.30837  0.11976  0.65030  1.0000
  H   H449      1.0  0.38150  0.14770  0.63646  1.0000
  H   H450      1.0  0.29418  0.38284  0.95307  1.0000
  H   H451      1.0  0.39794  0.10613  0.64102  1.0000
  H   H452      1.0  0.46050  0.16095  0.70760  1.0000
  N   N27       1.0  0.33260  0.38745  0.94457  1.0000
  C   C387      1.0  0.34918  0.38169  0.92357  1.0000
  C   C388      1.0  0.34030  0.37133  0.96527  1.0000
  C   C389      1.0  0.30739  0.38106  0.93753  1.0000
  C   C390      1.0  0.33284  0.41360  0.95179  1.0000
  C   C391      1.0  0.34444  0.43202  0.93738  1.0000
  C   C392      1.0  0.32019  0.42153  0.97324  1.0000
  H   H453      1.0  0.29749  0.39366  0.79607  1.0000
  C   C393      1.0  0.39843  0.06914  0.74470  1.0000
  H   H454      1.0  0.36022  0.34693  0.80554  1.0000
  H   H455      1.0  0.46200  0.22266  0.77367  1.0000
  H   H456      1.0  0.34983  0.36167  0.91960  1.0000
  H   H457      1.0  0.42411  0.16866  0.73281  1.0000
  C   C394      1.0  0.31983  0.44618  0.98023  1.0000
  H   H458      1.0  0.28583  0.23326  0.81991  1.0000
  H   H459      1.0  0.38498  0.42686  0.98671  1.0000
  H   H460      1.0  0.37090  0.42367  0.79603  1.0000
  H   H461      1.0  0.31008  0.40880  0.98455  1.0000
  C   C395      1.0  0.25897  0.29846  0.72182  1.0000
  H   H462      1.0  0.48973  0.01901  0.61879  1.0000
  H   H463      1.0  0.33459  0.29434  0.99006  1.0000
  H   H464      1.0  0.47376  0.07248  0.53253  1.0000
  H   H465      1.0  0.42442  0.19948  0.76572  1.0000
  C   C396      1.0  0.33220  0.41309  0.79530  1.0000
  H   H466      1.0  0.28654  0.30255  0.78106  1.0000
  C   C397      1.0  0.48372  0.18711  0.72612  1.0000
  H   H467      1.0  0.27724  0.33880  0.95840  1.0000
  H   H468      1.0  0.26304  0.25282  0.83424  1.0000
  H   H469      1.0  0.25978  0.22103  0.88261  1.0000
  C   C398      1.0  0.29833  0.01410  0.74055  1.0000
  C   C399      1.0  0.30304  0.44372  0.81072  1.0000
  H   H470      1.0  0.35223  0.06490  0.75803  1.0000
  S   S92       1.0  0.49842  0.12827  0.59399  1.0000
  H   H471      1.0  0.27567  0.25141  0.73591  1.0000
  C   C400      1.0  0.33918  0.45779  0.79041  1.0000
  H   H472      1.0  0.32590  0.07889  0.65472  1.0000
  C   C401      1.0  0.28251  0.26189  0.75177  1.0000
  H   H473      1.0  0.37053  0.07147  0.65001  1.0000
  H   H474      1.0  0.32087  0.43253  0.75206  1.0000
  H   H475      1.0  0.29158  0.19112  0.83352  1.0000
  H   H476      1.0  0.48955  0.10074  0.53889  1.0000
  C   C402      1.0  0.35796  0.40894  0.79690  1.0000
  Fe  Fe44      1.0  0.38366  0.50327  0.86950  1.0000
  N   N28       1.0  0.26041  0.21451  0.84349  1.0000
  H   H477      1.0  0.26737  0.17591  0.84999  1.0000
  Fe  Fe45      1.0  0.25955  0.31279  0.86679  1.0000
  H   H478      1.0  0.25628  0.17609  0.71832  1.0000
  C   C403      1.0  0.50067  0.18730  0.68499  1.0000
  H   H479      1.0  0.49901  0.21547  0.74963  1.0000
  H   H480      1.0  0.50238  0.03991  0.56460  1.0000
  H   H481      1.0  0.25316  0.31766  0.68760  1.0000
  H   H482      1.0  0.50236  0.15507  0.53934  1.0000
  H   H483      1.0  0.38168  0.46923  0.00224  1.0000
  C   C404      1.0  0.25279  0.29663  0.74713  1.0000
  Fe  Fe46      1.0  0.28622  0.73147  0.08026  1.0000
  S   S93       1.0  0.31836  0.71888  0.10319  1.0000
  H   H484      1.0  0.48275  0.89223  0.47801  1.0000
  H   H485      1.0  0.35148  0.62051  0.07351  1.0000
  S   S94       1.0  0.28127  0.72217  0.15122  1.0000
  Fe  Fe47      1.0  0.30538  0.74792  0.13007  1.0000
  S   S95       1.0  0.32937  0.76950  0.15543  1.0000
  Fe  Fe48      1.0  0.29175  0.69450  0.12251  1.0000
  S   S96       1.0  0.29527  0.65335  0.12829  1.0000
  S   S97       1.0  0.27569  0.76279  0.10544  1.0000
  N   N29       1.0  0.46918  0.84355  0.42061  1.0000
  S   S98       1.0  0.50126  0.92407  0.37591  1.0000
  H   H486      1.0  0.25562  0.61746  0.19832  1.0000
  C   C405      1.0  0.47497  0.82890  0.39837  1.0000
  Fe  Fe49      1.0  0.42087  0.53012  0.06949  1.0000
  S   S99       1.0  0.28586  0.72388  0.03922  1.0000
  N   N30       1.0  0.36642  0.59838  0.03065  1.0000
  Fe  Fe50      1.0  0.40336  0.55943  0.11385  1.0000
  S   S100      1.0  0.39915  0.59923  0.12475  1.0000
  S   S101      1.0  0.44046  0.55066  0.09809  1.0000
  Fe  Fe51      1.0  0.31829  0.89512  0.22146  1.0000
  S   S102      1.0  0.33470  0.87312  0.25229  1.0000
  S   S103      1.0  0.31797  0.88227  0.18207  1.0000
  Fe  Fe52      1.0  0.30285  0.93808  0.25523  1.0000
  S   S104      1.0  0.31752  0.91856  0.28851  1.0000
  S   S105      1.0  0.28248  0.97447  0.26067  1.0000
  Fe  Fe53      1.0  0.34996  0.90897  0.26466  1.0000
  S   S106      1.0  0.38911  0.91899  0.27226  1.0000
  Fe  Fe54      1.0  0.30054  0.88475  0.27285  1.0000
  S   S107      1.0  0.33605  0.93035  0.23204  1.0000
  S   S108      1.0  0.28338  0.90498  0.24134  1.0000
  H   H487      1.0  0.35741  0.56042  0.03676  1.0000
  S   S109      1.0  0.46250  0.87092  0.34937  1.0000
  H   H488      1.0  0.36383  0.97284  0.28861  1.0000
  C   C406      1.0  0.44501  0.83543  0.43008  1.0000
  H   H489      1.0  0.48736  0.54505  0.11340  1.0000
  C   C407      1.0  0.40860  0.90512  0.29417  1.0000
  C   C408      1.0  0.43144  0.91566  0.29808  1.0000
  C   C409      1.0  0.44778  0.90544  0.31518  1.0000
  C   C410      1.0  0.44168  0.88423  0.32825  1.0000
  C   C411      1.0  0.41878  0.87359  0.32438  1.0000
  C   C412      1.0  0.40220  0.88406  0.30742  1.0000
  H   H490      1.0  0.43653  0.93196  0.28794  1.0000
  H   H491      1.0  0.46512  0.91405  0.31819  1.0000
  H   H492      1.0  0.41387  0.85722  0.33448  1.0000
  H   H493      1.0  0.38460  0.87582  0.30456  1.0000
  H   H494      1.0  0.26337  0.93728  0.29303  1.0000
  C   C413      1.0  0.41324  0.53063  0.00940  1.0000
  C   C414      1.0  0.32204  0.80019  0.16337  1.0000
  C   C415      1.0  0.32583  0.80791  0.18749  1.0000
  C   C416      1.0  0.32404  0.83292  0.19358  1.0000
  C   C417      1.0  0.31870  0.85049  0.17550  1.0000
  C   C418      1.0  0.31427  0.84272  0.15151  1.0000
  C   C419      1.0  0.31570  0.81764  0.14549  1.0000
  H   H495      1.0  0.33099  0.79457  0.20137  1.0000
  H   H496      1.0  0.32743  0.83858  0.21211  1.0000
  H   H497      1.0  0.31003  0.85617  0.13744  1.0000
  H   H498      1.0  0.31304  0.81194  0.12679  1.0000
  C   C420      1.0  0.32427  0.63860  0.12671  1.0000
  C   C421      1.0  0.34585  0.65188  0.12813  1.0000
  C   C422      1.0  0.36869  0.63956  0.12741  1.0000
  C   C423      1.0  0.37012  0.61394  0.12504  1.0000
  C   C424      1.0  0.34856  0.60066  0.12324  1.0000
  C   C425      1.0  0.32569  0.61297  0.12425  1.0000
  H   H499      1.0  0.34495  0.67162  0.13009  1.0000
  H   H500      1.0  0.38531  0.64994  0.12879  1.0000
  H   H501      1.0  0.34948  0.58090  0.12149  1.0000
  H   H502      1.0  0.30905  0.60258  0.12313  1.0000
  H   H503      1.0  0.38534  0.51905  0.03493  1.0000
  C   C426      1.0  0.41035  0.99215  0.32391  1.0000
  H   H504      1.0  0.38499  0.85807  0.15944  1.0000
  H   H505      1.0  0.45838  0.59445  0.20239  1.0000
  H   H506      1.0  0.27428  0.76560  0.20520  1.0000
  H   H507      1.0  0.41462  0.89340  0.23507  1.0000
  H   H508      1.0  0.37515  0.81670  0.14631  1.0000
  C   C427      1.0  0.34792  0.63145  0.05729  1.0000
  H   H509      1.0  0.44601  0.81607  0.43671  1.0000
  C   C428      1.0  0.44918  0.56469  0.16463  1.0000
  H   H510      1.0  0.27383  0.65314  0.17862  1.0000
  C   C429      1.0  0.46663  0.86975  0.41343  1.0000
  C   C430      1.0  0.49707  0.55097  0.18081  1.0000
  H   H511      1.0  0.34532  0.58084  0.05942  1.0000
  C   C431      1.0  0.38763  0.84319  0.17239  1.0000
  C   C432      1.0  0.39211  0.80331  0.20451  1.0000
  H   H512      1.0  0.40175  0.61210  0.04025  1.0000
  H   H513      1.0  0.45499  0.54994  0.15172  1.0000
  H   H514      1.0  0.47674  0.58404  0.12701  1.0000
  Fe  Fe55      1.0  0.49845  0.89074  0.35215  1.0000
  H   H515      1.0  0.32233  0.68704  0.04318  1.0000
  C   C433      1.0  0.39771  0.82686  0.21253  1.0000
  C   C434      1.0  0.37320  0.59261  0.00486  1.0000
  H   H516      1.0  0.37949  0.78149  0.17459  1.0000
  H   H517      1.0  0.48286  0.53754  0.18276  1.0000
  C   C435      1.0  0.39580  0.84756  0.19655  1.0000
  H   H518      1.0  0.43098  0.57178  0.15841  1.0000
  C   C436      1.0  0.45905  0.60269  0.18367  1.0000
  C   C437      1.0  0.39529  0.97618  0.31148  1.0000
  S   S110      1.0  0.38377  0.54201  0.08299  1.0000
  C   C438      1.0  0.38211  0.81957  0.16460  1.0000
  S   S111      1.0  0.26028  0.70554  0.09869  1.0000
  C   C439      1.0  0.35447  0.62282  0.03360  1.0000
  C   C440      1.0  0.48909  0.84090  0.43875  1.0000
  H   H519      1.0  0.36407  0.88179  0.21009  1.0000
  C   C441      1.0  0.38922  0.59695  0.04527  1.0000
  C   C442      1.0  0.38957  0.52354  0.01608  1.0000
  C   C443      1.0  0.33705  0.66134  0.01696  1.0000
  S   S112      1.0  0.43574  0.53444  0.03147  1.0000
  H   H520      1.0  0.27309  0.78707  0.24529  1.0000
  C   C444      1.0  0.26367  0.84816  0.20091  1.0000
  C   C445      1.0  0.34952  0.57918  0.03951  1.0000
  H   H521      1.0  0.43807  0.84739  0.44516  1.0000
  C   C446      1.0  0.25521  0.66150  0.17618  1.0000
  H   H522      1.0  0.44945  0.60128  0.13434  1.0000
  H   H523      1.0  0.33025  0.98704  0.24031  1.0000
  H   H524      1.0  0.49216  0.97357  0.43301  1.0000
  C   C447      1.0  0.38446  0.79966  0.18058  1.0000
  H   H525      1.0  0.27916  0.77624  0.02623  1.0000
  H   H526      1.0  0.35283  0.51745  0.00344  1.0000
  C   C448      1.0  0.33115  0.66929  0.04049  1.0000
  H   H527      1.0  0.39330  0.78779  0.21702  1.0000
  H   H528      1.0  0.38284  0.57453  0.00337  1.0000
  H   H529      1.0  0.44592  0.55625  0.18296  1.0000
  H   H530      1.0  0.38564  0.59807  0.06533  1.0000
  N   N31       1.0  0.40203  0.87272  0.20413  1.0000
  C   C449      1.0  0.38050  0.88938  0.20085  1.0000
  C   C450      1.0  0.40967  0.87434  0.23012  1.0000
  C   C451      1.0  0.42251  0.88179  0.18871  1.0000
  H   H531      1.0  0.38357  0.90792  0.20859  1.0000
  H   H532      1.0  0.37552  0.89216  0.18133  1.0000
  H   H533      1.0  0.42618  0.86274  0.23395  1.0000
  H   H534      1.0  0.39461  0.86909  0.24294  1.0000
  H   H535      1.0  0.41759  0.88302  0.16903  1.0000
  H   H536      1.0  0.42803  0.90052  0.19424  1.0000
  H   H537      1.0  0.43888  0.86939  0.19023  1.0000
  H   H538      1.0  0.40319  0.82836  0.23139  1.0000
  N   N32       1.0  0.46760  0.58440  0.16543  1.0000
  H   H539      1.0  0.45123  0.87288  0.40046  1.0000
  S   S113      1.0  0.40307  0.52588  0.13819  1.0000
  C   C452      1.0  0.49241  0.57527  0.17209  1.0000
  C   C453      1.0  0.48457  0.83618  0.46406  1.0000
  H   H540      1.0  0.49064  0.83626  0.38764  1.0000
  H   H541      1.0  0.39946  0.57929  0.04232  1.0000
  H   H542      1.0  0.42626  0.98485  0.33345  1.0000
  C   C454      1.0  0.46816  0.59636  0.14088  1.0000
  C   C455      1.0  0.33643  0.65434  0.06058  1.0000
  C   C456      1.0  0.25981  0.82724  0.21527  1.0000
  C   C457      1.0  0.34848  0.63843  0.01340  1.0000
  C   C458      1.0  0.27972  0.76553  0.00965  1.0000
  H   H543      1.0  0.33181  0.58023  0.02957  1.0000
  H   H544      1.0  0.47928  0.80943  0.40318  1.0000
  H   H545      1.0  0.39933  0.95662  0.31155  1.0000
  H   H546      1.0  0.47129  0.61875  0.18436  1.0000
  H   H547      1.0  0.48337  0.87650  0.40396  1.0000
  C   C459      1.0  0.28316  0.74005  0.01102  1.0000
  H   H548      1.0  0.33143  0.66055  0.07881  1.0000
  H   H549      1.0  0.46640  0.83372  0.47148  1.0000
  H   H550      1.0  0.47831  0.61380  0.14064  1.0000
  S   S114      1.0  0.27972  0.85713  0.29585  1.0000
  H   H551      1.0  0.46316  0.88156  0.42967  1.0000
  H   H552      1.0  0.43073  0.83646  0.41564  1.0000
  Fe  Fe56      1.0  0.38582  0.50746  0.10591  1.0000
  Fe  Fe57      1.0  0.43905  0.51576  0.11971  1.0000
  C   C460      1.0  0.37520  0.98538  0.29864  1.0000
  H   H553      1.0  0.44030  0.60986  0.17931  1.0000
  H   H554      1.0  0.45949  0.82921  0.38519  1.0000
  H   H555      1.0  0.25931  0.86537  0.16569  1.0000
  H   H556      1.0  0.27375  0.86332  0.20821  1.0000
  H   H557      1.0  0.47243  0.50827  0.05959  1.0000
  H   H558      1.0  0.49982  0.95356  0.46976  1.0000
  H   H559      1.0  0.25631  0.67311  0.15940  1.0000
  H   H560      1.0  0.25747  0.90511  0.29311  1.0000
  C   C461      1.0  0.25423  0.76296  0.20788  1.0000
  H   H561      1.0  0.26717  0.82748  0.23354  1.0000
  H   H562      1.0  0.26005  0.61656  0.15553  1.0000
  C   C462      1.0  0.50191  0.89688  0.47733  1.0000
  H   H563      1.0  0.49980  0.83282  0.50032  1.0000
  C   C463      1.0  0.25549  0.84933  0.17687  1.0000
  C   C464      1.0  0.29768  0.00272  0.25678  1.0000
  C   C465      1.0  0.50186  0.51352  0.13231  1.0000
  C   C466      1.0  0.25285  0.78500  0.24561  1.0000
  C   C467      1.0  0.32103  0.00376  0.24613  1.0000
  Fe  Fe58      1.0  0.29418  0.76023  0.84869  1.0000
  C   C468      1.0  0.25433  0.79108  0.70191  1.0000
  S   S115      1.0  0.31957  0.78080  0.82308  1.0000
  Fe  Fe59      1.0  0.28235  0.71060  0.87189  1.0000
  H   H564      1.0  0.29568  0.99693  0.75022  1.0000
  S   S116      1.0  0.28752  0.66997  0.88069  1.0000
  Fe  Fe60      1.0  0.27256  0.75787  0.90033  1.0000
  H   H565      1.0  0.32387  0.84125  0.62872  1.0000
  N   N33       1.0  0.44709  0.60744  0.84736  1.0000
  S   S117      1.0  0.30666  0.74129  0.88344  1.0000
  Fe  Fe61      1.0  0.42264  0.53674  0.89077  1.0000
  S   S118      1.0  0.40696  0.53314  0.85320  1.0000
  S   S119      1.0  0.46093  0.54739  0.90204  1.0000
  Fe  Fe62      1.0  0.37226  0.53184  0.91489  1.0000
  S   S120      1.0  0.35239  0.52889  0.87926  1.0000
  H   H566      1.0  0.44809  0.56790  0.84795  1.0000
  Fe  Fe63      1.0  0.37718  0.55919  0.86648  1.0000
  S   S121      1.0  0.36938  0.59366  0.84395  1.0000
  S   S122      1.0  0.39411  0.56428  0.90315  1.0000
  Fe  Fe64      1.0  0.29845  0.89563  0.69692  1.0000
  S   S123      1.0  0.28275  0.92187  0.72466  1.0000
  Fe  Fe65      1.0  0.35142  0.90467  0.71262  1.0000
  S   S124      1.0  0.33979  0.93083  0.74233  1.0000
  S   S125      1.0  0.39079  0.89208  0.70617  1.0000
  Fe  Fe66      1.0  0.30993  0.90359  0.75022  1.0000
  S   S126      1.0  0.29695  0.89032  0.78758  1.0000
  Fe  Fe67      1.0  0.31383  0.94684  0.71431  1.0000
  S   S127      1.0  0.31346  0.98643  0.70033  1.0000
  S   S128      1.0  0.32378  0.87625  0.72289  1.0000
  S   S129      1.0  0.32728  0.92184  0.68418  1.0000
  H   H567      1.0  0.27550  0.86058  0.82525  1.0000
  C   C469      1.0  0.27699  0.77719  0.98664  1.0000
  S   S130      1.0  0.45638  0.94145  0.62334  1.0000
  H   H568      1.0  0.33177  0.84083  0.92066  1.0000
  C   C470      1.0  0.34301  0.84497  0.62256  1.0000
  C   C471      1.0  0.33347  0.88789  0.62599  1.0000
  H   H569      1.0  0.43711  0.54130  0.97971  1.0000
  H   H570      1.0  0.31561  0.89553  0.85948  1.0000
  C   C472      1.0  0.40870  0.90569  0.68282  1.0000
  C   C473      1.0  0.43205  0.89579  0.67738  1.0000
  C   C474      1.0  0.44684  0.90639  0.65903  1.0000
  C   C475      1.0  0.43841  0.92711  0.64618  1.0000
  C   C476      1.0  0.41512  0.93706  0.65171  1.0000
  C   C477      1.0  0.40022  0.92629  0.66981  1.0000
  H   H571      1.0  0.43869  0.87984  0.68738  1.0000
  H   H572      1.0  0.46476  0.89859  0.65491  1.0000
  H   H573      1.0  0.40850  0.95310  0.64182  1.0000
  H   H574      1.0  0.38229  0.93406  0.67387  1.0000
  C   C478      1.0  0.37678  0.52824  0.97383  1.0000
  H   H575      1.0  0.35231  0.63338  0.99466  1.0000
  H   H576      1.0  0.40510  0.53895  0.94838  1.0000
  C   C479      1.0  0.40063  0.53458  0.96717  1.0000
  C   C480      1.0  0.31195  0.81075  0.81248  1.0000
  C   C481      1.0  0.32525  0.82075  0.79280  1.0000
  C   C482      1.0  0.32051  0.84493  0.78466  1.0000
  C   C483      1.0  0.30261  0.85945  0.79637  1.0000
  C   C484      1.0  0.28926  0.84942  0.81600  1.0000
  C   C485      1.0  0.29368  0.82511  0.82382  1.0000
  H   H577      1.0  0.33952  0.80987  0.78398  1.0000
  H   H578      1.0  0.33129  0.85254  0.76986  1.0000
  H   H579      1.0  0.47466  0.94620  0.67848  1.0000
  H   H580      1.0  0.28324  0.81781  0.83894  1.0000
  C   C486      1.0  0.27768  0.76353  0.96487  1.0000
  H   H581      1.0  0.45311  0.98494  0.66795  1.0000
  H   H582      1.0  0.47328  0.52132  0.85658  1.0000
  H   H583      1.0  0.49965  0.50615  0.96944  1.0000
  H   H584      1.0  0.33151  0.88981  0.60581  1.0000
  C   C487      1.0  0.31129  0.64976  0.87071  1.0000
  C   C488      1.0  0.31364  0.62665  0.88213  1.0000
  C   C489      1.0  0.33164  0.60955  0.87437  1.0000
  C   C490      1.0  0.34722  0.61522  0.85476  1.0000
  C   C491      1.0  0.34489  0.63833  0.84325  1.0000
  C   C492      1.0  0.32709  0.65564  0.85129  1.0000
  H   H585      1.0  0.30146  0.62193  0.89712  1.0000
  H   H586      1.0  0.33321  0.59182  0.88335  1.0000
  H   H587      1.0  0.35682  0.64284  0.82801  1.0000
  H   H588      1.0  0.32538  0.67332  0.84227  1.0000
  C   C493      1.0  0.41882  0.53585  0.98493  1.0000
  C   C494      1.0  0.48251  0.63358  0.85926  1.0000
  H   H589      1.0  0.35344  0.78160  0.89737  1.0000
  C   C495      1.0  0.28140  0.73812  0.96627  1.0000
  N   N34       1.0  0.33877  0.81785  0.88911  1.0000
  C   C496      1.0  0.31340  0.80874  0.88973  1.0000
  C   C497      1.0  0.35524  0.79656  0.88348  1.0000
  C   C498      1.0  0.34056  0.83822  0.87107  1.0000
  C   C499      1.0  0.32624  0.86003  0.87419  1.0000
  C   C500      1.0  0.35591  0.83701  0.84989  1.0000
  C   C501      1.0  0.32727  0.87937  0.85723  1.0000
  C   C502      1.0  0.35693  0.85656  0.83317  1.0000
  C   C503      1.0  0.34262  0.87765  0.83680  1.0000
  H   H590      1.0  0.30816  0.80215  0.87137  1.0000
  H   H591      1.0  0.31133  0.79319  0.90289  1.0000
  H   H592      1.0  0.29970  0.82297  0.89537  1.0000
  H   H593      1.0  0.35063  0.78819  0.86557  1.0000
  C   C504      1.0  0.28407  0.72648  0.98923  1.0000
  H   H594      1.0  0.37480  0.80192  0.88305  1.0000
  H   H595      1.0  0.31371  0.86208  0.88949  1.0000
  H   H596      1.0  0.36675  0.82090  0.84532  1.0000
  C   C505      1.0  0.25374  0.80529  0.72314  1.0000
  H   H597      1.0  0.36813  0.85500  0.81673  1.0000
  C   C506      1.0  0.49174  0.59381  0.84156  1.0000
  C   C507      1.0  0.38732  0.98776  0.70733  1.0000
  Fe  Fe68      1.0  0.49299  0.92687  0.60897  1.0000
  H   H598      1.0  0.42094  0.58119  0.83493  1.0000
  H   H599      1.0  0.39336  0.83995  0.63861  1.0000
  H   H600      1.0  0.36370  0.85092  0.66637  1.0000
  C   C508      1.0  0.44110  0.58345  0.83645  1.0000
  C   C509      1.0  0.47266  0.98492  0.67127  1.0000
  H   H601      1.0  0.41108  0.91603  0.59201  1.0000
  H   H602      1.0  0.34462  0.81148  0.92771  1.0000
  H   H603      1.0  0.43718  0.62651  0.88082  1.0000
  C   C510      1.0  0.40667  0.89911  0.60156  1.0000
  N   N35       1.0  0.35176  0.86844  0.63254  1.0000
  H   H604      1.0  0.43494  0.84803  0.62418  1.0000
  H   H605      1.0  0.44398  0.88589  0.60081  1.0000
  H   H606      1.0  0.44870  0.58163  0.81756  1.0000
  S   S131      1.0  0.35393  0.52799  0.95163  1.0000
  H   H607      1.0  0.41556  0.60457  0.87131  1.0000
  H   H608      1.0  0.36358  0.83471  0.91395  1.0000
  C   C511      1.0  0.48958  0.52974  0.86351  1.0000
  H   H609      1.0  0.31491  0.88379  0.63353  1.0000
  H   H610      1.0  0.49573  0.51112  0.92604  1.0000
  H   H611      1.0  0.35435  0.82898  0.62868  1.0000
  C   C512      1.0  0.37679  0.87337  0.62321  1.0000
  S   S132      1.0  0.50161  0.94153  0.57140  1.0000
  C   C513      1.0  0.38272  0.89494  0.60969  1.0000
  H   H612      1.0  0.33257  0.67305  0.00140  1.0000
  H   H613      1.0  0.28672  0.70677  0.99009  1.0000
  C   C514      1.0  0.48821  0.54390  0.88474  1.0000
  H   H614      1.0  0.44405  0.59439  0.88453  1.0000
  H   H615      1.0  0.26556  0.79661  0.68642  1.0000
  H   H616      1.0  0.33843  0.90595  0.63372  1.0000
  H   H617      1.0  0.38591  0.60639  0.99700  1.0000
  C   C515      1.0  0.35215  0.86649  0.65962  1.0000
  H   H618      1.0  0.36936  0.90916  0.60556  1.0000
  S   S133      1.0  0.27799  0.87144  0.67066  1.0000
  H   H619      1.0  0.41565  0.62384  0.82943  1.0000
  H   H620      1.0  0.33347  0.86394  0.66755  1.0000
  C   C516      1.0  0.42534  0.88213  0.60657  1.0000
  H   H621      1.0  0.41985  0.96523  0.70388  1.0000
  C   C517      1.0  0.42019  0.86087  0.61980  1.0000
  C   C518      1.0  0.42746  0.00068  0.71912  1.0000
  C   C519      1.0  0.43566  0.62690  0.83183  1.0000
  H   H622      1.0  0.27409  0.79686  0.98571  1.0000
  H   H623      1.0  0.35972  0.88336  0.66761  1.0000
  H   H624      1.0  0.26494  0.82142  0.72289  1.0000
  H   H625      1.0  0.46996  0.64775  0.86561  1.0000
  C   C520      1.0  0.37124  0.52254  0.99829  1.0000
  C   C521      1.0  0.34500  0.82665  0.91388  1.0000
  H   H626      1.0  0.34329  0.84533  0.60218  1.0000
  C   C522      1.0  0.39632  0.85647  0.62801  1.0000
  H   H627      1.0  0.26693  0.66961  0.83224  1.0000
  H   H628      1.0  0.34270  0.89231  0.82322  1.0000
  H   H629      1.0  0.28196  0.72738  0.94969  1.0000
  S   S134      1.0  0.50111  0.88890  0.52703  1.0000
  S   S135      1.0  0.27327  0.72779  0.83534  1.0000
  C   C523      1.0  0.47377  0.61144  0.84929  1.0000
  C   C524      1.0  0.43555  0.60833  0.87205  1.0000
  H   H630      1.0  0.44431  0.62736  0.81329  1.0000
  H   H631      1.0  0.43716  0.64544  0.83990  1.0000
  S   S136      1.0  0.27312  0.77870  0.93636  1.0000
  H   H632      1.0  0.50112  0.94882  0.51380  1.0000
  H   H633      1.0  0.27195  0.83152  0.76295  1.0000
  S   S137      1.0  0.26184  0.77888  0.86628  1.0000
  H   H634      1.0  0.25797  0.65321  0.80600  1.0000
  H   H635      1.0  0.44692  0.99678  0.72076  1.0000
  C   C525      1.0  0.41230  0.98288  0.70956  1.0000
  H   H636      1.0  0.26497  0.79172  0.78418  1.0000
  H   H637      1.0  0.35677  0.59141  0.99301  1.0000
  C   C526      1.0  0.48488  0.96304  0.67705  1.0000
  H   H638      1.0  0.37542  0.97393  0.69995  1.0000
  H   H639      1.0  0.48705  0.57624  0.83409  1.0000
  S   S138      1.0  0.40210  0.50459  0.90596  1.0000
  H   H640      1.0  0.54706  0.23800  0.41546  1.0000
  S   S139      1.0  0.72849  0.32583  0.10895  1.0000
  H   H641      1.0  0.66587  0.45462  0.01967  1.0000
  Fe  Fe69      1.0  0.74120  0.17493  0.28534  1.0000
  H   H642      1.0  0.56221  0.49301  0.02040  1.0000
  S   S140      1.0  0.71347  0.28763  0.17090  1.0000
  Fe  Fe70      1.0  0.51061  0.13498  0.41445  1.0000
  C   C527      1.0  0.65794  0.03114  0.29538  1.0000
  H   H643      1.0  0.56649  0.20373  0.39613  1.0000
  S   S141      1.0  0.65921  0.45604  0.14401  1.0000
  H   H644      1.0  0.71721  0.10336  0.16023  1.0000
  Fe  Fe71      1.0  0.72240  0.16197  0.23535  1.0000
  S   S142      1.0  0.70450  0.18091  0.26742  1.0000
  H   H645      1.0  0.72766  0.42180  0.18284  1.0000
  S   S143      1.0  0.73159  0.13836  0.30207  1.0000
  C   C528      1.0  0.72320  0.26315  0.27729  1.0000
  C   C529      1.0  0.51801  0.02358  0.34764  1.0000
  Fe  Fe72      1.0  0.69614  0.14284  0.28142  1.0000
  S   S144      1.0  0.66160  0.12531  0.29669  1.0000
  S   S145      1.0  0.71071  0.12435  0.24730  1.0000
  Fe  Fe73      1.0  0.53861  0.09384  0.38988  1.0000
  S   S146      1.0  0.53522  0.11028  0.35238  1.0000
  S   S147      1.0  0.55880  0.05848  0.39714  1.0000
  C   C530      1.0  0.59103  0.18610  0.46227  1.0000
  H   H646      1.0  0.72100  0.25051  0.29261  1.0000
  H   H647      1.0  0.57092  0.24187  0.43756  1.0000
  Fe  Fe74      1.0  0.54413  0.14550  0.37073  1.0000
  S   S148      1.0  0.56983  0.17266  0.35295  1.0000
  S   S149      1.0  0.55078  0.12833  0.40763  1.0000
  C   C531      1.0  0.63712  0.13945  0.31311  1.0000
  C   C532      1.0  0.62047  0.12433  0.32551  1.0000
  C   C533      1.0  0.60008  0.13441  0.33800  1.0000
  C   C534      1.0  0.59598  0.15980  0.33808  1.0000
  C   C535      1.0  0.61267  0.17505  0.32581  1.0000
  C   C536      1.0  0.63326  0.16492  0.31342  1.0000
  H   H648      1.0  0.62350  0.10467  0.32571  1.0000
  H   H649      1.0  0.58768  0.12246  0.34768  1.0000
  H   H650      1.0  0.60968  0.19472  0.32581  1.0000
  H   H651      1.0  0.64595  0.17674  0.30388  1.0000
  H   H652      1.0  0.54716  0.18640  0.28960  1.0000
  C   C537      1.0  0.53524  0.13875  0.47799  1.0000
  H   H653      1.0  0.54457  0.13425  0.46107  1.0000
  C   C538      1.0  0.54802  0.03653  0.37702  1.0000
  C   C539      1.0  0.51587  0.08284  0.47013  1.0000
  H   H654      1.0  0.52234  0.48422  0.14986  1.0000
  H   H655      1.0  0.52586  0.15758  0.32860  1.0000
  H   H656      1.0  0.72940  0.30709  0.22157  1.0000
  H   H657      1.0  0.50661  0.01693  0.44226  1.0000
  H   H658      1.0  0.69322  0.40450  0.08193  1.0000
  C   C540      1.0  0.72181  0.20550  0.18919  1.0000
  C   C541      1.0  0.71693  0.25596  0.17762  1.0000
  C   C542      1.0  0.70867  0.24682  0.20027  1.0000
  C   C543      1.0  0.71156  0.22179  0.20626  1.0000
  H   H659      1.0  0.53877  0.02278  0.43914  1.0000
  C   C544      1.0  0.57444  0.19823  0.41412  1.0000
  H   H660      1.0  0.57764  0.17800  0.41316  1.0000
  H   H661      1.0  0.69989  0.25908  0.21322  1.0000
  H   H662      1.0  0.70518  0.21503  0.22381  1.0000
  C   C545      1.0  0.72652  0.40951  0.12155  1.0000
  C   C546      1.0  0.70832  0.39948  0.13658  1.0000
  C   C547      1.0  0.68748  0.41374  0.14301  1.0000
  C   C548      1.0  0.68445  0.43781  0.13397  1.0000
  C   C549      1.0  0.70219  0.44730  0.11808  1.0000
  C   C550      1.0  0.72331  0.43339  0.11223  1.0000
  H   H663      1.0  0.71063  0.38105  0.14383  1.0000
  H   H664      1.0  0.67381  0.40620  0.15527  1.0000
  H   H665      1.0  0.69997  0.46553  0.11071  1.0000
  C   C551      1.0  0.55888  0.01312  0.37662  1.0000
  H   H666      1.0  0.73706  0.20196  0.15285  1.0000
  S   S150      1.0  0.61982  0.49687  0.09945  1.0000
  C   C552      1.0  0.52767  0.04181  0.36243  1.0000
  C   C553      1.0  0.55403  0.20308  0.48085  1.0000
  H   H667      1.0  0.52049  0.12736  0.26724  1.0000
  N   N36       1.0  0.70298  0.38225  0.05055  1.0000
  H   H668      1.0  0.57134  0.05494  0.47723  1.0000
  C   C554      1.0  0.67644  0.43795  0.01591  1.0000
  H   H669      1.0  0.74095  0.38191  0.03925  1.0000
  C   C555      1.0  0.69611  0.39970  0.03069  1.0000
  H   H670      1.0  0.53600  0.21152  0.48003  1.0000
  C   C556      1.0  0.74531  0.26333  0.26422  1.0000
  C   C557      1.0  0.62235  0.05786  0.29333  1.0000
  H   H671      1.0  0.51133  0.18554  0.31863  1.0000
  H   H672      1.0  0.69857  0.04007  0.22102  1.0000
  C   C558      1.0  0.59974  0.17989  0.48558  1.0000
  H   H673      1.0  0.61459  0.07626  0.29161  1.0000
  C   C559      1.0  0.53432  0.19270  0.43110  1.0000
  C   C560      1.0  0.72935  0.38480  0.05580  1.0000
  C   C561      1.0  0.53897  0.07340  0.46408  1.0000
  H   H674      1.0  0.53135  0.12246  0.29794  1.0000
  C   C562      1.0  0.51044  0.14559  0.47790  1.0000
  C   C563      1.0  0.61690  0.01340  0.29857  1.0000
  C   C564      1.0  0.72879  0.29486  0.23723  1.0000
  C   C565      1.0  0.68204  0.42152  0.03499  1.0000
  H   H675      1.0  0.67771  0.02871  0.29527  1.0000
  C   C566      1.0  0.50799  0.19046  0.25631  1.0000
  H   H676      1.0  0.67928  0.35427  0.03719  1.0000
  N   N37       1.0  0.51862  0.15943  0.28998  1.0000
  C   C567      1.0  0.72868  0.11166  0.17460  1.0000
  S   S151      1.0  0.72474  0.17377  0.19564  1.0000
  H   H677      1.0  0.55081  0.16236  0.26689  1.0000
  H   H678      1.0  0.58354  0.49552  0.04507  1.0000
  C   C568      1.0  0.54815  0.13790  0.50012  1.0000
  C   C569      1.0  0.55323  0.06197  0.48200  1.0000
  N   N38       1.0  0.55795  0.20501  0.43492  1.0000
  C   C570      1.0  0.74163  0.07018  0.18633  1.0000
  H   H679      1.0  0.74977  0.10469  0.21915  1.0000
  H   H680      1.0  0.73332  0.40345  0.06281  1.0000
  H   H681      1.0  0.70218  0.34321  0.05830  1.0000
  C   C571      1.0  0.52163  0.47901  0.08442  1.0000
  H   H682      1.0  0.71075  0.35034  0.02790  1.0000
  C   C572      1.0  0.56782  0.19800  0.45922  1.0000
  H   H683      1.0  0.56742  0.13294  0.49998  1.0000
  C   C573      1.0  0.70394  0.27875  0.27046  1.0000
  H   H684      1.0  0.67529  0.42655  0.05295  1.0000
  H   H685      1.0  0.50501  0.09221  0.45623  1.0000
  H   H686      1.0  0.57482  0.00918  0.38767  1.0000
  C   C574      1.0  0.75016  0.29552  0.00331  1.0000
  H   H687      1.0  0.69491  0.49330  0.15150  1.0000
  H   H688      1.0  0.51986  0.19851  0.44442  1.0000
  H   H689      1.0  0.71268  0.08135  0.21203  1.0000
  H   H690      1.0  0.73568  0.37129  0.06991  1.0000
  C   C575      1.0  0.69855  0.35653  0.04309  1.0000
  C   C576      1.0  0.52399  0.01028  0.43357  1.0000
  C   C577      1.0  0.54039  0.49210  0.07302  1.0000
  H   H691      1.0  0.69163  0.30651  0.24498  1.0000
  C   C578      1.0  0.68912  0.38644  0.07376  1.0000
  H   H692      1.0  0.60272  0.18112  0.44698  1.0000
  Fe  Fe75      1.0  0.65112  0.49278  0.12569  1.0000
  C   C579      1.0  0.72755  0.23971  0.16071  1.0000
  H   H693      1.0  0.74655  0.27607  0.00305  1.0000
  C   C580      1.0  0.71354  0.04263  0.20813  1.0000
  H   H694      1.0  0.73450  0.12998  0.16774  1.0000
  H   H695      1.0  0.52684  0.19637  0.41251  1.0000
  H   H696      1.0  0.54596  0.07531  0.44553  1.0000
  H   H697      1.0  0.59242  0.20740  0.41525  1.0000
  H   H698      1.0  0.68671  0.27832  0.28044  1.0000
  H   H699      1.0  0.73554  0.00899  0.25709  1.0000
  C   C581      1.0  0.70470  0.39586  0.00632  1.0000
  Fe  Fe76      1.0  0.73914  0.30423  0.14275  1.0000
  H   H700      1.0  0.73335  0.24637  0.14294  1.0000
  H   H701      1.0  0.52677  0.19590  0.25386  1.0000
  H   H702      1.0  0.69417  0.37263  0.08812  1.0000
  H   H703      1.0  0.73728  0.44121  0.10052  1.0000
  H   H704      1.0  0.66901  0.38541  0.07094  1.0000
  H   H705      1.0  0.52204  0.01288  0.41345  1.0000
  C   C582      1.0  0.74871  0.27894  0.24358  1.0000
  C   C583      1.0  0.72521  0.02223  0.19777  1.0000
  C   C584      1.0  0.64770  0.05462  0.29299  1.0000
  H   H706      1.0  0.55790  0.00694  0.47370  1.0000
  C   C585      1.0  0.51213  0.16535  0.31570  1.0000
  S   S152      1.0  0.50465  0.15560  0.37893  1.0000
  H   H707      1.0  0.53971  0.23829  0.44735  1.0000
  C   C586      1.0  0.55372  0.23195  0.43380  1.0000
  C   C587      1.0  0.74243  0.47952  0.16236  1.0000
  C   C588      1.0  0.72958  0.21451  0.16633  1.0000
  H   H708      1.0  0.58762  0.04163  0.29665  1.0000
  C   C589      1.0  0.51739  0.13245  0.28673  1.0000
  H   H709      1.0  0.71672  0.11584  0.19069  1.0000
  C   C590      1.0  0.60705  0.03767  0.29616  1.0000
  C   C591      1.0  0.52344  0.50167  0.14037  1.0000
  H   H710      1.0  0.53658  0.17252  0.43327  1.0000
  H   H711      1.0  0.51905  0.05980  0.36280  1.0000
  H   H712      1.0  0.55723  0.15652  0.29846  1.0000
  C   C592      1.0  0.74522  0.02536  0.18215  1.0000
  H   H713      1.0  0.65942  0.07044  0.29110  1.0000
  H   H714      1.0  0.73586  0.05298  0.27028  1.0000
  Fe  Fe77      1.0  0.74628  0.12179  0.26717  1.0000
  C   C593      1.0  0.72174  0.06624  0.20275  1.0000
  C   C594      1.0  0.50707  0.08141  0.49422  1.0000
  C   C595      1.0  0.64286  0.01080  0.29820  1.0000
  C   C596      1.0  0.54450  0.16657  0.28585  1.0000
  N   N39       1.0  0.74992  0.09541  0.18089  1.0000
  H   H715      1.0  0.61730  0.17050  0.48757  1.0000
  H   H716      1.0  0.56811  0.01007  0.31463  1.0000
  C   C597      1.0  0.70678  0.29467  0.25057  1.0000
  C   C598      1.0  0.72854  0.46006  0.17263  1.0000
  C   C599      1.0  0.75081  0.02047  0.25224  1.0000
  H   H717      1.0  0.70942  0.46216  0.17759  1.0000
  H   H718      1.0  0.52597  0.46490  0.09790  1.0000
  C   C600      1.0  0.75086  0.04544  0.25948  1.0000
  H   H719      1.0  0.72903  0.49731  0.11925  1.0000
  H   H720      1.0  0.55901  0.48747  0.07811  1.0000
  C   C601      1.0  0.73884  0.43658  0.17582  1.0000
  H   H721      1.0  0.56293  0.50347  0.14311  1.0000
  H   H722      1.0  0.70082  0.50267  0.18250  1.0000
  H   H723      1.0  0.57004  0.00488  0.28195  1.0000
  S   S153      1.0  0.74986  0.33126  0.84393  1.0000
  S   S154      1.0  0.70476  0.38735  0.84847  1.0000
  C   C602      1.0  0.51151  0.15020  0.52235  1.0000
  S   S155      1.0  0.72425  0.26666  0.86551  1.0000
  C   C603      1.0  0.54366  0.04760  0.60792  1.0000
  C   C604      1.0  0.73119  0.26919  0.81529  1.0000
  S   S156      1.0  0.71606  0.33279  0.89484  1.0000
  S   S157      1.0  0.74108  0.12896  0.69926  1.0000
  H   H724      1.0  0.63848  0.08480  0.70369  1.0000
  H   H725      1.0  0.52804  0.49737  0.98336  1.0000
  S   S158      1.0  0.65277  0.47096  0.91224  1.0000
  H   H726      1.0  0.63679  0.04409  0.69513  1.0000
  H   H727      1.0  0.72016  0.19963  0.80581  1.0000
  S   S159      1.0  0.71999  0.09188  0.75645  1.0000
  Fe  Fe78      1.0  0.53606  0.14281  0.58679  1.0000
  S   S160      1.0  0.53200  0.17392  0.61365  1.0000
  S   S161      1.0  0.55398  0.14504  0.54927  1.0000
  Fe  Fe79      1.0  0.54827  0.14722  0.64088  1.0000
  S   S162      1.0  0.57183  0.15741  0.67303  1.0000
  S   S163      1.0  0.55502  0.11725  0.61358  1.0000
  Fe  Fe80      1.0  0.72986  0.18479  0.74205  1.0000
  S   S164      1.0  0.50312  0.06765  0.63072  1.0000
  H   H728      1.0  0.68024  0.44607  0.97743  1.0000
  Fe  Fe81      1.0  0.73017  0.12841  0.73878  1.0000
  Fe  Fe82      1.0  0.73816  0.30483  0.87326  1.0000
  H   H729      1.0  0.70592  0.08765  0.69777  1.0000
  Fe  Fe83      1.0  0.71270  0.15902  0.69565  1.0000
  S   S165      1.0  0.68788  0.15712  0.66272  1.0000
  S   S166      1.0  0.70029  0.15740  0.73480  1.0000
  C   C605      1.0  0.53646  0.14399  0.52231  1.0000
  H   H730      1.0  0.68078  0.08634  0.71885  1.0000
  S   S167      1.0  0.72687  0.22338  0.75764  1.0000
  C   C606      1.0  0.60406  0.15712  0.66989  1.0000
  C   C607      1.0  0.61847  0.16152  0.69051  1.0000
  C   C608      1.0  0.64418  0.16166  0.68857  1.0000
  C   C609      1.0  0.65566  0.15755  0.66594  1.0000
  C   C610      1.0  0.64124  0.15301  0.64535  1.0000
  C   C611      1.0  0.61554  0.15270  0.64731  1.0000
  H   H731      1.0  0.60972  0.16499  0.70802  1.0000
  H   H732      1.0  0.65507  0.16525  0.70452  1.0000
  H   H733      1.0  0.65000  0.14985  0.62777  1.0000
  H   H734      1.0  0.60461  0.14939  0.63129  1.0000
  H   H735      1.0  0.68426  0.11255  0.69888  1.0000
  N   N40       1.0  0.52965  0.50074  0.94389  1.0000
  C   C612      1.0  0.72746  0.06332  0.74255  1.0000
  C   C613      1.0  0.74795  0.44822  0.87724  1.0000
  C   C614      1.0  0.71523  0.04211  0.75029  1.0000
  H   H736      1.0  0.64352  0.10907  0.68249  1.0000
  C   C615      1.0  0.72184  0.01888  0.74087  1.0000
  C   C616      1.0  0.55635  0.02851  0.59595  1.0000
  C   C617      1.0  0.57613  0.45344  0.91898  1.0000
  Fe  Fe84      1.0  0.73015  0.35972  0.86700  1.0000
  H   H737      1.0  0.64293  0.49570  0.98738  1.0000
  C   C618      1.0  0.72632  0.25428  0.83563  1.0000
  C   C619      1.0  0.73137  0.25924  0.79166  1.0000
  C   C620      1.0  0.70080  0.01637  0.67977  1.0000
  C   C621      1.0  0.72758  0.23414  0.78807  1.0000
  C   C622      1.0  0.72331  0.21897  0.80840  1.0000
  C   C623      1.0  0.72233  0.22913  0.83209  1.0000
  C   C624      1.0  0.51257  0.15526  0.71351  1.0000
  H   H738      1.0  0.71854  0.21744  0.84773  1.0000
  H   H739      1.0  0.53307  0.19211  0.73723  1.0000
  N   N41       1.0  0.50585  0.18168  0.71106  1.0000
  H   H740      1.0  0.73452  0.28845  0.81759  1.0000
  C   C625      1.0  0.59450  0.45460  0.93642  1.0000
  H   H741      1.0  0.57870  0.44157  0.90328  1.0000
  C   C626      1.0  0.69055  0.41066  0.86631  1.0000
  C   C627      1.0  0.69348  0.41137  0.89170  1.0000
  C   C628      1.0  0.68179  0.42999  0.90546  1.0000
  C   C629      1.0  0.66728  0.44817  0.89398  1.0000
  C   C630      1.0  0.66449  0.44760  0.86855  1.0000
  C   C631      1.0  0.67603  0.42884  0.85480  1.0000
  H   H742      1.0  0.70467  0.39751  0.90075  1.0000
  H   H743      1.0  0.68403  0.43030  0.92512  1.0000
  H   H744      1.0  0.65321  0.46138  0.85952  1.0000
  H   H745      1.0  0.67371  0.42841  0.83516  1.0000
  H   H746      1.0  0.71518  0.47548  0.82040  1.0000
  H   H747      1.0  0.69929  0.08641  0.65387  1.0000
  C   C632      1.0  0.69740  0.04183  0.67853  1.0000
  H   H748      1.0  0.71320  0.05268  0.67394  1.0000
  H   H749      1.0  0.66645  0.22713  0.80861  1.0000
  S   S168      1.0  0.51179  0.13273  0.65246  1.0000
  C   C633      1.0  0.56296  0.19682  0.50402  1.0000
  C   C634      1.0  0.59173  0.47032  0.95625  1.0000
  H   H750      1.0  0.52794  0.03185  0.54567  1.0000
  C   C635      1.0  0.52761  0.19597  0.71799  1.0000
  H   H751      1.0  0.73937  0.48142  0.89583  1.0000
  C   C636      1.0  0.68464  0.43326  0.99214  1.0000
  N   N42       1.0  0.66401  0.30942  0.83418  1.0000
  C   C637      1.0  0.65950  0.30011  0.85947  1.0000
  C   C638      1.0  0.68731  0.32285  0.83445  1.0000
  C   C639      1.0  0.64385  0.32700  0.82812  1.0000
  C   C640      1.0  0.66565  0.28980  0.81556  1.0000
  C   C641      1.0  0.66455  0.26440  0.82164  1.0000
  C   C642      1.0  0.66910  0.29588  0.79043  1.0000
  C   C643      1.0  0.66649  0.24642  0.80355  1.0000
  C   C644      1.0  0.67117  0.27772  0.77254  1.0000
  C   C645      1.0  0.66982  0.25304  0.77909  1.0000
  H   H752      1.0  0.64210  0.28986  0.86076  1.0000
  H   H753      1.0  0.67483  0.28791  0.86581  1.0000
  H   H754      1.0  0.65825  0.31532  0.87297  1.0000
  H   H755      1.0  0.69169  0.33177  0.81660  1.0000
  H   H756      1.0  0.70276  0.31013  0.83899  1.0000
  H   H757      1.0  0.68692  0.33775  0.84828  1.0000
  H   H758      1.0  0.62614  0.31739  0.82649  1.0000
  H   H759      1.0  0.64161  0.34144  0.84237  1.0000
  H   H760      1.0  0.64726  0.33703  0.81065  1.0000
  H   H761      1.0  0.66303  0.25783  0.84028  1.0000
  H   H762      1.0  0.67081  0.31473  0.78447  1.0000
  H   H763      1.0  0.70074  0.04362  0.76386  1.0000
  H   H764      1.0  0.67449  0.28268  0.75354  1.0000
  H   H765      1.0  0.67232  0.23896  0.76529  1.0000
  C   C646      1.0  0.64529  0.08878  0.68483  1.0000
  H   H766      1.0  0.53462  0.09852  0.54917  1.0000
  H   H767      1.0  0.55182  0.20014  0.52027  1.0000
  C   C647      1.0  0.51006  0.04198  0.54575  1.0000
  C   C648      1.0  0.73789  0.47196  0.87861  1.0000
  H   H768      1.0  0.51718  0.18439  0.67310  1.0000
  H   H769      1.0  0.74637  0.01196  0.81170  1.0000
  H   H770      1.0  0.66997  0.07802  0.64194  1.0000
  H   H771      1.0  0.59220  0.17979  0.52440  1.0000
  H   H772      1.0  0.63291  0.08058  0.67120  1.0000
  C   C649      1.0  0.67915  0.08839  0.65660  1.0000
  C   C650      1.0  0.58575  0.18525  0.50638  1.0000
  H   H773      1.0  0.73280  0.43437  0.81903  1.0000
  H   H774      1.0  0.74525  0.30030  0.96426  1.0000
  C   C651      1.0  0.53065  0.07949  0.55519  1.0000
  H   H775      1.0  0.50451  0.47969  0.92246  1.0000
  C   C652      1.0  0.52121  0.07000  0.51303  1.0000
  C   C653      1.0  0.51657  0.49459  0.96700  1.0000
  H   H776      1.0  0.55251  0.06485  0.61083  1.0000
  H   H777      1.0  0.54837  0.06919  0.55581  1.0000
  H   H778      1.0  0.51549  0.15004  0.73302  1.0000
  H   H779      1.0  0.67497  0.10822  0.65346  1.0000
  C   C654      1.0  0.65490  0.03725  0.69057  1.0000
  C   C655      1.0  0.68610  0.09215  0.69996  1.0000
  C   C656      1.0  0.65866  0.01177  0.69212  1.0000
  C   C657      1.0  0.67424  0.05308  0.68349  1.0000
  H   H780      1.0  0.57494  0.03110  0.58951  1.0000
  H   H781      1.0  0.54389  0.19116  0.70631  1.0000
  N   N43       1.0  0.67102  0.08007  0.68130  1.0000
  H   H782      1.0  0.61122  0.44373  0.93422  1.0000
  H   H783      1.0  0.71633  0.38028  0.00165  1.0000
  S   S169      1.0  0.73996  0.18851  0.70207  1.0000
  H   H784      1.0  0.70549  0.40880  0.96891  1.0000
  H   H785      1.0  0.52975  0.15063  0.70325  1.0000
  Fe  Fe85      1.0  0.51697  0.10532  0.62280  1.0000
  H   H786      1.0  0.56976  0.49751  0.97394  1.0000
  C   C658      1.0  0.55490  0.46806  0.92121  1.0000
  C   C659      1.0  0.51963  0.04417  0.61618  1.0000
  C   C660      1.0  0.55159  0.48453  0.94113  1.0000
  H   H787      1.0  0.52431  0.21604  0.71546  1.0000
  H   H788      1.0  0.60640  0.47154  0.96940  1.0000
  C   C661      1.0  0.72574  0.48306  0.85835  1.0000
  H   H789      1.0  0.70381  0.50326  0.89842  1.0000
  C   C662      1.0  0.57065  0.48510  0.95864  1.0000
  H   H790      1.0  0.68127  0.49606  0.87628  1.0000
  H   H791      1.0  0.55618  0.05110  0.51940  1.0000
  C   C663      1.0  0.74945  0.30920  0.98130  1.0000
  H   H792      1.0  0.73424  0.27114  0.77601  1.0000
  C   C664      1.0  0.74123  0.01657  0.72402  1.0000
  C   C665      1.0  0.69881  0.41229  0.98737  1.0000
  C   C666      1.0  0.74637  0.43492  0.85569  1.0000
  N   N44       1.0  0.51261  0.06818  0.53879  1.0000
  H   H793      1.0  0.52381  0.08049  0.57443  1.0000
  C   C667      1.0  0.51189  0.49853  0.92361  1.0000
  Fe  Fe86      1.0  0.75099  0.33986  0.91497  1.0000
  C   C668      1.0  0.51117  0.00616  0.67167  1.0000
  H   H794      1.0  0.52051  0.02326  0.66862  1.0000
  C   C669      1.0  0.74603  0.06115  0.72482  1.0000
  C   C670      1.0  0.54446  0.06006  0.50609  1.0000
  H   H795      1.0  0.55393  0.02120  0.69243  1.0000
  H   H796      1.0  0.51095  0.47504  0.96715  1.0000
  H   H797      1.0  0.55654  0.01001  0.64920  1.0000
  C   C671      1.0  0.72439  0.46892  0.83663  1.0000
  H   H798      1.0  0.54173  0.46656  0.90671  1.0000
  C   C672      1.0  0.73462  0.44523  0.83546  1.0000
  H   H799      1.0  0.71870  0.00822  0.67594  1.0000
  C   C673      1.0  0.50844  0.02164  0.61278  1.0000
  C   C674      1.0  0.54511  0.00593  0.59277  1.0000
  H   H800      1.0  0.74794  0.05649  0.80653  1.0000
  H   H801      1.0  0.52036  0.50343  0.90562  1.0000
  H   H802      1.0  0.72645  0.52924  0.12710  1.0000
  C   C675      1.0  0.51128  0.96900  0.42723  1.0000
  H   H803      1.0  0.68922  0.78646  0.02479  1.0000
  Fe  Fe87      1.0  0.61234  0.53318  0.11737  1.0000
  S   S170      1.0  0.64110  0.52740  0.14612  1.0000
  S   S171      1.0  0.57541  0.55184  0.12317  1.0000
  Fe  Fe88      1.0  0.66628  0.54633  0.11946  1.0000
  S   S172      1.0  0.69457  0.57212  0.13455  1.0000
  S   S173      1.0  0.63695  0.55439  0.09188  1.0000
  H   H804      1.0  0.60504  0.57677  0.00676  1.0000
  S   S174      1.0  0.71423  0.74502  0.09234  1.0000
  H   H805      1.0  0.64971  0.70896  0.18994  1.0000
  C   C676      1.0  0.68613  0.70884  0.13925  1.0000
  Fe  Fe89      1.0  0.73149  0.70736  0.09601  1.0000
  S   S175      1.0  0.70584  0.67727  0.08490  1.0000
  H   H806      1.0  0.58473  0.54828  0.05373  1.0000
  H   H807      1.0  0.69780  0.84399  0.29410  1.0000
  Fe  Fe90      1.0  0.72453  0.90268  0.21427  1.0000
  S   S176      1.0  0.71489  0.88578  0.25071  1.0000
  S   S177      1.0  0.71899  0.88589  0.17700  1.0000
  H   H808      1.0  0.66186  0.85793  0.30940  1.0000
  C   C677      1.0  0.54645  0.51249  0.13647  1.0000
  C   C678      1.0  0.68076  0.65468  0.17607  1.0000
  Fe  Fe91      1.0  0.70449  0.92433  0.26170  1.0000
  S   S178      1.0  0.67503  0.93675  0.28843  1.0000
  S   S179      1.0  0.71061  0.94068  0.22418  1.0000
  Fe  Fe92      1.0  0.53711  0.90745  0.38793  1.0000
  S   S180      1.0  0.53279  0.87254  0.36683  1.0000
  H   H809      1.0  0.69318  0.72787  0.14015  1.0000
  C   C679      1.0  0.66295  0.85555  0.32903  1.0000
  H   H810      1.0  0.71245  0.82440  0.31644  1.0000
  C   C680      1.0  0.70523  0.50633  0.16289  1.0000
  Fe  Fe93      1.0  0.55219  0.89222  0.33612  1.0000
  S   S181      1.0  0.58074  0.87438  0.31144  1.0000
  S   S182      1.0  0.55907  0.92574  0.35817  1.0000
  C   C681      1.0  0.73072  0.86196  0.34292  1.0000
  H   H811      1.0  0.55704  0.97662  0.36228  1.0000
  H   H812      1.0  0.72997  0.87693  0.35667  1.0000
  H   H813      1.0  0.57085  0.91206  0.47483  1.0000
  C   C682      1.0  0.64973  0.91819  0.29480  1.0000
  C   C683      1.0  0.63631  0.92236  0.31638  1.0000
  C   C684      1.0  0.61505  0.90915  0.32146  1.0000
  C   C685      1.0  0.60716  0.89148  0.30507  1.0000
  C   C686      1.0  0.62110  0.88663  0.28385  1.0000
  C   C687      1.0  0.64233  0.90005  0.27863  1.0000
  H   H814      1.0  0.64252  0.93569  0.32936  1.0000
  H   H815      1.0  0.60518  0.91217  0.33839  1.0000
  H   H816      1.0  0.61523  0.87275  0.27124  1.0000
  H   H817      1.0  0.65263  0.89671  0.26192  1.0000
  C   C688      1.0  0.64110  0.85117  0.34173  1.0000
  C   C689      1.0  0.67020  0.67401  0.16175  1.0000
  C   C690      1.0  0.51254  0.96485  0.47938  1.0000
  C   C691      1.0  0.72125  0.80244  0.16571  1.0000
  C   C692      1.0  0.71903  0.81204  0.18944  1.0000
  C   C693      1.0  0.71858  0.83758  0.19319  1.0000
  C   C694      1.0  0.71985  0.85369  0.17316  1.0000
  C   C695      1.0  0.71223  0.84320  0.30833  1.0000
  C   C696      1.0  0.72305  0.81853  0.14572  1.0000
  S   S183      1.0  0.72056  0.77031  0.16160  1.0000
  H   H818      1.0  0.71689  0.84478  0.21152  1.0000
  C   C697      1.0  0.54780  0.53562  0.12526  1.0000
  H   H819      1.0  0.70189  0.90120  0.32903  1.0000
  C   C698      1.0  0.52629  0.54724  0.11699  1.0000
  H   H820      1.0  0.66226  0.73498  0.17393  1.0000
  H   H821      1.0  0.52717  0.56516  0.10842  1.0000
  C   C699      1.0  0.69820  0.60114  0.12037  1.0000
  C   C700      1.0  0.68382  0.60830  0.10044  1.0000
  C   C701      1.0  0.68647  0.63168  0.08986  1.0000
  C   C702      1.0  0.70351  0.64814  0.09903  1.0000
  C   C703      1.0  0.71795  0.64107  0.11900  1.0000
  C   C704      1.0  0.71532  0.61757  0.12959  1.0000
  H   H822      1.0  0.67063  0.59586  0.09315  1.0000
  H   H823      1.0  0.67526  0.63704  0.07442  1.0000
  H   H824      1.0  0.73117  0.65360  0.12618  1.0000
  H   H825      1.0  0.72647  0.61218  0.14505  1.0000
  N   N45       1.0  0.67786  0.69988  0.16359  1.0000
  C   C705      1.0  0.69835  0.70347  0.18087  1.0000
  H   H826      1.0  0.73651  0.54131  0.17069  1.0000
  C   C706      1.0  0.55153  0.90801  0.47547  1.0000
  C   C707      1.0  0.65169  0.66747  0.14503  1.0000
  C   C708      1.0  0.62614  0.54585  0.02070  1.0000
  H   H827      1.0  0.62384  0.84595  0.37683  1.0000
  H   H828      1.0  0.51501  0.94908  0.43035  1.0000
  C   C709      1.0  0.54057  0.55835  0.18317  1.0000
  C   C710      1.0  0.51380  0.84477  0.43163  1.0000
  C   C711      1.0  0.55410  0.97715  0.43098  1.0000
  C   C712      1.0  0.54495  0.99448  0.48188  1.0000
  H   H829      1.0  0.59584  0.95615  0.28591  1.0000
  H   H830      1.0  0.56813  0.99090  0.43541  1.0000
  H   H831      1.0  0.68572  0.82906  0.00927  1.0000
  H   H832      1.0  0.62811  0.55348  0.03874  1.0000
  C   C713      1.0  0.66278  0.85073  0.37994  1.0000
  H   H833      1.0  0.71758  0.79970  0.20497  1.0000
  H   H834      1.0  0.73345  0.84399  0.35243  1.0000
  C   C714      1.0  0.53278  0.84380  0.44863  1.0000
  H   H835      1.0  0.51219  0.97188  0.40699  1.0000
  N   N46       1.0  0.70842  0.86210  0.32752  1.0000
  H   H836      1.0  0.72467  0.81133  0.12737  1.0000
  C   C715      1.0  0.53838  0.90645  0.45360  1.0000
  C   C716      1.0  0.56930  0.53802  0.06208  1.0000
  C   C717      1.0  0.65527  0.62465  0.15674  1.0000
  C   C718      1.0  0.70638  0.88652  0.31555  1.0000
  H   H837      1.0  0.65179  0.99302  0.30037  1.0000
  C   C719      1.0  0.73986  0.73588  0.00702  1.0000
  H   H838      1.0  0.74184  0.51754  0.19328  1.0000
  H   H839      1.0  0.66253  0.84910  0.39975  1.0000
  S   S184      1.0  0.75006  0.71557  0.13156  1.0000
  H   H840      1.0  0.59449  0.96481  0.33074  1.0000
  H   H841      1.0  0.58595  0.51533  0.01939  1.0000
  H   H842      1.0  0.55135  0.84781  0.44285  1.0000
  H   H843      1.0  0.63095  0.63842  0.12905  1.0000
  Fe  Fe94      1.0  0.52287  0.93921  0.34427  1.0000
  C   C720      1.0  0.63671  0.52293  0.01523  1.0000
  H   H844      1.0  0.70099  0.69673  0.13189  1.0000
  H   H845      1.0  0.70392  0.72306  0.18145  1.0000
  S   S185      1.0  0.51751  0.90721  0.31963  1.0000
  H   H846      1.0  0.55721  0.55151  0.07181  1.0000
  C   C721      1.0  0.64097  0.84891  0.36712  1.0000
  H   H847      1.0  0.62676  0.96544  0.28562  1.0000
  C   C722      1.0  0.68557  0.85729  0.34145  1.0000
  H   H848      1.0  0.64300  0.68106  0.13334  1.0000
  C   C723      1.0  0.65689  0.71544  0.17192  1.0000
  H   H849      1.0  0.55907  0.55155  0.18630  1.0000
  S   S186      1.0  0.67844  0.51127  0.10141  1.0000
  H   H850      1.0  0.69772  0.52502  0.15873  1.0000
  C   C724      1.0  0.68484  0.85481  0.36741  1.0000
  H   H851      1.0  0.67137  0.70929  0.12540  1.0000
  C   C725      1.0  0.52772  0.83922  0.47326  1.0000
  H   H852      1.0  0.72988  0.84567  0.29826  1.0000
  H   H853      1.0  0.64151  0.71542  0.15874  1.0000
  C   C726      1.0  0.72202  0.84406  0.14944  1.0000
  H   H854      1.0  0.51072  0.60984  0.16437  1.0000
  H   H855      1.0  0.56289  0.55129  0.01532  1.0000
  N   N47       1.0  0.55551  0.52428  0.04359  1.0000
  C   C727      1.0  0.74630  0.76057  0.00753  1.0000
  H   H856      1.0  0.72370  0.89153  0.30600  1.0000
  H   H857      1.0  0.60558  0.97984  0.26495  1.0000
  H   H858      1.0  0.69177  0.88721  0.30155  1.0000
  C   C728      1.0  0.52826  0.99990  0.34794  1.0000
  H   H859      1.0  0.57738  0.52578  0.07635  1.0000
  S   S187      1.0  0.55410  0.91015  0.42545  1.0000
  C   C729      1.0  0.64450  0.64313  0.14253  1.0000
  C   C730      1.0  0.60766  0.97254  0.28392  1.0000
  C   C731      1.0  0.67329  0.63041  0.17349  1.0000
  H   H860      1.0  0.53650  0.53314  0.01014  1.0000
  H   H861      1.0  0.69318  0.69828  0.19993  1.0000
  H   H862      1.0  0.65021  0.60568  0.15422  1.0000
  H   H863      1.0  0.60100  0.99515  0.34150  1.0000
  C   C732      1.0  0.54002  0.90367  0.49819  1.0000
  H   H864      1.0  0.71501  0.69278  0.17518  1.0000
  H   H865      1.0  0.68208  0.61577  0.18393  1.0000
  Fe  Fe95      1.0  0.73523  0.75402  0.12626  1.0000
  C   C733      1.0  0.54877  0.99470  0.36235  1.0000
  C   C734      1.0  0.73597  0.51155  0.13176  1.0000
  H   H866      1.0  0.52407  0.52388  0.19191  1.0000
  H   H867      1.0  0.69517  0.65768  0.18902  1.0000
  H   H868      1.0  0.72303  0.85641  0.13387  1.0000
  H   H869      1.0  0.70099  0.85614  0.37852  1.0000
  Fe  Fe96      1.0  0.64675  0.51747  0.07638  1.0000
  S   S188      1.0  0.74201  0.93318  0.27522  1.0000
  H   H870      1.0  0.74760  0.86506  0.33170  1.0000
  H   H871      1.0  0.62404  0.84984  0.33182  1.0000
  C   C735      1.0  0.74420  0.52239  0.17356  1.0000
  C   C736      1.0  0.52858  0.98126  0.46711  1.0000
  Fe  Fe97      1.0  0.74873  0.94721  0.23718  1.0000
  Fe  Fe98      1.0  0.74838  0.75432  0.07129  1.0000
  C   C737      1.0  0.60571  0.98137  0.32715  1.0000
  N   N48       1.0  0.60136  0.99163  0.30232  1.0000
  H   H872      1.0  0.51861  0.84958  0.41303  1.0000
  H   H873      1.0  0.55459  0.97483  0.41078  1.0000
  C   C738      1.0  0.53657  0.58244  0.17532  1.0000
  C   C739      1.0  0.51008  0.51670  0.05130  1.0000
  N   N49       1.0  0.52930  0.98425  0.44015  1.0000
  C   C740      1.0  0.51284  0.59097  0.17021  1.0000
  H   H874      1.0  0.53578  0.55724  0.03277  1.0000
  H   H875      1.0  0.54229  0.83954  0.48658  1.0000
  H   H876      1.0  0.56028  0.95928  0.43906  1.0000
  H   H877      1.0  0.55208  0.59434  0.17265  1.0000
  H   H878      1.0  0.73694  0.72593  0.02399  1.0000
  C   C741      1.0  0.52084  0.54278  0.18625  1.0000
  C   C742      1.0  0.54717  0.54218  0.02461  1.0000
  S   S189      1.0  0.51556  0.97720  0.32987  1.0000
  C   C743      1.0  0.51337  0.90157  0.45462  1.0000
  C   C744      1.0  0.51531  0.89749  0.49915  1.0000
  H   H879      1.0  0.62516  0.97577  0.32979  1.0000
  C   C745      1.0  0.50358  0.53599  0.12003  1.0000
  C   C746      1.0  0.57242  0.50626  0.03161  1.0000
  H   H880      1.0  0.56356  0.98028  0.30277  1.0000
  S   S190      1.0  0.65148  0.50513  0.03757  1.0000
  S   S191      1.0  0.74956  0.77610  0.03561  1.0000
  C   C747      1.0  0.53522  0.51116  0.05585  1.0000
  C   C748      1.0  0.68707  0.78995  0.00532  1.0000
  H   H881      1.0  0.50413  0.53123  0.03906  1.0000
  C   C749      1.0  0.57469  0.99710  0.30025  1.0000
  N   N50       1.0  0.73197  0.50441  0.15779  1.0000
  H   H882      1.0  0.50312  0.90071  0.43787  1.0000
  C   C750      1.0  0.50369  0.83538  0.48094  1.0000
  H   H883      1.0  0.71940  0.00388  0.20262  1.0000
  Fe  Fe99      1.0  0.64544  0.55812  0.87857  1.0000
  S   S192      1.0  0.60678  0.57202  0.88502  1.0000
  S   S193      1.0  0.68077  0.57777  0.86952  1.0000
  Fe  Fe100     1.0  0.60875  0.55094  0.92040  1.0000
  S   S194      1.0  0.59465  0.56516  0.95645  1.0000
  Fe  Fe101     1.0  0.59569  0.53560  0.86974  1.0000
  S   S195      1.0  0.56226  0.53064  0.84619  1.0000
  S   S196      1.0  0.64810  0.54025  0.91558  1.0000
  H   H884      1.0  0.68822  0.52738  0.88253  1.0000
  C   C751      1.0  0.52950  0.97504  0.51870  1.0000
  S   S197      1.0  0.69846  0.73951  0.87772  1.0000
  H   H885      1.0  0.71401  0.67644  0.90564  1.0000
  C   C752      1.0  0.66546  0.60229  0.97379  1.0000
  Fe  Fe102     1.0  0.71404  0.77127  0.85673  1.0000
  S   S198      1.0  0.68990  0.80476  0.84983  1.0000
  Fe  Fe103     1.0  0.71407  0.71589  0.84789  1.0000
  S   S199      1.0  0.68683  0.68871  0.83370  1.0000
  H   H886      1.0  0.69313  0.68875  0.95558  1.0000
  Fe  Fe104     1.0  0.54250  0.89965  0.61162  1.0000
  S   S200      1.0  0.55422  0.91124  0.57373  1.0000
  S   S201      1.0  0.56882  0.87813  0.63597  1.0000
  Fe  Fe105     1.0  0.53928  0.94784  0.58533  1.0000
  S   S202      1.0  0.56085  0.98186  0.57847  1.0000
  C   C753      1.0  0.74704  0.96846  0.78190  1.0000
  C   C754      1.0  0.68832  0.63918  0.96552  1.0000
  S   S203      1.0  0.52969  0.93692  0.62378  1.0000
  H   H887      1.0  0.63124  0.92415  0.60412  1.0000
  Fe  Fe106     1.0  0.68547  0.92390  0.71123  1.0000
  S   S204      1.0  0.69935  0.94624  0.74274  1.0000
  S   S205      1.0  0.64999  0.93691  0.69315  1.0000
  Fe  Fe107     1.0  0.71760  0.91097  0.75563  1.0000
  S   S206      1.0  0.72730  0.89996  0.79450  1.0000
  Fe  Fe108     1.0  0.73280  0.95120  0.71941  1.0000
  H   H888      1.0  0.51850  0.94463  0.68359  1.0000
  S   S207      1.0  0.70044  0.88806  0.72663  1.0000
  S   S208      1.0  0.71849  0.93040  0.68738  1.0000
  H   H889      1.0  0.51387  0.65475  0.86917  1.0000
  C   C755      1.0  0.51231  0.52603  0.85150  1.0000
  C   C756      1.0  0.62483  0.88611  0.59736  1.0000
  H   H890      1.0  0.55048  0.90430  0.51489  1.0000
  H   H891      1.0  0.68440  0.98166  0.68808  1.0000
  H   H892      1.0  0.72179  0.66230  0.93412  1.0000
  H   H893      1.0  0.73342  0.97659  0.79484  1.0000
  C   C757      1.0  0.59208  0.89425  0.65113  1.0000
  C   C758      1.0  0.59561  0.91925  0.64667  1.0000
  C   C759      1.0  0.61388  0.93180  0.65925  1.0000
  C   C760      1.0  0.62879  0.91957  0.67644  1.0000
  C   C761      1.0  0.62550  0.89449  0.68071  1.0000
  C   C762      1.0  0.60728  0.88188  0.66801  1.0000
  H   H894      1.0  0.58439  0.92888  0.63337  1.0000
  H   H895      1.0  0.61646  0.95113  0.65563  1.0000
  H   H896      1.0  0.63645  0.88499  0.69432  1.0000
  H   H897      1.0  0.60462  0.86255  0.67159  1.0000
  C   C763      1.0  0.70161  0.82926  0.83214  1.0000
  C   C764      1.0  0.68644  0.84147  0.81517  1.0000
  C   C765      1.0  0.69457  0.86249  0.80255  1.0000
  C   C766      1.0  0.71761  0.87196  0.80754  1.0000
  C   C767      1.0  0.74677  0.76140  0.96269  1.0000
  C   C768      1.0  0.72505  0.83814  0.83635  1.0000
  H   H898      1.0  0.68259  0.87195  0.78977  1.0000
  C   C769      1.0  0.68528  0.81395  0.99648  1.0000
  S   S209      1.0  0.72677  0.74817  0.82529  1.0000
  H   H899      1.0  0.69172  0.61712  0.99839  1.0000
  H   H900      1.0  0.58263  0.99063  0.65539  1.0000
  H   H901      1.0  0.71219  0.64366  0.90908  1.0000
  Fe  Fe109     1.0  0.73522  0.73533  0.89531  1.0000
  C   C770      1.0  0.67663  0.64268  0.94260  1.0000
  C   C771      1.0  0.52469  0.62012  0.85361  1.0000
  C   C772      1.0  0.61083  0.54915  0.97917  1.0000
  C   C773      1.0  0.62162  0.52638  0.97375  1.0000
  S   S210      1.0  0.59541  0.51559  0.90570  1.0000
  C   C774      1.0  0.53377  0.53605  0.86092  1.0000
  H   H902      1.0  0.54857  0.55875  0.88900  1.0000
  C   C775      1.0  0.53224  0.55051  0.88191  1.0000
  C   C776      1.0  0.52123  0.00247  0.60131  1.0000
  C   C777      1.0  0.68191  0.60870  0.85982  1.0000
  C   C778      1.0  0.66151  0.62086  0.84988  1.0000
  C   C779      1.0  0.66342  0.64529  0.84159  1.0000
  C   C780      1.0  0.68548  0.65793  0.84383  1.0000
  C   C781      1.0  0.70579  0.64587  0.85409  1.0000
  C   C782      1.0  0.70407  0.62123  0.86173  1.0000
  H   H903      1.0  0.64444  0.61131  0.84809  1.0000
  H   H904      1.0  0.64769  0.65450  0.83353  1.0000
  H   H905      1.0  0.72292  0.65537  0.85565  1.0000
  H   H906      1.0  0.71998  0.61184  0.86921  1.0000
  N   N51       1.0  0.68387  0.80321  0.92731  1.0000
  C   C783      1.0  0.70801  0.79531  0.91729  1.0000
  H   H907      1.0  0.66353  0.79234  0.89550  1.0000
  C   C784      1.0  0.67971  0.82928  0.92000  1.0000
  C   C785      1.0  0.68377  0.79904  0.95415  1.0000
  C   C786      1.0  0.68555  0.77481  0.96385  1.0000
  C   C787      1.0  0.68357  0.81858  0.97129  1.0000
  H   H908      1.0  0.64778  0.66832  0.90927  1.0000
  C   C788      1.0  0.68153  0.00138  0.68668  1.0000
  H   H909      1.0  0.54790  0.53179  0.92806  1.0000
  H   H910      1.0  0.71155  0.77530  0.92000  1.0000
  H   H911      1.0  0.70937  0.79907  0.89729  1.0000
  H   H912      1.0  0.72316  0.80515  0.92624  1.0000
  C   C789      1.0  0.51677  0.59826  0.84365  1.0000
  H   H913      1.0  0.67894  0.89607  0.66688  1.0000
  C   C790      1.0  0.50761  0.63777  0.86138  1.0000
  H   H914      1.0  0.67912  0.83150  0.89964  1.0000
  H   H915      1.0  0.66195  0.83656  0.92733  1.0000
  H   H916      1.0  0.69481  0.84114  0.92615  1.0000
  H   H917      1.0  0.70206  0.65169  0.97168  1.0000
  C   C791      1.0  0.70882  0.66142  0.91859  1.0000
  H   H918      1.0  0.66819  0.83484  0.81200  1.0000
  H   H919      1.0  0.58234  0.96042  0.68809  1.0000
  Fe  Fe110     1.0  0.73467  0.89642  0.70498  1.0000
  C   C792      1.0  0.67977  0.68716  0.94047  1.0000
  C   C793      1.0  0.61309  0.55896  0.00265  1.0000
  H   H920      1.0  0.66782  0.76856  0.91737  1.0000
  C   C794      1.0  0.73978  0.73684  0.96225  1.0000
  H   H921      1.0  0.64388  0.99986  0.69769  1.0000
  H   H922      1.0  0.66987  0.64969  0.89272  1.0000
  C   C795      1.0  0.56225  0.99118  0.65504  1.0000
  H   H923      1.0  0.70138  0.87332  0.67569  1.0000
  H   H924      1.0  0.72877  0.88452  0.63954  1.0000
  C   C796      1.0  0.65941  0.62470  0.93577  1.0000
  H   H925      1.0  0.55858  0.00087  0.51829  1.0000
  H   H926      1.0  0.72818  0.81469  0.74962  1.0000
  H   H927      1.0  0.70714  0.90842  0.63461  1.0000
  H   H928      1.0  0.51339  0.51494  0.83516  1.0000
  H   H929      1.0  0.64618  0.79304  0.92369  1.0000
  H   H930      1.0  0.67270  0.68203  0.89275  1.0000
  H   H931      1.0  0.55860  0.94559  0.67205  1.0000
  C   C797      1.0  0.65971  0.90093  0.61946  1.0000
  H   H932      1.0  0.50851  0.56594  0.90976  1.0000
  H   H933      1.0  0.53015  0.58446  0.83779  1.0000
  C   C798      1.0  0.73282  0.85967  0.82442  1.0000
  H   H934      1.0  0.60756  0.88968  0.58823  1.0000
  H   H935      1.0  0.69495  0.53594  0.83994  1.0000
  H   H936      1.0  0.75057  0.86701  0.82853  1.0000
  C   C799      1.0  0.63461  0.51334  0.99171  1.0000
  C   C800      1.0  0.52430  0.98406  0.67707  1.0000
  N   N52       1.0  0.69134  0.87219  0.63779  1.0000
  C   C801      1.0  0.68526  0.87679  0.66382  1.0000
  C   C802      1.0  0.70129  0.84668  0.63588  1.0000
  C   C803      1.0  0.71122  0.88894  0.63003  1.0000
  C   C804      1.0  0.66901  0.87667  0.62310  1.0000
  H   H937      1.0  0.54414  0.62328  0.85539  1.0000
  C   C805      1.0  0.65488  0.85727  0.61368  1.0000
  Fe  Fe111     1.0  0.51547  0.90371  0.56277  1.0000
  H   H938      1.0  0.55467  0.95326  0.70403  1.0000
  H   H939      1.0  0.53021  0.97227  0.53831  1.0000
  H   H940      1.0  0.67034  0.86467  0.67038  1.0000
  H   H941      1.0  0.57895  0.00149  0.70055  1.0000
  C   C806      1.0  0.66451  0.78865  0.91561  1.0000
  H   H942      1.0  0.68877  0.83308  0.64434  1.0000
  H   H943      1.0  0.71891  0.84433  0.64592  1.0000
  H   H944      1.0  0.70498  0.84166  0.61646  1.0000
  S   S211      1.0  0.74956  0.76939  0.87708  1.0000
  H   H945      1.0  0.66101  0.68885  0.94849  1.0000
  H   H946      1.0  0.71476  0.88773  0.60998  1.0000
  Fe  Fe112     1.0  0.63485  0.50614  0.89772  1.0000
  H   H947      1.0  0.65991  0.83821  0.61627  1.0000
  H   H948      1.0  0.54886  0.53085  0.96064  1.0000
  H   H949      1.0  0.68695  0.75905  0.95199  1.0000
  C   C807      1.0  0.73447  0.52576  0.86634  1.0000
  C   C808      1.0  0.54543  0.99127  0.50730  1.0000
  H   H950      1.0  0.54976  0.99807  0.71567  1.0000
  C   C809      1.0  0.73660  0.72411  0.98449  1.0000
  C   C810      1.0  0.51029  0.96244  0.67990  1.0000
  H   H951      1.0  0.72710  0.54500  0.86704  1.0000
  H   H952      1.0  0.73137  0.70506  0.98435  1.0000
  S   S212      1.0  0.63439  0.52313  0.86007  1.0000
  H   H953      1.0  0.61985  0.51861  0.95573  1.0000
  C   C811      1.0  0.65395  0.60493  0.95127  1.0000
  C   C812      1.0  0.69639  0.50871  0.88028  1.0000
  C   C813      1.0  0.63821  0.90551  0.60637  1.0000
  H   H954      1.0  0.62213  0.84706  0.59468  1.0000
  H   H955      1.0  0.68261  0.83761  0.96573  1.0000
  C   C814      1.0  0.51306  0.96192  0.50482  1.0000
  H   H956      1.0  0.74139  0.97383  0.76311  1.0000
  H   H957      1.0  0.55655  0.97861  0.64026  1.0000
  C   C815      1.0  0.68691  0.77043  0.98906  1.0000
  H   H958      1.0  0.66843  0.91656  0.62745  1.0000
  H   H959      1.0  0.64994  0.62527  0.91849  1.0000
  H   H960      1.0  0.68292  0.70346  0.92847  1.0000
  C   C816      1.0  0.63309  0.86207  0.60109  1.0000
  C   C817      1.0  0.66754  0.66606  0.90451  1.0000
  H   H961      1.0  0.72808  0.79689  0.77758  1.0000
  N   N53       1.0  0.55135  0.98404  0.67900  1.0000
  C   C818      1.0  0.50952  0.55462  0.89359  1.0000
  N   N54       1.0  0.68292  0.66389  0.92673  1.0000
  C   C819      1.0  0.56208  0.95978  0.68612  1.0000
  H   H962      1.0  0.73677  0.82906  0.84961  1.0000
  S   S213      1.0  0.73438  0.72115  0.93463  1.0000
  H   H963      1.0  0.64073  0.59146  0.94574  1.0000
  H   H964      1.0  0.68890  0.75181  0.99603  1.0000
  C   C820      1.0  0.53716  0.52677  0.94473  1.0000
  S   S214      1.0  0.75032  0.70976  0.86639  1.0000
  H   H965      1.0  0.74273  0.52197  0.88452  1.0000
  C   C821      1.0  0.55877  0.00199  0.69771  1.0000
  H   H966      1.0  0.71215  0.00280  0.74693  1.0000
  C   C822      1.0  0.68267  0.61935  0.98089  1.0000
  H   H967      1.0  0.74944  0.52517  0.85236  1.0000
  S   S215      1.0  0.50469  0.88824  0.59976  1.0000
  H   H968      1.0  0.72858  0.82928  0.77894  1.0000
  C   C823      1.0  0.73585  0.81332  0.76841  1.0000
  C   C824      1.0  0.74990  0.77324  0.98529  1.0000
  H   H969      1.0  0.74529  0.94819  0.78354  1.0000
  H   H970      1.0  0.71600  0.51802  0.82202  1.0000
  H   H971      1.0  0.51242  0.98509  0.59897  1.0000
  C   C825      1.0  0.70288  0.51707  0.83769  1.0000
  S   S216      1.0  0.75190  0.98756  0.71324  1.0000
  N   N55       1.0  0.71505  0.50815  0.86041  1.0000
  H   H972      1.0  0.66111  0.58687  0.98566  1.0000
  H   H973      1.0  0.52106  0.53959  0.94574  1.0000
  H   H974      1.0  0.74979  0.77125  0.94572  1.0000
  S   S217      1.0  0.75224  0.86465  0.68416  1.0000
  H   H975      1.0  0.75163  0.76380  0.77013  1.0000
  H   H976      1.0  0.68730  0.50523  0.83273  1.0000
  S   S218      1.0  0.75234  0.91775  0.73451  1.0000
  Fe  Fe113     1.0  0.79355  0.31155  0.13523  1.0000
  S   S219      1.0  0.82989  0.29791  0.15056  1.0000
  C   C826      1.0  0.87780  0.22532  0.20883  1.0000
  S   S220      1.0  0.78820  0.33338  0.10039  1.0000
  Fe  Fe114     1.0  0.89559  0.30228  0.27562  1.0000
  S   S221      1.0  0.90903  0.26596  0.26117  1.0000
  S   S222      1.0  0.86957  0.32764  0.25507  1.0000
  Fe  Fe115     1.0  0.91556  0.29271  0.32680  1.0000
  S   S223      1.0  0.92950  0.25534  0.31608  1.0000
  S   S224      1.0  0.92539  0.30054  0.36618  1.0000
  Fe  Fe116     1.0  0.94357  0.27354  0.28200  1.0000
  S   S225      1.0  0.98103  0.25864  0.27050  1.0000
  Fe  Fe117     1.0  0.89407  0.25110  0.29648  1.0000
  S   S226      1.0  0.87454  0.21488  0.29725  1.0000
  S   S227      1.0  0.93154  0.31147  0.29362  1.0000
  S   S228      1.0  0.87874  0.28684  0.31006  1.0000
  Fe  Fe118     1.0  0.88986  0.38679  0.46966  1.0000
  S   S229      1.0  0.92857  0.39937  0.47035  1.0000
  S   S230      1.0  0.87318  0.38177  0.43230  1.0000
  C   C827      1.0  0.79006  0.02574  0.23223  1.0000
  C   C828      1.0  0.76196  0.10525  0.20281  1.0000
  H   H977      1.0  0.99469  0.31644  0.38927  1.0000
  H   H978      1.0  0.86847  0.23471  0.41052  1.0000
  S   S231      1.0  0.93217  0.46438  0.49178  1.0000
  C   C829      1.0  0.81287  0.24640  0.38421  1.0000
  H   H979      1.0  0.87313  0.19610  0.24610  1.0000
  S   S232      1.0  0.76817  0.28202  0.12351  1.0000
  H   H980      1.0  0.75481  0.00929  0.17503  1.0000
  H   H981      1.0  0.83044  0.45794  0.43233  1.0000
  C   C830      1.0  0.98758  0.27023  0.36740  1.0000
  H   H982      1.0  0.84588  0.45709  0.46123  1.0000
  S   S233      1.0  0.87568  0.41653  0.49486  1.0000
  H   H983      1.0  0.78064  0.21693  0.15364  1.0000
  C   C831      1.0  0.79239  0.28542  0.24578  1.0000
  H   H984      1.0  0.81541  0.24464  0.14724  1.0000
  H   H985      1.0  0.81134  0.26312  0.39467  1.0000
  C   C832      1.0  0.84230  0.21369  0.29789  1.0000
  C   C833      1.0  0.83114  0.19098  0.29470  1.0000
  C   C834      1.0  0.80551  0.18918  0.29522  1.0000
  C   C835      1.0  0.79089  0.20998  0.29982  1.0000
  C   C836      1.0  0.80204  0.23274  0.30305  1.0000
  C   C837      1.0  0.82768  0.23468  0.30175  1.0000
  H   H986      1.0  0.84235  0.17463  0.29194  1.0000
  H   H987      1.0  0.79711  0.17151  0.29304  1.0000
  H   H988      1.0  0.79081  0.24883  0.30696  1.0000
  H   H989      1.0  0.83610  0.25224  0.30439  1.0000
  H   H990      1.0  0.86043  0.24039  0.25190  1.0000
  H   H991      1.0  0.84147  0.19127  0.24570  1.0000
  C   C838      1.0  0.83414  0.23284  0.17999  1.0000
  H   H992      1.0  0.86988  0.28991  0.36815  1.0000
  H   H993      1.0  0.81657  0.36199  0.04096  1.0000
  C   C839      1.0  0.91032  0.32315  0.38406  1.0000
  C   C840      1.0  0.91706  0.32563  0.40864  1.0000
  C   C841      1.0  0.90577  0.34358  0.42349  1.0000
  C   C842      1.0  0.88747  0.35905  0.41393  1.0000
  C   C843      1.0  0.88053  0.35641  0.38939  1.0000
  C   C844      1.0  0.89198  0.33856  0.37444  1.0000
  H   H994      1.0  0.93115  0.31370  0.41625  1.0000
  H   H995      1.0  0.91109  0.34533  0.44242  1.0000
  H   H996      1.0  0.86636  0.36832  0.38189  1.0000
  H   H997      1.0  0.88670  0.33684  0.35549  1.0000
  H   H998      1.0  0.79607  0.44648  0.15383  1.0000
  H   H999      1.0  0.84992  0.26181  0.41516  1.0000
  C   C845      1.0  0.84070  0.30687  0.17948  1.0000
  C   C846      1.0  0.82846  0.32463  0.19359  1.0000
  C   C847      1.0  0.83746  0.33082  0.21677  1.0000
  C   C848      1.0  0.85861  0.31918  0.22607  1.0000
  C   C849      1.0  0.87085  0.30147  0.21192  1.0000
  C   C850      1.0  0.86208  0.29558  0.18861  1.0000
  H   H1000     1.0  0.81230  0.33386  0.18651  1.0000
  H   H1001     1.0  0.82811  0.34482  0.22747  1.0000
  H   H1002     1.0  0.88757  0.29297  0.21855  1.0000
  H   H1003     1.0  0.87219  0.28260  0.17736  1.0000
  H   H1004     1.0  0.82880  0.23412  0.24677  1.0000
  H   H1005     1.0  0.75960  0.25079  0.27023  1.0000
  C   C851      1.0  0.76730  0.47411  0.15633  1.0000
  H   H1006     1.0  0.99391  0.31028  0.27535  1.0000
  H   H1007     1.0  0.97893  0.31472  0.34871  1.0000
  C   C852      1.0  0.82309  0.32920  0.02012  1.0000
  C   C853      1.0  0.77237  0.29453  0.20784  1.0000
  C   C854      1.0  0.86468  0.25362  0.40348  1.0000
  H   H1008     1.0  0.88554  0.22534  0.36967  1.0000
  H   H1009     1.0  0.80528  0.01844  0.22158  1.0000
  H   H1010     1.0  0.84431  0.25655  0.22813  1.0000
  H   H1011     1.0  0.97802  0.29331  0.32420  1.0000
  H   H1012     1.0  0.80617  0.06120  0.23566  1.0000
  C   C855      1.0  0.97031  0.36651  0.40418  1.0000
  C   C856      1.0  0.77695  0.25279  0.22085  1.0000
  H   H1013     1.0  0.87259  0.42994  0.40621  1.0000
  H   H1014     1.0  0.89422  0.43381  0.44344  1.0000
  H   H1015     1.0  0.86035  0.17986  0.22079  1.0000
  C   C857      1.0  0.87944  0.24385  0.36317  1.0000
  H   H1016     1.0  0.86414  0.49327  0.46841  1.0000
  C   C858      1.0  0.85289  0.27890  0.36897  1.0000
  H   H1017     1.0  0.82432  0.31750  0.03626  1.0000
  C   C859      1.0  0.81865  0.35427  0.02280  1.0000
  H   H1018     1.0  0.85239  0.20788  0.35319  1.0000
  C   C860      1.0  0.91522  0.49119  0.49911  1.0000
  C   C861      1.0  0.77729  0.45047  0.15933  1.0000
  H   H1019     1.0  0.90835  0.46258  0.43609  1.0000
  C   C862      1.0  0.97155  0.36563  0.42962  1.0000
  C   C863      1.0  0.76767  0.09669  0.16014  1.0000
  H   H1020     1.0  0.81237  0.38868  0.00429  1.0000
  H   H1021     1.0  0.84789  0.43117  0.44176  1.0000
  C   C864      1.0  0.77047  0.01065  0.23843  1.0000
  C   C865      1.0  0.85720  0.19549  0.23348  1.0000
  C   C866      1.0  0.81451  0.20254  0.35821  1.0000
  C   C867      1.0  0.81349  0.20220  0.20458  1.0000
  H   H1022     1.0  0.78872  0.30394  0.25364  1.0000
  H   H1023     1.0  0.88261  0.21307  0.19323  1.0000
  H   H1024     1.0  0.87842  0.24469  0.20237  1.0000
  H   H1025     1.0  0.77555  0.20162  0.36396  1.0000
  C   C868      1.0  0.83423  0.21738  0.20109  1.0000
  C   C869      1.0  0.99055  0.37716  0.44175  1.0000
  Fe  Fe119     1.0  0.75712  0.35219  0.12071  1.0000
  H   H1026     1.0  0.77254  0.11601  0.15570  1.0000
  N   N56       1.0  0.77211  0.27810  0.22966  1.0000
  N   N57       1.0  0.85788  0.25327  0.37728  1.0000
  S   S234      1.0  0.76494  0.33275  0.15633  1.0000
  C   C870      1.0  0.84643  0.23837  0.23739  1.0000
  H   H1027     1.0  0.79513  0.27241  0.26134  1.0000
  C   C871      1.0  0.81510  0.23244  0.16309  1.0000
  N   N58       1.0  0.85364  0.21898  0.21979  1.0000
  H   H1028     1.0  0.81012  0.28640  0.23559  1.0000
  H   H1029     1.0  0.79375  0.25186  0.20926  1.0000
  S   S235      1.0  0.75624  0.28904  0.05287  1.0000
  H   H1030     1.0  0.95535  0.35784  0.39486  1.0000
  Fe  Fe120     1.0  0.75998  0.30589  0.09057  1.0000
  C   C872      1.0  0.79454  0.20191  0.18748  1.0000
  H   H1031     1.0  0.84839  0.24584  0.17634  1.0000
  C   C873      1.0  0.86779  0.48899  0.42875  1.0000
  S   S236      1.0  0.77430  0.09062  0.26429  1.0000
  H   H1032     1.0  0.85551  0.45508  0.39337  1.0000
  H   H1033     1.0  0.81121  0.19077  0.22065  1.0000
  C   C874      1.0  0.79543  0.21692  0.16674  1.0000
  C   C875      1.0  0.79145  0.23326  0.38056  1.0000
  H   H1034     1.0  0.88990  0.45954  0.46307  1.0000
  H   H1035     1.0  0.84020  0.28907  0.38143  1.0000
  C   C876      1.0  0.79045  0.05013  0.24001  1.0000
  H   H1036     1.0  0.81498  0.18561  0.34789  1.0000
  H   H1037     1.0  0.89557  0.25592  0.36498  1.0000
  C   C877      1.0  0.79224  0.21150  0.36736  1.0000
  C   C878      1.0  0.84747  0.45166  0.44170  1.0000
  H   H1038     1.0  0.87536  0.24275  0.34329  1.0000
  C   C879      1.0  0.83572  0.23833  0.37423  1.0000
  H   H1039     1.0  0.84464  0.27924  0.35040  1.0000
  H   H1040     1.0  0.89287  0.22375  0.22243  1.0000
  H   H1041     1.0  0.88138  0.26470  0.40640  1.0000
  C   C880      1.0  0.83599  0.21567  0.36145  1.0000
  H   H1042     1.0  0.97563  0.28225  0.37894  1.0000
  H   H1043     1.0  0.77858  0.09420  0.20775  1.0000
  C   C881      1.0  0.99060  0.30248  0.33708  1.0000
  C   C882      1.0  0.77091  0.06027  0.25349  1.0000
  H   H1044     1.0  0.75995  0.08863  0.14327  1.0000
  H   H1045     1.0  0.78529  0.08713  0.16454  1.0000
  H   H1046     1.0  0.95756  0.35618  0.44014  1.0000
  N   N59       1.0  0.86952  0.46181  0.42946  1.0000
  H   H1047     1.0  0.97478  0.25941  0.35616  1.0000
  H   H1048     1.0  0.99763  0.25727  0.37974  1.0000
  H   H1049     1.0  0.78985  0.29284  0.19728  1.0000
  C   C883      1.0  0.86936  0.50287  0.40661  1.0000
  C   C884      1.0  0.87165  0.45040  0.40488  1.0000
  H   H1050     1.0  0.77911  0.48802  0.14884  1.0000
  H   H1051     1.0  0.76931  0.04989  0.16461  1.0000
  H   H1052     1.0  0.88869  0.45600  0.39517  1.0000
  C   C885      1.0  0.89142  0.45411  0.44356  1.0000
  H   H1053     1.0  0.99044  0.37610  0.46154  1.0000
  H   H1054     1.0  0.77948  0.23929  0.23600  1.0000
  H   H1055     1.0  0.77054  0.41319  0.17040  1.0000
  H   H1056     1.0  0.76733  0.12472  0.20020  1.0000
  H   H1057     1.0  0.77876  0.19037  0.19058  1.0000
  H   H1058     1.0  0.77407  0.24006  0.38778  1.0000
  S   S237      1.0  0.75920  0.15805  0.25252  1.0000
  S   S238      1.0  0.75885  0.20777  0.30281  1.0000
  C   C886      1.0  0.86506  0.50245  0.45081  1.0000
  H   H1059     1.0  0.98723  0.37927  0.37092  1.0000
  C   C887      1.0  0.75536  0.30686  0.02566  1.0000
  H   H1060     1.0  0.76149  0.24636  0.20951  1.0000
  C   C888      1.0  0.75990  0.33199  0.02584  1.0000
  H   H1061     1.0  0.76428  0.34077  0.04290  1.0000
  H   H1062     1.0  0.77012  0.31418  0.21295  1.0000
  H   H1063     1.0  0.87157  0.49437  0.38893  1.0000
  S   S239      1.0  0.89499  0.35862  0.49964  1.0000
  Fe  Fe121     1.0  0.91506  0.42727  0.49750  1.0000
  C   C889      1.0  0.98826  0.37869  0.39074  1.0000
  H   H1064     1.0  0.75775  0.28976  0.19480  1.0000
  H   H1065     1.0  0.76312  0.36501  0.00405  1.0000
  S   S240      1.0  0.75374  0.39317  0.11430  1.0000
  C   C890      1.0  0.76301  0.43170  0.16887  1.0000
  C   C891      1.0  0.75925  0.34564  0.00385  1.0000
  C   C892      1.0  0.75345  0.04891  0.17645  1.0000
  Fe  Fe122     1.0  0.93256  0.37413  0.50248  1.0000
  H   H1066     1.0  0.92007  0.36775  0.60684  1.0000
  H   H1067     1.0  0.80049  0.24671  0.72831  1.0000
  Fe  Fe123     1.0  0.78209  0.33778  0.86785  1.0000
  S   S241      1.0  0.82180  0.33678  0.85568  1.0000
  Fe  Fe124     1.0  0.87612  0.31532  0.72335  1.0000
  S   S242      1.0  0.90431  0.29320  0.74396  1.0000
  S   S243      1.0  0.84294  0.33416  0.74086  1.0000
  Fe  Fe125     1.0  0.89741  0.30081  0.67314  1.0000
  S   S244      1.0  0.92663  0.27697  0.69033  1.0000
  S   S245      1.0  0.89934  0.29942  0.63164  1.0000
  Fe  Fe126     1.0  0.89682  0.26437  0.71590  1.0000
  S   S246      1.0  0.89349  0.22436  0.72630  1.0000
  Fe  Fe127     1.0  0.93152  0.30796  0.71634  1.0000
  S   S247      1.0  0.96859  0.32462  0.72441  1.0000
  S   S248      1.0  0.86724  0.28552  0.69667  1.0000
  S   S249      1.0  0.90371  0.33276  0.69777  1.0000
  Fe  Fe128     1.0  0.88436  0.38933  0.52514  1.0000
  S   S250      1.0  0.92233  0.40292  0.52989  1.0000
  S   S251      1.0  0.86318  0.38526  0.56062  1.0000
  C   C893      1.0  0.79064  0.04025  0.76397  1.0000
  S   S252      1.0  0.80561  0.15807  0.69397  1.0000
  C   C894      1.0  0.79966  0.25779  0.79041  1.0000
  H   H1068     1.0  0.98932  0.38521  0.57414  1.0000
  C   C895      1.0  0.96782  0.33654  0.65244  1.0000
  C   C896      1.0  0.81823  0.35922  0.97865  1.0000
  C   C897      1.0  0.79845  0.23199  0.65342  1.0000
  H   H1069     1.0  0.80260  0.28707  0.84575  1.0000
  C   C898      1.0  0.86762  0.20680  0.71934  1.0000
  C   C899      1.0  0.87017  0.18121  0.71968  1.0000
  C   C900      1.0  0.85070  0.16642  0.71282  1.0000
  C   C901      1.0  0.82808  0.17697  0.70650  1.0000
  C   C902      1.0  0.82514  0.20257  0.70687  1.0000
  C   C903      1.0  0.84505  0.21752  0.71280  1.0000
  H   H1070     1.0  0.88756  0.17275  0.72459  1.0000
  H   H1071     1.0  0.85327  0.14669  0.71218  1.0000
  H   H1072     1.0  0.80784  0.21078  0.70148  1.0000
  H   H1073     1.0  0.84306  0.23724  0.71191  1.0000
  H   H1074     1.0  0.78508  0.22054  0.78746  1.0000
  H   H1075     1.0  0.83503  0.35518  0.92997  1.0000
  H   H1076     1.0  0.99831  0.34733  0.79426  1.0000
  S   S253      1.0  0.96666  0.35119  0.50743  1.0000
  H   H1077     1.0  0.97292  0.34359  0.57009  1.0000
  C   C904      1.0  0.88868  0.32346  0.61248  1.0000
  C   C905      1.0  0.89476  0.32270  0.58747  1.0000
  C   C906      1.0  0.88728  0.34173  0.57157  1.0000
  C   C907      1.0  0.87295  0.36132  0.58040  1.0000
  C   C908      1.0  0.86653  0.36191  0.60538  1.0000
  C   C909      1.0  0.87462  0.34317  0.62147  1.0000
  H   H1078     1.0  0.90548  0.30741  0.58036  1.0000
  H   H1079     1.0  0.89221  0.34100  0.55237  1.0000
  H   H1080     1.0  0.85544  0.37703  0.61233  1.0000
  H   H1081     1.0  0.86979  0.34389  0.64072  1.0000
  C   C910      1.0  0.82803  0.33708  0.82381  1.0000
  C   C911      1.0  0.85076  0.32826  0.81499  1.0000
  C   C912      1.0  0.85576  0.32746  0.78963  1.0000
  C   C913      1.0  0.83819  0.33593  0.77293  1.0000
  C   C914      1.0  0.81571  0.34531  0.78183  1.0000
  C   C915      1.0  0.81051  0.34561  0.80712  1.0000
  H   H1082     1.0  0.86444  0.32168  0.82778  1.0000
  H   H1083     1.0  0.87320  0.32034  0.78303  1.0000
  H   H1084     1.0  0.80208  0.35203  0.76906  1.0000
  H   H1085     1.0  0.79303  0.35265  0.81367  1.0000
  C   C916      1.0  0.79254  0.28525  0.75580  1.0000
  N   N60       1.0  0.95709  0.37190  0.59296  1.0000
  H   H1086     1.0  0.85530  0.29754  0.96144  1.0000
  C   C917      1.0  0.95470  0.35140  0.57548  1.0000
  H   H1087     1.0  0.80687  0.22473  0.75194  1.0000
  C   C918      1.0  0.96895  0.36286  0.61567  1.0000
  H   H1088     1.0  0.81456  0.29134  0.64485  1.0000
  H   H1089     1.0  0.77692  0.23935  0.74984  1.0000
  C   C919      1.0  0.79907  0.27259  0.83282  1.0000
  C   C920      1.0  0.75299  0.03787  0.71579  1.0000
  C   C921      1.0  0.80863  0.30214  0.94793  1.0000
  H   H1090     1.0  0.80277  0.34808  0.93089  1.0000
  C   C922      1.0  0.93228  0.38188  0.59894  1.0000
  H   H1091     1.0  0.96134  0.39809  0.56340  1.0000
  C   C923      1.0  0.99141  0.37224  0.62432  1.0000
  H   H1092     1.0  0.94538  0.35746  0.55833  1.0000
  H   H1093     1.0  0.80227  0.04855  0.75012  1.0000
  H   H1094     1.0  0.77825  0.26623  0.65447  1.0000
  H   H1095     1.0  0.98134  0.27398  0.71176  1.0000
  H   H1096     1.0  0.82905  0.29952  0.99576  1.0000
  C   C924      1.0  0.98959  0.34641  0.66055  1.0000
  H   H1097     1.0  0.75572  0.07727  0.71879  1.0000
  H   H1098     1.0  0.75364  0.41629  0.85480  1.0000
  N   N61       1.0  0.86722  0.22294  0.64111  1.0000
  C   C925      1.0  0.86786  0.19603  0.64585  1.0000
  C   C926      1.0  0.87540  0.22725  0.61550  1.0000
  C   C927      1.0  0.88511  0.23412  0.65778  1.0000
  C   C928      1.0  0.84265  0.23438  0.64483  1.0000
  C   C929      1.0  0.83937  0.26022  0.64276  1.0000
  C   C930      1.0  0.82134  0.22051  0.64998  1.0000
  C   C931      1.0  0.81643  0.27152  0.64629  1.0000
  H   H1099     1.0  0.85598  0.18606  0.63297  1.0000
  H   H1100     1.0  0.88665  0.18804  0.64369  1.0000
  H   H1101     1.0  0.86189  0.19173  0.66496  1.0000
  H   H1102     1.0  0.86204  0.21986  0.60230  1.0000
  H   H1103     1.0  0.89360  0.21845  0.61176  1.0000
  H   H1104     1.0  0.87738  0.24718  0.61132  1.0000
  H   H1105     1.0  0.88861  0.25361  0.65322  1.0000
  H   H1106     1.0  0.87848  0.23348  0.67701  1.0000
  H   H1107     1.0  0.90330  0.22457  0.65720  1.0000
  H   H1108     1.0  0.85459  0.27196  0.63842  1.0000
  H   H1109     1.0  0.82182  0.20075  0.65199  1.0000
  H   H1110     1.0  0.78382  0.24841  0.86005  1.0000
  C   C932      1.0  0.78969  0.01468  0.76618  1.0000
  C   C933      1.0  0.99806  0.28415  0.71346  1.0000
  Fe  Fe129     1.0  0.76717  0.15843  0.70977  1.0000
  S   S254      1.0  0.77181  0.30943  0.89601  1.0000
  H   H1111     1.0  0.79919  0.30170  0.76526  1.0000
  C   C934      1.0  0.79699  0.24235  0.74795  1.0000
  H   H1112     1.0  0.94368  0.33619  0.58313  1.0000
  C   C935      1.0  0.79602  0.25743  0.65168  1.0000
  H   H1113     1.0  0.84211  0.24802  0.76606  1.0000
  H   H1114     1.0  0.98218  0.30800  0.77991  1.0000
  H   H1115     1.0  0.95849  0.32299  0.66368  1.0000
  N   N62       1.0  0.80510  0.26233  0.76415  1.0000
  H   H1116     1.0  0.81066  0.29322  0.92973  1.0000
  H   H1117     1.0  0.83920  0.28041  0.77146  1.0000
  H   H1118     1.0  0.85469  0.30478  0.92945  1.0000
  H   H1119     1.0  0.78256  0.22100  0.65772  1.0000
  N   N63       1.0  0.82602  0.32251  0.95072  1.0000
  C   C936      1.0  0.78439  0.23215  0.82428  1.0000
  C   C937      1.0  0.83188  0.26506  0.76062  1.0000
  C   C938      1.0  0.78963  0.23549  0.79935  1.0000
  C   C939      1.0  0.80464  0.27599  0.80802  1.0000
  H   H1120     1.0  0.81112  0.28735  0.96180  1.0000
  C   C940      1.0  0.78878  0.25077  0.84092  1.0000
  H   H1121     1.0  0.78940  0.30903  0.94962  1.0000
  C   C941      1.0  0.85134  0.31253  0.94805  1.0000
  H   H1122     1.0  0.77244  0.28435  0.75902  1.0000
  H   H1123     1.0  0.86500  0.32715  0.95090  1.0000
  H   H1124     1.0  0.00139  0.43132  0.52265  1.0000
  S   S255      1.0  0.76373  0.36877  0.88822  1.0000
  C   C942      1.0  0.95767  0.34447  0.63029  1.0000
  C   C943      1.0  0.75418  0.33433  0.98150  1.0000
  S   S256      1.0  0.75870  0.15573  0.75003  1.0000
  C   C944      1.0  0.97081  0.39166  0.58025  1.0000
  H   H1125     1.0  0.79580  0.28890  0.73595  1.0000
  H   H1126     1.0  0.94059  0.33637  0.62498  1.0000
  C   C945      1.0  0.82167  0.34002  0.93011  1.0000
  H   H1127     1.0  0.83666  0.26925  0.74122  1.0000
  H   H1128     1.0  0.93313  0.39699  0.61248  1.0000
  H   H1129     1.0  0.82355  0.33096  0.91192  1.0000
  H   H1130     1.0  0.81280  0.29309  0.80266  1.0000
  C   C946      1.0  0.82545  0.31904  0.99676  1.0000
  H   H1131     1.0  0.88669  0.47279  0.51915  1.0000
  C   C947      1.0  0.99689  0.30908  0.71923  1.0000
  H   H1132     1.0  0.77610  0.21529  0.83060  1.0000
  H   H1133     1.0  0.76791  0.03633  0.70267  1.0000
  H   H1134     1.0  0.97260  0.40809  0.59202  1.0000
  H   H1135     1.0  0.75662  0.43985  0.89309  1.0000
  H   H1136     1.0  0.92266  0.38916  0.58244  1.0000
  H   H1137     1.0  0.81547  0.37177  0.96350  1.0000
  C   C948      1.0  0.82296  0.33370  0.97524  1.0000
  C   C949      1.0  0.89347  0.49027  0.51280  1.0000
  C   C950      1.0  0.75912  0.01918  0.79836  1.0000
  C   C951      1.0  0.98616  0.39597  0.51573  1.0000
  C   C952      1.0  0.99051  0.37066  0.51475  1.0000
  C   C953      1.0  0.81631  0.36925  0.00213  1.0000
  H   H1138     1.0  0.99700  0.34060  0.67801  1.0000
  C   C954      1.0  0.76002  0.04470  0.79577  1.0000
  H   H1139     1.0  0.96851  0.40365  0.51110  1.0000
  H   H1140     1.0  0.98498  0.48341  0.51712  1.0000
  C   C955      1.0  0.77580  0.05520  0.77867  1.0000
  H   H1141     1.0  0.77583  0.07498  0.77616  1.0000
  H   H1142     1.0  0.00145  0.38616  0.61451  1.0000
  C   C956      1.0  0.99933  0.49698  0.51681  1.0000
  S   S257      1.0  0.75432  0.35249  0.95447  1.0000
  C   C957      1.0  0.00178  0.31019  0.78191  1.0000
  C   C958      1.0  0.00148  0.36403  0.64644  1.0000
  H   H1143     1.0  0.80100  0.00430  0.75352  1.0000
  Fe  Fe130     1.0  0.78145  0.72844  0.10836  1.0000
  S   S258      1.0  0.82181  0.72507  0.11675  1.0000
  C   C959      1.0  0.88032  0.72097  0.32022  1.0000
  C   C960      1.0  0.99764  0.76572  0.27570  1.0000
  Fe  Fe131     1.0  0.87810  0.73726  0.24659  1.0000
  S   S259      1.0  0.90221  0.76431  0.22766  1.0000
  S   S260      1.0  0.84778  0.71550  0.22961  1.0000
  Fe  Fe132     1.0  0.89701  0.74851  0.30153  1.0000
  S   S261      1.0  0.92192  0.77825  0.28262  1.0000
  S   S262      1.0  0.89285  0.73536  0.36428  1.0000
  Fe  Fe133     1.0  0.89066  0.78923  0.25833  1.0000
  S   S263      1.0  0.87786  0.82754  0.24781  1.0000
  Fe  Fe134     1.0  0.93155  0.75098  0.25360  1.0000
  S   S264      1.0  0.97046  0.74085  0.24134  1.0000
  S   S265      1.0  0.86527  0.76289  0.27593  1.0000
  S   S266      1.0  0.90810  0.72149  0.26989  1.0000
  H   H1144     1.0  0.81027  0.93897  0.28933  1.0000
  H   H1145     1.0  0.87746  0.93100  0.23605  1.0000
  C   C961      1.0  0.99784  0.74919  0.25623  1.0000
  C   C962      1.0  0.78234  0.84585  0.16157  1.0000
  H   H1146     1.0  0.86088  0.76229  0.05069  1.0000
  H   H1147     1.0  0.84064  0.76916  0.21972  1.0000
  Fe  Fe135     1.0  0.90338  0.63726  0.47035  1.0000
  S   S267      1.0  0.90566  0.63815  0.42890  1.0000
  H   H1148     1.0  0.94021  0.51465  0.47976  1.0000
  C   C963      1.0  0.86752  0.74521  0.32487  1.0000
  S   S268      1.0  0.77513  0.86974  0.28490  1.0000
  H   H1149     1.0  0.75557  0.51429  0.12716  1.0000
  H   H1150     1.0  0.86999  0.73028  0.04698  1.0000
  H   H1151     1.0  0.82504  0.97647  0.25278  1.0000
  H   H1152     1.0  0.86269  0.87311  0.30477  1.0000
  C   C964      1.0  0.88778  0.88520  0.27693  1.0000
  C   C965      1.0  0.84853  0.83766  0.25749  1.0000
  C   C966      1.0  0.83558  0.85489  0.24316  1.0000
  C   C967      1.0  0.81266  0.86416  0.25100  1.0000
  C   C968      1.0  0.80285  0.85683  0.27357  1.0000
  C   C969      1.0  0.81565  0.83937  0.28778  1.0000
  C   C970      1.0  0.83831  0.82960  0.27967  1.0000
  H   H1153     1.0  0.84336  0.86111  0.22594  1.0000
  H   H1154     1.0  0.80271  0.87713  0.23970  1.0000
  H   H1155     1.0  0.80816  0.83356  0.30526  1.0000
  H   H1156     1.0  0.84824  0.81645  0.29091  1.0000
  C   C971      1.0  0.77923  0.84822  0.18677  1.0000
  H   H1157     1.0  0.80945  0.80737  0.24321  1.0000
  C   C972      1.0  0.96261  0.76143  0.33528  1.0000
  C   C973      1.0  0.79348  0.82477  0.15205  1.0000
  C   C974      1.0  0.84744  0.90323  0.28369  1.0000
  C   C975      1.0  0.89578  0.70783  0.38180  1.0000
  C   C976      1.0  0.89672  0.68451  0.37116  1.0000
  C   C977      1.0  0.89976  0.66344  0.38589  1.0000
  C   C978      1.0  0.90147  0.66528  0.41142  1.0000
  C   C979      1.0  0.90014  0.68846  0.42219  1.0000
  C   C980      1.0  0.89737  0.70962  0.40741  1.0000
  H   H1158     1.0  0.89467  0.68235  0.35174  1.0000
  H   H1159     1.0  0.90052  0.64553  0.37748  1.0000
  H   H1160     1.0  0.90138  0.69009  0.44187  1.0000
  H   H1161     1.0  0.89647  0.72749  0.41590  1.0000
  H   H1162     1.0  0.83062  0.90232  0.29420  1.0000
  H   H1163     1.0  0.85599  0.96680  0.24706  1.0000
  H   H1164     1.0  0.98238  0.55081  0.46902  1.0000
  H   H1165     1.0  0.84300  0.80133  0.21287  1.0000
  C   C981      1.0  0.82919  0.72216  0.14806  1.0000
  C   C982      1.0  0.81351  0.71020  0.16444  1.0000
  C   C983      1.0  0.81984  0.70767  0.18923  1.0000
  C   C984      1.0  0.84155  0.71765  0.19799  1.0000
  C   C985      1.0  0.85726  0.72963  0.18162  1.0000
  C   C986      1.0  0.85119  0.73166  0.15667  1.0000
  H   H1166     1.0  0.79673  0.70244  0.15794  1.0000
  H   H1167     1.0  0.80771  0.69820  0.20175  1.0000
  H   H1168     1.0  0.87418  0.73712  0.18812  1.0000
  H   H1169     1.0  0.86354  0.74073  0.14407  1.0000
  H   H1170     1.0  0.79416  0.75124  0.04540  1.0000
  C   C987      1.0  0.83360  0.78419  0.20761  1.0000
  C   C988      1.0  0.85065  0.91986  0.26374  1.0000
  H   H1171     1.0  0.80022  0.91629  0.26775  1.0000
  C   C989      1.0  0.89172  0.90157  0.25766  1.0000
  H   H1172     1.0  0.95954  0.77461  0.31995  1.0000
  H   H1173     1.0  0.91641  0.70098  0.31958  1.0000
  S   S269      1.0  0.76772  0.76729  0.10498  1.0000
  H   H1174     1.0  0.86506  0.56107  0.42890  1.0000
  C   C990      1.0  0.95422  0.72191  0.35269  1.0000
  H   H1175     1.0  0.84139  0.93779  0.21705  1.0000
  H   H1176     1.0  0.80655  0.70785  0.03993  1.0000
  H   H1177     1.0  0.76999  0.86444  0.19394  1.0000
  H   H1178     1.0  0.98279  0.75865  0.33679  1.0000
  H   H1179     1.0  0.91929  0.78217  0.33698  1.0000
  H   H1180     1.0  0.79941  0.74861  0.21481  1.0000
  H   H1181     1.0  0.81221  0.75372  0.07217  1.0000
  H   H1182     1.0  0.80128  0.75798  0.18365  1.0000
  H   H1183     1.0  0.94561  0.73002  0.36945  1.0000
  C   C991      1.0  0.92340  0.74125  0.32730  1.0000
  S   S270      1.0  0.76332  0.91056  0.22414  1.0000
  N   N64       1.0  0.80660  0.78717  0.20965  1.0000
  N   N65       1.0  0.83122  0.93731  0.25557  1.0000
  H   H1184     1.0  0.83971  0.77952  0.18872  1.0000
  H   H1185     1.0  0.81003  0.94466  0.22297  1.0000
  C   C992      1.0  0.80159  0.80598  0.16774  1.0000
  H   H1186     1.0  0.81656  0.77457  0.04685  1.0000
  H   H1187     1.0  0.84771  0.74628  0.32517  1.0000
  C   C993      1.0  0.80790  0.93496  0.26956  1.0000
  H   H1188     1.0  0.80694  0.77515  0.24746  1.0000
  H   H1189     1.0  0.83836  0.69925  0.03883  1.0000
  C   C994      1.0  0.82582  0.93315  0.22934  1.0000
  S   S271      1.0  0.86786  0.62895  0.48967  1.0000
  H   H1190     1.0  0.86964  0.70479  0.31697  1.0000
  S   S272      1.0  0.76454  0.71632  0.07309  1.0000
  H   H1191     1.0  0.98064  0.77455  0.28122  1.0000
  H   H1192     1.0  0.97406  0.71888  0.35625  1.0000
  H   H1193     1.0  0.79365  0.94819  0.26290  1.0000
  H   H1194     1.0  0.87285  0.78502  0.33386  1.0000
  C   C995      1.0  0.86564  0.54115  0.42878  1.0000
  H   H1195     1.0  0.95520  0.70708  0.30657  1.0000
  H   H1196     1.0  0.79553  0.82281  0.13240  1.0000
  C   C996      1.0  0.88222  0.76782  0.32994  1.0000
  C   C997      1.0  0.87358  0.91882  0.25124  1.0000
  C   C998      1.0  0.96144  0.72614  0.30926  1.0000
  H   H1197     1.0  0.82130  0.91365  0.22605  1.0000
  H   H1198     1.0  0.91775  0.55313  0.49026  1.0000
  H   H1199     1.0  0.94598  0.70355  0.35054  1.0000
  H   H1200     1.0  0.90877  0.90047  0.24734  1.0000
  H   H1201     1.0  0.95622  0.77014  0.35263  1.0000
  H   H1202     1.0  0.98177  0.72500  0.31051  1.0000
  H   H1203     1.0  0.84415  0.96666  0.27784  1.0000
  H   H1204     1.0  0.95705  0.73656  0.29227  1.0000
  C   C999      1.0  0.86584  0.88624  0.29010  1.0000
  C   C1000     1.0  0.90796  0.71890  0.32180  1.0000
  H   H1205     1.0  0.86184  0.53801  0.46781  1.0000
  N   N66       1.0  0.95001  0.73797  0.33103  1.0000
  H   H1206     1.0  0.86975  0.53888  0.38977  1.0000
  C   C1001     1.0  0.83953  0.96288  0.25843  1.0000
  C   C1002     1.0  0.90984  0.76588  0.33166  1.0000
  H   H1207     1.0  0.90151  0.87125  0.28130  1.0000
  N   N67       1.0  0.83159  0.73820  0.04109  1.0000
  C   C1003     1.0  0.82489  0.71252  0.04692  1.0000
  C   C1004     1.0  0.85514  0.74297  0.05345  1.0000
  C   C1005     1.0  0.83245  0.74170  0.01418  1.0000
  H   H1208     1.0  0.78341  0.83232  0.22187  1.0000
  C   C1006     1.0  0.79496  0.76408  0.20205  1.0000
  H   H1209     1.0  0.99591  0.57962  0.46231  1.0000
  H   H1210     1.0  0.82425  0.70905  0.06706  1.0000
  H   H1211     1.0  0.77555  0.86021  0.14941  1.0000
  C   C1007     1.0  0.80043  0.79090  0.23592  1.0000
  C   C1008     1.0  0.86388  0.52810  0.45072  1.0000
  C   C1009     1.0  0.79834  0.80761  0.19353  1.0000
  H   H1212     1.0  0.78030  0.79285  0.23887  1.0000
  C   C1010     1.0  0.78693  0.82942  0.20263  1.0000
  H   H1213     1.0  0.79409  0.73262  0.00848  1.0000
  H   H1214     1.0  0.85360  0.74006  0.07369  1.0000
  H   H1215     1.0  0.76419  0.52326  0.16970  1.0000
  C   C1011     1.0  0.81288  0.75513  0.05181  1.0000
  H   H1216     1.0  0.81018  0.78999  0.15948  1.0000
  H   H1217     1.0  0.96956  0.66807  0.50120  1.0000
  S   S273      1.0  0.92384  0.60533  0.48757  1.0000
  H   H1218     1.0  0.77465  0.76632  0.20133  1.0000
  C   C1012     1.0  0.86832  0.52857  0.40678  1.0000
  S   S274      1.0  0.77195  0.98008  0.22750  1.0000
  C   C1013     1.0  0.92381  0.51394  0.49095  1.0000
  S   S275      1.0  0.91547  0.66479  0.49822  1.0000
  C   C1014     1.0  0.99952  0.56130  0.47093  1.0000
  C   C1015     1.0  0.91107  0.53576  0.49683  1.0000
  H   H1219     1.0  0.87097  0.75226  0.01046  1.0000
  Fe  Fe136     1.0  0.75304  0.89600  0.26114  1.0000
  H   H1220     1.0  0.97594  0.52465  0.50185  1.0000
  C   C1016     1.0  0.78889  0.96238  0.76970  1.0000
  S   S276      1.0  0.79802  0.75584  0.83034  1.0000
  H   H1221     1.0  0.76543  0.79071  0.80070  1.0000
  Fe  Fe137     1.0  0.88159  0.65386  0.51906  1.0000
  S   S277      1.0  0.85705  0.67940  0.54117  1.0000
  S   S278      1.0  0.89963  0.62305  0.53962  1.0000
  Fe  Fe138     1.0  0.92386  0.76231  0.70698  1.0000
  S   S279      1.0  0.90552  0.72899  0.69258  1.0000
  S   S280      1.0  0.96031  0.75255  0.72514  1.0000
  Fe  Fe139     1.0  0.87985  0.79522  0.69151  1.0000
  S   S281      1.0  0.85960  0.76401  0.67474  1.0000
  S   S282      1.0  0.86465  0.83389  0.69698  1.0000
  Fe  Fe140     1.0  0.87064  0.74387  0.70917  1.0000
  S   S283      1.0  0.84478  0.71884  0.72998  1.0000
  Fe  Fe141     1.0  0.89663  0.75212  0.65972  1.0000
  S   S284      1.0  0.91243  0.73593  0.62471  1.0000
  S   S285      1.0  0.88956  0.77538  0.72645  1.0000
  S   S286      1.0  0.91620  0.78526  0.67360  1.0000
  C   C1017     1.0  0.99187  0.64360  0.52315  1.0000
  C   C1018     1.0  0.78873  0.75352  0.72130  1.0000
  H   H1222     1.0  0.78724  0.94217  0.77235  1.0000
  C   C1019     1.0  0.99431  0.52070  0.50803  1.0000
  C   C1020     1.0  0.83314  0.84156  0.69392  1.0000
  C   C1021     1.0  0.81748  0.82744  0.67989  1.0000
  C   C1022     1.0  0.79272  0.83464  0.67716  1.0000
  C   C1023     1.0  0.78337  0.85595  0.68848  1.0000
  C   C1024     1.0  0.79895  0.86991  0.70275  1.0000
  C   C1025     1.0  0.82374  0.86282  0.70531  1.0000
  H   H1223     1.0  0.82458  0.81127  0.67071  1.0000
  H   H1224     1.0  0.78085  0.82372  0.66605  1.0000
  H   H1225     1.0  0.79211  0.88645  0.71139  1.0000
  H   H1226     1.0  0.83579  0.87398  0.71598  1.0000
  H   H1227     1.0  0.81942  0.65544  0.56830  1.0000
  C   C1026     1.0  0.99395  0.69479  0.56136  1.0000
  H   H1228     1.0  0.79272  0.80656  0.79266  1.0000
  H   H1229     1.0  0.81699  0.61080  0.53818  1.0000
  H   H1230     1.0  0.99108  0.57748  0.53042  1.0000
  H   H1231     1.0  0.76682  0.82306  0.80542  1.0000
  H   H1232     1.0  0.83291  0.75026  0.94274  1.0000
  C   C1027     1.0  0.87225  0.69485  0.56472  1.0000
  C   C1028     1.0  0.89773  0.69322  0.56664  1.0000
  C   C1029     1.0  0.90967  0.70580  0.58528  1.0000
  C   C1030     1.0  0.89622  0.71969  0.60246  1.0000
  C   C1031     1.0  0.87067  0.72089  0.60095  1.0000
  C   C1032     1.0  0.85873  0.70867  0.58195  1.0000
  H   H1233     1.0  0.90829  0.68250  0.55356  1.0000
  H   H1234     1.0  0.92942  0.70477  0.58633  1.0000
  H   H1235     1.0  0.86019  0.73170  0.61403  1.0000
  H   H1236     1.0  0.83902  0.71003  0.58052  1.0000
  H   H1237     1.0  0.84361  0.62935  0.54051  1.0000
  H   H1238     1.0  0.91606  0.62936  0.61935  1.0000
  C   C1033     1.0  0.88062  0.51213  0.51855  1.0000
  C   C1034     1.0  0.80898  0.74597  0.80147  1.0000
  C   C1035     1.0  0.82601  0.76051  0.78895  1.0000
  C   C1036     1.0  0.83671  0.75254  0.76686  1.0000
  C   C1037     1.0  0.83095  0.72964  0.75737  1.0000
  C   C1038     1.0  0.81386  0.71506  0.76987  1.0000
  C   C1039     1.0  0.80264  0.72332  0.79173  1.0000
  H   H1239     1.0  0.83115  0.77796  0.79646  1.0000
  H   H1240     1.0  0.84944  0.76413  0.75729  1.0000
  H   H1241     1.0  0.80923  0.69735  0.76259  1.0000
  H   H1242     1.0  0.78970  0.71188  0.80137  1.0000
  C   C1040     1.0  0.87009  0.60137  0.58933  1.0000
  N   N68       1.0  0.91183  0.72627  0.78435  1.0000
  C   C1041     1.0  0.93339  0.71092  0.79127  1.0000
  C   C1042     1.0  0.90499  0.72023  0.75892  1.0000
  C   C1043     1.0  0.91938  0.75234  0.78435  1.0000
  C   C1044     1.0  0.89109  0.72118  0.80123  1.0000
  C   C1045     1.0  0.88045  0.69759  0.80189  1.0000
  C   C1046     1.0  0.88080  0.73917  0.81724  1.0000
  C   C1047     1.0  0.86029  0.69258  0.81699  1.0000
  C   C1048     1.0  0.86080  0.73385  0.83245  1.0000
  C   C1049     1.0  0.85043  0.71072  0.83215  1.0000
  H   H1243     1.0  0.92973  0.69099  0.78981  1.0000
  H   H1244     1.0  0.94945  0.71469  0.77908  1.0000
  H   H1245     1.0  0.93889  0.71454  0.81046  1.0000
  H   H1246     1.0  0.90171  0.70040  0.75621  1.0000
  H   H1247     1.0  0.91955  0.72526  0.74549  1.0000
  H   H1248     1.0  0.88790  0.73018  0.75370  1.0000
  H   H1249     1.0  0.92636  0.75789  0.80251  1.0000
  H   H1250     1.0  0.93449  0.75576  0.77094  1.0000
  H   H1251     1.0  0.90396  0.76486  0.77901  1.0000
  H   H1252     1.0  0.88727  0.68298  0.79030  1.0000
  H   H1253     1.0  0.88734  0.75770  0.81793  1.0000
  H   H1254     1.0  0.85187  0.67474  0.81648  1.0000
  H   H1255     1.0  0.85249  0.74808  0.84375  1.0000
  H   H1256     1.0  0.83425  0.70714  0.84319  1.0000
  C   C1050     1.0  0.77108  0.83748  0.75959  1.0000
  C   C1051     1.0  0.98216  0.71845  0.63001  1.0000
  H   H1257     1.0  0.84593  0.59697  0.54547  1.0000
  H   H1258     1.0  0.96216  0.71516  0.62806  1.0000
  C   C1052     1.0  0.97710  0.75443  0.60486  1.0000
  H   H1259     1.0  0.76326  0.85225  0.77153  1.0000
  H   H1260     1.0  0.77861  0.94887  0.81465  1.0000
  C   C1053     1.0  0.79751  0.77706  0.71748  1.0000
  H   H1261     1.0  0.95462  0.75732  0.64667  1.0000
  N   N69       1.0  0.82901  0.61738  0.57513  1.0000
  H   H1262     1.0  0.88619  0.66399  0.61763  1.0000
  H   H1263     1.0  0.80844  0.96682  0.77260  1.0000
  H   H1264     1.0  0.78425  0.96617  0.75017  1.0000
  C   C1054     1.0  0.81121  0.73787  0.99998  1.0000
  H   H1265     1.0  0.79562  0.73845  0.71018  1.0000
  H   H1266     1.0  0.87057  0.75741  0.96630  1.0000
  C   C1055     1.0  0.97488  0.75794  0.64850  1.0000
  C   C1056     1.0  0.78930  0.79648  0.73219  1.0000
  H   H1267     1.0  0.98975  0.66071  0.58069  1.0000
  S   S287      1.0  0.87257  0.56200  0.51771  1.0000
  C   C1057     1.0  0.88948  0.53496  0.51076  1.0000
  H   H1268     1.0  0.81111  0.78018  0.70326  1.0000
  H   H1269     1.0  0.98746  0.71047  0.64804  1.0000
  H   H1270     1.0  0.86700  0.58395  0.58063  1.0000
  C   C1058     1.0  0.85885  0.64345  0.59885  1.0000
  H   H1271     1.0  0.80743  0.64296  0.59670  1.0000
  H   H1272     1.0  0.84702  0.65951  0.59830  1.0000
  H   H1273     1.0  0.76502  0.84177  0.74056  1.0000
  C   C1059     1.0  0.85245  0.62083  0.58801  1.0000
  H   H1274     1.0  0.79794  0.59342  0.57707  1.0000
  H   H1275     1.0  0.86383  0.51135  0.52918  1.0000
  C   C1060     1.0  0.81637  0.59558  0.58524  1.0000
  C   C1061     1.0  0.98932  0.76369  0.71581  1.0000
  S   S288      1.0  0.96746  0.62946  0.53810  1.0000
  Fe  Fe142     1.0  0.93252  0.63201  0.51708  1.0000
  C   C1062     1.0  0.83284  0.74788  0.96247  1.0000
  H   H1276     1.0  0.97530  0.79575  0.69704  1.0000
  C   C1063     1.0  0.88149  0.64631  0.61012  1.0000
  N   N70       1.0  0.98766  0.74495  0.62814  1.0000
  H   H1277     1.0  0.79418  0.63541  0.56782  1.0000
  H   H1278     1.0  0.79707  0.81416  0.72826  1.0000
  H   H1279     1.0  0.76587  0.73062  0.74361  1.0000
  H   H1280     1.0  0.95689  0.75196  0.60426  1.0000
  C   C1064     1.0  0.89262  0.60439  0.60077  1.0000
  H   H1281     1.0  0.81401  0.59700  0.60546  1.0000
  C   C1065     1.0  0.83405  0.61339  0.54874  1.0000
  C   C1066     1.0  0.77196  0.74915  0.74013  1.0000
  H   H1282     1.0  0.97884  0.74958  0.66668  1.0000
  H   H1283     1.0  0.82658  0.57817  0.58134  1.0000
  C   C1067     1.0  0.85401  0.75188  0.97580  1.0000
  H   H1284     1.0  0.76602  0.97706  0.82575  1.0000
  C   C1068     1.0  0.81179  0.63873  0.57722  1.0000
  N   N71       1.0  0.76306  0.81271  0.76759  1.0000
  H   H1285     1.0  0.90602  0.58946  0.60095  1.0000
  C   C1069     1.0  0.89835  0.62686  0.61105  1.0000
  H   H1286     1.0  0.79767  0.97547  0.81652  1.0000
  H   H1287     1.0  0.97469  0.69626  0.55672  1.0000
  H   H1288     1.0  0.75500  0.79233  0.98556  1.0000
  H   H1289     1.0  0.99200  0.70784  0.61553  1.0000
  C   C1070     1.0  0.99156  0.78542  0.70226  1.0000
  H   H1290     1.0  0.98010  0.77447  0.60261  1.0000
  C   C1071     1.0  0.81149  0.74086  0.97455  1.0000
  Fe  Fe143     1.0  0.88921  0.59887  0.50865  1.0000
  H   H1291     1.0  0.79134  0.83917  0.76038  1.0000
  Fe  Fe144     1.0  0.76167  0.74429  0.84646  1.0000
  H   H1292     1.0  0.96921  0.56468  0.51003  1.0000
  H   H1293     1.0  0.98473  0.74449  0.58874  1.0000
  C   C1072     1.0  0.85397  0.74885  0.00129  1.0000
  C   C1073     1.0  0.77194  0.79272  0.75138  1.0000
  C   C1074     1.0  0.76387  0.76834  0.75517  1.0000
  H   H1294     1.0  0.79500  0.73776  0.96416  1.0000
  C   C1075     1.0  0.77236  0.80812  0.79266  1.0000
  H   H1295     1.0  0.98007  0.77758  0.64915  1.0000
  C   C1076     1.0  0.77898  0.96917  0.81198  1.0000
  C   C1077     1.0  0.98640  0.57524  0.51077  1.0000
  C   C1078     1.0  0.98797  0.66229  0.50585  1.0000
  C   C1079     1.0  0.77389  0.00333  0.78360  1.0000
  N   N72       1.0  0.77239  0.97634  0.78659  1.0000
  H   H1296     1.0  0.98171  0.59380  0.50332  1.0000
  C   C1080     1.0  0.00252  0.67473  0.57492  1.0000
