data_image0
_chemical_formula_structural       FeS2FeS2FeSFeS3NFeS2FeSFeSFeS3C2H6CH3C2HCHCHC2HC2H2C6H4C6HCH2CHCH4CH2CNC10HC2H3CH3CH3CHNHNHC8HCH9C2HCH2SNCHCH4C2H2CH2C4NCHCHC2H8CH4CH5SHCH2CHCH4C2HCSH3FeSFeS2FeSFeS3FeS2FeSCFe2SHSC2HCHC6H4C2H3CHCHNHNH2C2H9CHCHC2HCHCSH2C3HC3HC2H2CHC2H2S3C2H5NC3HCH5C4HC2HCH2CHC4H3C3FeS2FeHFeSFeCS2FeS2FeCFe2SHSHC6H2SHSHSCHNC9H14SC2H2CNH4CHC2H4C2HSH4CFeS2FeSHFeSFeS3FeS2FeS2FeSFeS3H2C8H2CHCHC2HC3H2C6H5C6H5CH2C2H2NC2H3CHCH3SCHNCH2C3HCHC2NH7CH3C4NC9H14C2H2CHCH2CH4CHC2HCHCHCHC5H3CH2FeS2FeS2FeSFeS3FeS2FeS2Fe2HS2HCH2CH3CH2N3CHCHC3HC6H4C6H4C2H2C2HCH2CH2NC9H13SC2HCH2CHCH2CHCH2NC2H2CHC3HCHCH3C2HCHC2H2C3HCH3C3HSH4CH6CHC4HCHCFeSFeS2FeSFeS3FeS2FeS2Fe2SHSC3H2C6H5C3HC3H8CH2C2HC6NHCHCSC2H6NC9H15C2HC4HCHCH7CHSH2NCH2C2H2CH5CH5SHCFeS2FeS2FeSFeS4FeS2FeS2Fe2S3H3C2NHC3H3C4HC3HCHC6H4C6H4CHCH2C2H3C2H3CHC2H3NCHC2NCHC2HNC9H14NHCHC6NH4C3H9CH3CH2CH4CH4CHC2HSC2HC2HSC4H3C2HCNFeHFeS2FeSFeS3FeS2FeS2Fe2SCSCHC2HC6H5C3HC2H3SHC2H9NC9H14C2H3CH2CHC3HCHSC2H2CH4CHCHC2HCH4CH3C2HCHCFeSFeS2FeSFeHSCFeNFeS2Fe2H2SCH2C6HCHC2NH3NCHC2SC2HSHCHC2H3CH2CHCH2SH2SH3CHSC2HC2HSH5CSCHCH4CH4C2HCH3CSCSH3FeS2FeS2FeHFeS3FeS2FeSCFeSFeS3HC2HC2H2C6H2CHCHCH4C6HCH2C6H4CHCH2C2H7CSHC2H2CH2CHC2H2CH2CH6CHCNHC2HCH2CHC2HNC2HCH4C2H6NC5H2SC2HCHCNCHC3HCH4CH3C3H2CHCHCHNFeS2FeS2FeSFeS3FeHFeS2FeSFeHS2CHCHCH3CH4CH3C3H2C6H4C6H5C3H2C3HNHCHC8H4CH10CHC5HCHNH2C4H2CHC3H2SCHCHC2H3CH4CNC8H12CH3C3NHCHCSCHCH2CHCH3C2H3C2HC2H2NCH2CSH4SHCHC2HFeNFeS2FeSFeS3FeS2FeHFeCFeS3CHNHC7H4CHCH2C3H4C2H2CH2NC9H10CH5CHC3HSCH2C2H4CSH2CHC3H2CH4SCHCH2NH2CH2C3H3C2H5
_chemical_formula_sum              "Fe96 S192 N48 C720 H864"
_cell_length_a       58.3917
_cell_length_b       58.221
_cell_length_c       33.6304
_cell_angle_alpha    89.9073
_cell_angle_beta     90.075
_cell_angle_gamma    89.4933

_space_group_name_H-M_alt    "P 1"
_space_group_IT_number       1

loop_
  _space_group_symop_operation_xyz
  'x, y, z'

loop_
  _atom_site_type_symbol
  _atom_site_label
  _atom_site_symmetry_multiplicity
  _atom_site_fract_x
  _atom_site_fract_y
  _atom_site_fract_z
  _atom_site_occupancy
  Fe  Fe1       1.0  0.39724  0.07089  0.26010  1.0000
  S   S1        1.0  0.39772  0.09793  0.30751  1.0000
  S   S2        1.0  0.40115  0.03520  0.28564  1.0000
  Fe  Fe2       1.0  0.39168  0.10656  0.19291  1.0000
  S   S3        1.0  0.39082  0.13599  0.23596  1.0000
  S   S4        1.0  0.39839  0.11198  0.12682  1.0000
  Fe  Fe3       1.0  0.42014  0.11761  0.26586  1.0000
  S   S5        1.0  0.45231  0.13687  0.28102  1.0000
  Fe  Fe4       1.0  0.36833  0.11340  0.27378  1.0000
  S   S6        1.0  0.33548  0.12375  0.30558  1.0000
  S   S7        1.0  0.42227  0.08923  0.22134  1.0000
  S   S8        1.0  0.36655  0.08517  0.22793  1.0000
  N   N1        1.0  0.18261  0.22998  0.32875  1.0000
  Fe  Fe5       1.0  0.12747  0.28563  0.34881  1.0000
  S   S9        1.0  0.10611  0.25411  0.36113  1.0000
  S   S10       1.0  0.14358  0.28702  0.28579  1.0000
  Fe  Fe6       1.0  0.11895  0.30271  0.43428  1.0000
  S   S11       1.0  0.09774  0.27234  0.45176  1.0000
  Fe  Fe7       1.0  0.12531  0.25165  0.41972  1.0000
  S   S12       1.0  0.13912  0.21633  0.44135  1.0000
  Fe  Fe8       1.0  0.08041  0.27715  0.39221  1.0000
  S   S13       1.0  0.04176  0.28278  0.37885  1.0000
  S   S14       1.0  0.14752  0.28205  0.40607  1.0000
  S   S15       1.0  0.10071  0.30869  0.37614  1.0000
  C   C1        1.0  0.32552  0.23043  0.01733  1.0000
  C   C2        1.0  0.48936  0.14438  0.14542  1.0000
  H   H1        1.0  0.31148  0.21782  0.02126  1.0000
  H   H2        1.0  0.22926  0.22317  0.32939  1.0000
  H   H3        1.0  0.47279  0.11373  0.09382  1.0000
  H   H4        1.0  0.45793  0.15404  0.08482  1.0000
  H   H5        1.0  0.35226  0.22276  0.10582  1.0000
  H   H6        1.0  0.26467  0.27861  0.13614  1.0000
  C   C3        1.0  0.01282  0.27542  0.39160  1.0000
  H   H7        1.0  0.27978  0.23354  0.42563  1.0000
  H   H8        1.0  0.02118  0.24912  0.43430  1.0000
  H   H9        1.0  0.49886  0.11588  0.18472  1.0000
  C   C4        1.0  0.19559  0.21052  0.34650  1.0000
  C   C5        1.0  0.33625  0.01409  0.27608  1.0000
  H   H10       1.0  0.18539  0.21660  0.26937  1.0000
  C   C6        1.0  0.47819  0.02220  0.22538  1.0000
  H   H11       1.0  0.25109  0.19163  0.35960  1.0000
  C   C7        1.0  0.18848  0.25138  0.35009  1.0000
  H   H12       1.0  0.30302  0.07024  0.37730  1.0000
  C   C8        1.0  0.16301  0.30182  0.21524  1.0000
  C   C9        1.0  0.15767  0.30772  0.25487  1.0000
  H   H13       1.0  0.33268  0.20385  0.07984  1.0000
  C   C10       1.0  0.45127  0.15329  0.11576  1.0000
  C   C11       1.0  0.45412  0.13677  0.18073  1.0000
  H   H14       1.0  0.15850  0.28500  0.20431  1.0000
  H   H15       1.0  0.37890  0.03766  0.41346  1.0000
  C   C12       1.0  0.33523  0.12255  0.35810  1.0000
  C   C13       1.0  0.35547  0.12375  0.38020  1.0000
  C   C14       1.0  0.35473  0.12348  0.42200  1.0000
  C   C15       1.0  0.33378  0.12173  0.44208  1.0000
  C   C16       1.0  0.31357  0.11993  0.42002  1.0000
  C   C17       1.0  0.31425  0.12072  0.37819  1.0000
  H   H16       1.0  0.37171  0.12550  0.36517  1.0000
  H   H17       1.0  0.37047  0.12493  0.43880  1.0000
  H   H18       1.0  0.29739  0.11842  0.43514  1.0000
  H   H19       1.0  0.29851  0.11976  0.36128  1.0000
  C   C18       1.0  0.38364  0.13041  0.09339  1.0000
  C   C19       1.0  0.39444  0.13655  0.05760  1.0000
  C   C20       1.0  0.38299  0.15013  0.02905  1.0000
  C   C21       1.0  0.36034  0.15710  0.03553  1.0000
  C   C22       1.0  0.34956  0.15112  0.07140  1.0000
  C   C23       1.0  0.36126  0.13809  0.10051  1.0000
  H   H20       1.0  0.41164  0.13045  0.05163  1.0000
  C   C24       1.0  0.29793  0.20116  0.41279  1.0000
  H   H21       1.0  0.33196  0.15626  0.07649  1.0000
  H   H22       1.0  0.35271  0.13328  0.12777  1.0000
  C   C25       1.0  0.47694  0.11927  0.27903  1.0000
  H   H23       1.0  0.23113  0.16065  0.39622  1.0000
  C   C26       1.0  0.47498  0.09543  0.28167  1.0000
  H   H24       1.0  0.30555  0.22898  0.30732  1.0000
  H   H25       1.0  0.45841  0.08778  0.28658  1.0000
  H   H26       1.0  0.26265  0.17469  0.43803  1.0000
  H   H27       1.0  0.02353  0.31903  0.42449  1.0000
  C   C27       1.0  0.18485  0.19250  0.36792  1.0000
  H   H28       1.0  0.39230  0.02951  0.20098  1.0000
  H   H29       1.0  0.31378  0.22414  0.12790  1.0000
  C   C28       1.0  0.19768  0.17473  0.38522  1.0000
  N   N2        1.0  0.33449  0.23833  0.05615  1.0000
  C   C29       1.0  0.16542  0.20488  0.46138  1.0000
  C   C30       1.0  0.29757  0.00234  0.28994  1.0000
  C   C31       1.0  0.35287  0.25533  0.04900  1.0000
  C   C32       1.0  0.31560  0.24914  0.07899  1.0000
  C   C33       1.0  0.30692  0.23972  0.11495  1.0000
  C   C34       1.0  0.30487  0.26955  0.06478  1.0000
  C   C35       1.0  0.28879  0.25034  0.13528  1.0000
  C   C36       1.0  0.28675  0.27997  0.08521  1.0000
  C   C37       1.0  0.27875  0.27042  0.12045  1.0000
  C   C38       1.0  0.34510  0.21811  0.07627  1.0000
  H   H30       1.0  0.29562  0.01500  0.43518  1.0000
  C   C39       1.0  0.46404  0.11424  0.12314  1.0000
  C   C40       1.0  0.28896  0.22338  0.40393  1.0000
  H   H31       1.0  0.45055  0.17090  0.12855  1.0000
  H   H32       1.0  0.16657  0.19199  0.37286  1.0000
  H   H33       1.0  0.47195  0.10084  0.14249  1.0000
  C   C41       1.0  0.31205  0.19935  0.34399  1.0000
  H   H34       1.0  0.27450  0.05095  0.41259  1.0000
  H   H35       1.0  0.31032  0.27758  0.03749  1.0000
  H   H36       1.0  0.36805  0.24742  0.03426  1.0000
  C   C42       1.0  0.40233  0.01128  0.25407  1.0000
  H   H37       1.0  0.18462  0.24977  0.38241  1.0000
  H   H38       1.0  0.33499  0.07320  0.33177  1.0000
  H   H39       1.0  0.26725  0.05804  0.46277  1.0000
  C   C43       1.0  0.16368  0.32960  0.26834  1.0000
  H   H40       1.0  0.39142  0.15451  0.00146  1.0000
  N   N3        1.0  0.46512  0.13748  0.14108  1.0000
  H   H41       1.0  0.28374  0.02282  0.48248  1.0000
  N   N4        1.0  0.29501  0.18995  0.45198  1.0000
  H   H42       1.0  0.15053  0.17194  0.47421  1.0000
  C   C44       1.0  0.32179  0.05146  0.42413  1.0000
  C   C45       1.0  0.34389  0.04237  0.43292  1.0000
  C   C46       1.0  0.31896  0.06238  0.38652  1.0000
  C   C47       1.0  0.49851  0.16430  0.12690  1.0000
  C   C48       1.0  0.33723  0.06415  0.35980  1.0000
  C   C49       1.0  0.35867  0.05511  0.36947  1.0000
  C   C50       1.0  0.28030  0.16958  0.44703  1.0000
  C   C51       1.0  0.01939  0.32820  0.45261  1.0000
  H   H43       1.0  0.35871  0.26320  0.07734  1.0000
  C   C52       1.0  0.17391  0.31753  0.18938  1.0000
  H   H44       1.0  0.14807  0.24151  0.31594  1.0000
  H   H45       1.0  0.33908  0.22199  0.99929  1.0000
  H   H46       1.0  0.18568  0.23513  0.45276  1.0000
  H   H47       1.0  0.44601  0.10873  0.11844  1.0000
  H   H48       1.0  0.32102  0.18994  0.32078  1.0000
  H   H49       1.0  0.43542  0.13332  0.17867  1.0000
  H   H50       1.0  0.18910  0.16147  0.40220  1.0000
  H   H51       1.0  0.27884  0.15968  0.47521  1.0000
  H   H52       1.0  0.31354  0.01682  0.47868  1.0000
  C   C53       1.0  0.20628  0.20720  0.47697  1.0000
  C   C54       1.0  0.10723  0.32981  0.22451  1.0000
  H   H53       1.0  0.28501  0.25030  0.36023  1.0000
  C   C55       1.0  0.29174  0.23322  0.36624  1.0000
  H   H54       1.0  0.04742  0.29345  0.46318  1.0000
  H   H55       1.0  0.17787  0.31256  0.15921  1.0000
  S   S16       1.0  0.25413  0.32131  0.00563  1.0000
  N   N5        1.0  0.03924  0.32827  0.48034  1.0000
  C   C56       1.0  0.18855  0.23275  0.28609  1.0000
  H   H56       1.0  0.34734  0.26950  0.02883  1.0000
  C   C57       1.0  0.30330  0.22125  0.33639  1.0000
  H   H57       1.0  0.49292  0.06303  0.28244  1.0000
  H   H58       1.0  0.31073  0.03603  0.30244  1.0000
  H   H59       1.0  0.17809  0.24668  0.27183  1.0000
  H   H60       1.0  0.15176  0.21103  0.31638  1.0000
  C   C58       1.0  0.30943  0.18941  0.38151  1.0000
  C   C59       1.0  0.23256  0.19184  0.36163  1.0000
  H   H61       1.0  0.28062  0.00634  0.30124  1.0000
  H   H62       1.0  0.28252  0.07837  0.43372  1.0000
  C   C60       1.0  0.39668  0.01297  0.21374  1.0000
  H   H63       1.0  0.28241  0.24292  0.16265  1.0000
  H   H64       1.0  0.34950  0.02710  0.27662  1.0000
  C   C61       1.0  0.22143  0.17437  0.38212  1.0000
  C   C62       1.0  0.36200  0.04423  0.40593  1.0000
  C   C63       1.0  0.00749  0.25851  0.41970  1.0000
  C   C64       1.0  0.21989  0.20973  0.34418  1.0000
  N   N6        1.0  0.30301  0.04953  0.45355  1.0000
  C   C65       1.0  0.16606  0.18194  0.47497  1.0000
  H   H65       1.0  0.35946  0.21068  0.05843  1.0000
  C   C66       1.0  0.29891  0.02497  0.46278  1.0000
  H   H66       1.0  0.20666  0.23769  0.28155  1.0000
  C   C67       1.0  0.15738  0.22716  0.33097  1.0000
  C   C68       1.0  0.31449  0.01909  0.29073  1.0000
  H   H67       1.0  0.15126  0.22718  0.36228  1.0000
  H   H68       1.0  0.17856  0.26642  0.33841  1.0000
  H   H69       1.0  0.27882  0.29553  0.07346  1.0000
  H   H70       1.0  0.20687  0.25575  0.34727  1.0000
  H   H71       1.0  0.31880  0.24482  0.99906  1.0000
  H   H72       1.0  0.46137  0.12299  0.19994  1.0000
  H   H73       1.0  0.43314  0.14754  0.11348  1.0000
  H   H74       1.0  0.45622  0.15329  0.19699  1.0000
  C   C69       1.0  0.28093  0.05966  0.43976  1.0000
  H   H75       1.0  0.31645  0.17230  0.38571  1.0000
  H   H76       1.0  0.46827  0.03720  0.23425  1.0000
  H   H77       1.0  0.06210  0.32918  0.42984  1.0000
  H   H78       1.0  0.26627  0.20990  0.47405  1.0000
  C   C70       1.0  0.10342  0.31714  0.19011  1.0000
  H   H79       1.0  0.48817  0.17579  0.10902  1.0000
  H   H80       1.0  0.34742  0.03415  0.46111  1.0000
  H   H81       1.0  0.37285  0.05687  0.34887  1.0000
  H   H82       1.0  0.09594  0.30021  0.19245  1.0000
  H   H83       1.0  0.28689  0.15761  0.42415  1.0000
  S   S17       1.0  0.12394  0.33405  0.47332  1.0000
  H   H84       1.0  0.32595  0.16904  0.44941  1.0000
  C   C71       1.0  0.18575  0.21747  0.46270  1.0000
  H   H85       1.0  0.10677  0.31527  0.12731  1.0000
  H   H86       1.0  0.31318  0.07993  0.48479  1.0000
  C   C72       1.0  0.28411  0.20494  0.48245  1.0000
  H   H87       1.0  0.13902  0.32310  0.08947  1.0000
  C   C73       1.0  0.31762  0.18248  0.46792  1.0000
  H   H88       1.0  0.00441  0.31916  0.46554  1.0000
  H   H89       1.0  0.32962  0.19716  0.47007  1.0000
  H   H90       1.0  0.15983  0.33451  0.29863  1.0000
  H   H91       1.0  0.22176  0.21722  0.47772  1.0000
  C   C74       1.0  0.49457  0.08141  0.27919  1.0000
  C   C75       1.0  0.10974  0.32594  0.15302  1.0000
  H   H92       1.0  0.10294  0.32265  0.25335  1.0000
  C   C76       1.0  0.49861  0.12905  0.27360  1.0000
  S   S18       1.0  0.34457  0.17210  0.99860  1.0000
  H   H93       1.0  0.50019  0.14751  0.27162  1.0000
  H   H94       1.0  0.29430  0.22068  0.48794  1.0000
  H   H95       1.0  0.41586  0.19911  0.83154  1.0000
  Fe  Fe9       1.0  0.36195  0.19227  0.94958  1.0000
  S   S19       1.0  0.38463  0.22212  0.96312  1.0000
  Fe  Fe10      1.0  0.36215  0.20125  0.85907  1.0000
  S   S20       1.0  0.38412  0.23274  0.86756  1.0000
  S   S21       1.0  0.35829  0.18539  0.79642  1.0000
  Fe  Fe11      1.0  0.40565  0.21130  0.90982  1.0000
  S   S22       1.0  0.44394  0.20166  0.90160  1.0000
  Fe  Fe12      1.0  0.36119  0.24120  0.92039  1.0000
  S   S23       1.0  0.34854  0.27700  0.94069  1.0000
  S   S24       1.0  0.38417  0.17975  0.89985  1.0000
  S   S25       1.0  0.33789  0.21145  0.90852  1.0000
  Fe  Fe13      1.0  0.26350  0.08923  0.55800  1.0000
  S   S26       1.0  0.29797  0.09803  0.58357  1.0000
  S   S27       1.0  0.25088  0.05204  0.54705  1.0000
  Fe  Fe14      1.0  0.25178  0.14094  0.53771  1.0000
  S   S28       1.0  0.28608  0.15203  0.56207  1.0000
  C   C77       1.0  0.19792  0.32402  0.93533  1.0000
  Fe  Fe15      1.0  0.30065  0.12139  0.53027  1.0000
  Fe  Fe16      1.0  0.28046  0.12823  0.61366  1.0000
  S   S29       1.0  0.28388  0.13990  0.67929  1.0000
  H   H96       1.0  0.18898  0.30724  0.93664  1.0000
  S   S30       1.0  0.24517  0.11815  0.59118  1.0000
  C   C78       1.0  0.43517  0.18531  0.73974  1.0000
  C   C79       1.0  0.26050  0.02286  0.55405  1.0000
  H   H97       1.0  0.46494  0.25803  0.85031  1.0000
  C   C80       1.0  0.20101  0.30595  0.83322  1.0000
  H   H98       1.0  0.29316  0.03073  0.58007  1.0000
  C   C81       1.0  0.33694  0.17405  0.76350  1.0000
  C   C82       1.0  0.31363  0.17338  0.77321  1.0000
  C   C83       1.0  0.29769  0.16350  0.74661  1.0000
  C   C84       1.0  0.30462  0.15423  0.70973  1.0000
  C   C85       1.0  0.32787  0.15530  0.69972  1.0000
  C   C86       1.0  0.34385  0.16505  0.72643  1.0000
  H   H99       1.0  0.30779  0.18041  0.80115  1.0000
  H   H100      1.0  0.27981  0.16280  0.75484  1.0000
  H   H101      1.0  0.33361  0.14822  0.67170  1.0000
  H   H102      1.0  0.36174  0.16548  0.71829  1.0000
  C   C87       1.0  0.47834  0.23202  0.92639  1.0000
  C   C88       1.0  0.47284  0.21144  0.90726  1.0000
  H   H103      1.0  0.24164  0.31269  0.92696  1.0000
  H   H104      1.0  0.46478  0.24271  0.93842  1.0000
  H   H105      1.0  0.48699  0.18211  0.87656  1.0000
  C   C89       1.0  0.32310  0.11534  0.91152  1.0000
  H   H106      1.0  0.40472  0.22807  0.78365  1.0000
  C   C90       1.0  0.44820  0.23273  0.81397  1.0000
  H   H107      1.0  0.43610  0.17707  0.81988  1.0000
  N   N7        1.0  0.32893  0.12991  0.87674  1.0000
  H   H108      1.0  0.30038  0.26142  0.93883  1.0000
  N   N8        1.0  0.21136  0.32623  0.89805  1.0000
  H   H109      1.0  0.34474  0.11794  0.79991  1.0000
  H   H110      1.0  0.41942  0.17615  0.73011  1.0000
  C   C91       1.0  0.30088  0.27809  0.95292  1.0000
  C   C92       1.0  0.10693  0.31316  0.58504  1.0000
  H   H111      1.0  0.32626  0.09684  0.90497  1.0000
  H   H112      1.0  0.01664  0.30162  0.59621  1.0000
  H   H113      1.0  0.03089  0.29603  0.50792  1.0000
  H   H114      1.0  0.27985  0.10476  0.74771  1.0000
  H   H115      1.0  0.32739  0.16567  0.86096  1.0000
  H   H116      1.0  0.11227  0.29698  0.52796  1.0000
  H   H117      1.0  0.43186  0.23658  0.82755  1.0000
  H   H118      1.0  0.44189  0.19446  0.71316  1.0000
  H   H119      1.0  0.26025  0.11466  0.81053  1.0000
  C   C93       1.0  0.23077  0.30960  0.90035  1.0000
  H   H120      1.0  0.06100  0.30246  0.50793  1.0000
  C   C94       1.0  0.27880  0.11484  0.80928  1.0000
  H   H121      1.0  0.28238  0.19590  0.51156  1.0000
  C   C95       1.0  0.49192  0.22266  0.78516  1.0000
  C   C96       1.0  0.47307  0.21034  0.77111  1.0000
  H   H122      1.0  0.30442  0.15653  0.89234  1.0000
  C   C97       1.0  0.28979  0.10908  0.77392  1.0000
  H   H123      1.0  0.05200  0.30720  0.63587  1.0000
  C   C98       1.0  0.28196  0.01716  0.57023  1.0000
  S   S31       1.0  0.33347  0.12331  0.49458  1.0000
  H   H124      1.0  0.05084  0.33047  0.69686  1.0000
  H   H125      1.0  0.18650  0.15416  0.50012  1.0000
  C   C99       1.0  0.32182  0.28949  0.95650  1.0000
  C   C100      1.0  0.10704  0.33375  0.60678  1.0000
  C   C101      1.0  0.48895  0.23991  0.81336  1.0000
  H   H126      1.0  0.40759  0.17663  0.79887  1.0000
  C   C102      1.0  0.45053  0.21503  0.78522  1.0000
  C   C103      1.0  0.20688  0.18427  0.49072  1.0000
  C   C104      1.0  0.31585  0.12250  0.84126  1.0000
  H   H127      1.0  0.30493  0.11734  0.92070  1.0000
  C   C105      1.0  0.31356  0.10999  0.77159  1.0000
  C   C106      1.0  0.46711  0.24504  0.82749  1.0000
  H   H128      1.0  0.36005  0.14062  0.84774  1.0000
  H   H129      1.0  0.39645  0.20737  0.74826  1.0000
  C   C107      1.0  0.29156  0.12147  0.84251  1.0000
  H   H130      1.0  0.44763  0.17170  0.74888  1.0000
  C   C108      1.0  0.32296  0.15409  0.88616  1.0000
  C   C109      1.0  0.41154  0.21712  0.75931  1.0000
  H   H131      1.0  0.36347  0.13340  0.89900  1.0000
  H   H132      1.0  0.35983  0.11082  0.86364  1.0000
  S   S32       1.0  0.23365  0.17217  0.50755  1.0000
  S   S33       1.0  0.09970  0.33300  0.65776  1.0000
  S   S34       1.0  0.26727  0.11141  0.50305  1.0000
  C   C110      1.0  0.16742  0.31767  0.79560  1.0000
  C   C111      1.0  0.49092  0.19794  0.89180  1.0000
  H   H133      1.0  0.28219  0.12624  0.86894  1.0000
  H   H134      1.0  0.10282  0.29722  0.59990  1.0000
  H   H135      1.0  0.26460  0.27887  0.96565  1.0000
  H   H136      1.0  0.33343  0.11995  0.93828  1.0000
  H   H137      1.0  0.24243  0.31117  0.87435  1.0000
  N   N9        1.0  0.43032  0.20155  0.77277  1.0000
  C   C112      1.0  0.11222  0.31298  0.54423  1.0000
  C   C113      1.0  0.35416  0.12856  0.87135  1.0000
  C   C114      1.0  0.03592  0.31496  0.64525  1.0000
  H   H138      1.0  0.41740  0.22867  0.73504  1.0000
  C   C115      1.0  0.32651  0.11674  0.80451  1.0000
  H   H139      1.0  0.33228  0.16018  0.91304  1.0000
  H   H140      1.0  0.20904  0.32529  0.96223  1.0000
  H   H141      1.0  0.22463  0.29161  0.90274  1.0000
  H   H142      1.0  0.31613  0.17469  0.49810  1.0000
  H   H143      1.0  0.32187  0.10644  0.74338  1.0000
  C   C116      1.0  0.32179  0.31140  0.97435  1.0000
  C   C117      1.0  0.18666  0.30356  0.80010  1.0000
  C   C118      1.0  0.01603  0.31194  0.62298  1.0000
  C   C119      1.0  0.42212  0.18795  0.80709  1.0000
  H   H144      1.0  0.29556  0.06093  0.51330  1.0000
  C   C120      1.0  0.16238  0.33414  0.82429  1.0000
  C   C121      1.0  0.28051  0.28815  0.96801  1.0000
  H   H145      1.0  0.15640  0.31592  0.76979  1.0000
  C   C122      1.0  0.30136  0.32158  0.98905  1.0000
  H   H146      1.0  0.47672  0.19702  0.74973  1.0000
  H   H147      1.0  0.21565  0.29453  0.83461  1.0000
  C   C123      1.0  0.19635  0.32268  0.86306  1.0000
  H   H148      1.0  0.19049  0.29077  0.77760  1.0000
  C   C124      1.0  0.28053  0.30996  0.98626  1.0000
  C   C125      1.0  0.11775  0.33344  0.52480  1.0000
  C   C126      1.0  0.03526  0.32822  0.67962  1.0000
  C   C127      1.0  0.30948  0.06154  0.49072  1.0000
  H   H149      1.0  0.33776  0.32055  0.97715  1.0000
  H   H150      1.0  0.32494  0.05403  0.50511  1.0000
  H   H151      1.0  0.22970  0.00879  0.52881  1.0000
  C   C128      1.0  0.24631  0.00476  0.54149  1.0000
  C   C129      1.0  0.04486  0.30406  0.49043  1.0000
  C   C130      1.0  0.18652  0.17175  0.48971  1.0000
  Fe  Fe17      1.0  0.20807  0.62864  0.11383  1.0000
  S   S35       1.0  0.24095  0.61024  0.09683  1.0000
  S   S36       1.0  0.20083  0.63329  0.18116  1.0000
  Fe  Fe18      1.0  0.19176  0.62715  0.02623  1.0000
  H   H152      1.0  0.13263  0.37650  0.18566  1.0000
  Fe  Fe19      1.0  0.22015  0.58639  0.05806  1.0000
  S   S37       1.0  0.21241  0.54742  0.05348  1.0000
  Fe  Fe20      1.0  0.24211  0.63486  0.04416  1.0000
  C   C131      1.0  0.11740  0.35130  0.22198  1.0000
  S   S38       1.0  0.18764  0.60357  0.07831  1.0000
  S   S39       1.0  0.20994  0.65404  0.06305  1.0000
  Fe  Fe21      1.0  0.20582  0.36648  0.10697  1.0000
  S   S40       1.0  0.24238  0.37454  0.08942  1.0000
  S   S41       1.0  0.19304  0.36055  0.17139  1.0000
  Fe  Fe22      1.0  0.18903  0.37528  0.02151  1.0000
  C   C132      1.0  0.17972  0.33952  0.20273  1.0000
  Fe  Fe23      1.0  0.23652  0.35324  0.03386  1.0000
  Fe  Fe24      1.0  0.22735  0.40477  0.05460  1.0000
  S   S42       1.0  0.24398  0.44077  0.05663  1.0000
  H   H153      1.0  0.16950  0.65862  0.31059  1.0000
  S   S43       1.0  0.19155  0.39783  0.07549  1.0000
  H   H154      1.0  0.17901  0.36218  0.25338  1.0000
  C   C133      1.0  0.22168  0.51788  0.05357  1.0000
  C   C134      1.0  0.20521  0.50039  0.05020  1.0000
  C   C135      1.0  0.21158  0.47683  0.05096  1.0000
  C   C136      1.0  0.23464  0.47028  0.05504  1.0000
  C   C137      1.0  0.25107  0.48781  0.05833  1.0000
  C   C138      1.0  0.24471  0.51135  0.05768  1.0000
  H   H155      1.0  0.18732  0.50506  0.04729  1.0000
  H   H156      1.0  0.19865  0.46372  0.04850  1.0000
  S   S44       1.0  0.22391  0.38378  0.99800  1.0000
  H   H157      1.0  0.25768  0.52441  0.06041  1.0000
  S   S45       1.0  0.27707  0.65194  0.03069  1.0000
  H   H158      1.0  0.26896  0.48311  0.06152  1.0000
  S   S46       1.0  0.22369  0.60949  0.00440  1.0000
  C   C139      1.0  0.12399  0.36019  0.18510  1.0000
  H   H159      1.0  0.08119  0.64095  0.00101  1.0000
  N   N10       1.0  0.20653  0.56104  0.19242  1.0000
  C   C140      1.0  0.22818  0.57166  0.17881  1.0000
  C   C141      1.0  0.18825  0.56641  0.16311  1.0000
  C   C142      1.0  0.20004  0.57216  0.23059  1.0000
  C   C143      1.0  0.20957  0.53580  0.19540  1.0000
  C   C144      1.0  0.20544  0.52325  0.23099  1.0000
  C   C145      1.0  0.21668  0.52294  0.16172  1.0000
  C   C146      1.0  0.20844  0.49936  0.23241  1.0000
  C   C147      1.0  0.21962  0.49912  0.16345  1.0000
  C   C148      1.0  0.21553  0.48734  0.19873  1.0000
  H   H160      1.0  0.23280  0.56656  0.14797  1.0000
  H   H161      1.0  0.22693  0.59078  0.17849  1.0000
  H   H162      1.0  0.24274  0.56680  0.19857  1.0000
  H   H163      1.0  0.19279  0.56060  0.13259  1.0000
  H   H164      1.0  0.18488  0.58527  0.16113  1.0000
  H   H165      1.0  0.17188  0.55800  0.17130  1.0000
  H   H166      1.0  0.21331  0.56924  0.25387  1.0000
  H   H167      1.0  0.19818  0.59117  0.22723  1.0000
  H   H168      1.0  0.18318  0.56602  0.24151  1.0000
  H   H169      1.0  0.19988  0.53145  0.25811  1.0000
  H   H170      1.0  0.21998  0.53127  0.13364  1.0000
  H   H171      1.0  0.20524  0.49007  0.25979  1.0000
  H   H172      1.0  0.22509  0.48972  0.13719  1.0000
  H   H173      1.0  0.21783  0.46884  0.19984  1.0000
  S   S47       1.0  0.20093  0.34366  0.05403  1.0000
  C   C149      1.0  0.18300  0.64793  0.25332  1.0000
  C   C150      1.0  0.14503  0.34101  0.09297  1.0000
  H   H174      1.0  0.15060  0.34690  0.06300  1.0000
  H   H175      1.0  0.11813  0.66127  0.99922  1.0000
  C   C151      1.0  0.16925  0.66161  0.27884  1.0000
  N   N11       1.0  0.12720  0.35644  0.10972  1.0000
  H   H176      1.0  0.11192  0.36433  0.05268  1.0000
  H   H177      1.0  0.15279  0.38064  0.12872  1.0000
  H   H178      1.0  0.05598  0.35675  0.45188  1.0000
  H   H179      1.0  0.14147  0.38610  0.08032  1.0000
  C   C152      1.0  0.18300  0.65135  0.21175  1.0000
  H   H180      1.0  0.12424  0.39262  0.12291  1.0000
  C   C153      1.0  0.13677  0.38000  0.11068  1.0000
  C   C154      1.0  0.10728  0.35693  0.08223  1.0000
  H   H181      1.0  0.19372  0.63455  0.26596  1.0000
  H   H182      1.0  0.09302  0.36749  0.09469  1.0000
  H   H183      1.0  0.01428  0.34592  0.44369  1.0000
  H   H184      1.0  0.12098  0.36075  0.24901  1.0000
  C   C155      1.0  0.17459  0.34531  0.24249  1.0000
  C   C156      1.0  0.12019  0.34778  0.14931  1.0000
  H   H185      1.0  0.16043  0.34050  0.11254  1.0000
  S   S48       1.0  0.15804  0.62761  0.99256  1.0000
  H   H186      1.0  0.16954  0.55214  0.99150  1.0000
  H   H187      1.0  0.30182  0.33834  0.00287  1.0000
  H   H188      1.0  0.10056  0.33952  0.07600  1.0000
  H   H189      1.0  0.07520  0.33682  0.47547  1.0000
  C   C157      1.0  0.05891  0.33823  0.45854  1.0000
  Fe  Fe25      1.0  0.08307  0.41436  0.71100  1.0000
  S   S49       1.0  0.08341  0.41152  0.77744  1.0000
  S   S50       1.0  0.07175  0.44721  0.68095  1.0000
  Fe  Fe26      1.0  0.09653  0.36407  0.69821  1.0000
  S   S51       1.0  0.09826  0.35721  0.76419  1.0000
  H   H190      1.0  0.03392  0.56798  0.65282  1.0000
  Fe  Fe27      1.0  0.06579  0.37802  0.76701  1.0000
  S   S52       1.0  0.03472  0.36736  0.80136  1.0000
  Fe  Fe28      1.0  0.11592  0.39124  0.76887  1.0000
  S   S53       1.0  0.14802  0.39914  0.80452  1.0000
  S   S54       1.0  0.06270  0.38244  0.70113  1.0000
  S   S55       1.0  0.11701  0.39653  0.70232  1.0000
  Fe  Fe29      1.0  0.11037  0.56751  0.73658  1.0000
  S   S56       1.0  0.10245  0.58137  0.79709  1.0000
  S   S57       1.0  0.12788  0.53291  0.73882  1.0000
  Fe  Fe30      1.0  0.08976  0.60920  0.69382  1.0000
  S   S58       1.0  0.08042  0.62629  0.75161  1.0000
  S   S59       1.0  0.07526  0.62578  0.63770  1.0000
  Fe  Fe31      1.0  0.11516  0.61470  0.77312  1.0000
  S   S60       1.0  0.13910  0.63774  0.80771  1.0000
  Fe  Fe32      1.0  0.06862  0.59143  0.77064  1.0000
  S   S61       1.0  0.03670  0.58214  0.80438  1.0000
  S   S62       1.0  0.12569  0.60032  0.71362  1.0000
  S   S63       1.0  0.07538  0.57486  0.71187  1.0000
  H   H191      1.0  0.05334  0.49137  0.82746  1.0000
  H   H192      1.0  0.14305  0.53924  0.82241  1.0000
  C   C158      1.0  0.11786  0.35406  0.54652  1.0000
  C   C159      1.0  0.00523  0.50423  0.77426  1.0000
  C   C160      1.0  0.14598  0.63238  0.85813  1.0000
  C   C161      1.0  0.13245  0.61816  0.88181  1.0000
  C   C162      1.0  0.13666  0.61648  0.92289  1.0000
  C   C163      1.0  0.15505  0.62818  0.94036  1.0000
  C   C164      1.0  0.16937  0.64139  0.91635  1.0000
  C   C165      1.0  0.16460  0.64376  0.87548  1.0000
  H   H193      1.0  0.11823  0.60912  0.86885  1.0000
  H   H194      1.0  0.12537  0.60642  0.94135  1.0000
  C   C166      1.0  0.03493  0.34143  0.51732  1.0000
  H   H195      1.0  0.03382  0.65393  0.89636  1.0000
  C   C167      1.0  0.09212  0.63890  0.60025  1.0000
  H   H196      1.0  0.05399  0.62719  0.82871  1.0000
  C   C168      1.0  0.11605  0.63762  0.60077  1.0000
  C   C169      1.0  0.04915  0.35659  0.58085  1.0000
  H   H197      1.0  0.12471  0.62863  0.62471  1.0000
  C   C170      1.0  0.01464  0.62075  0.77580  1.0000
  C   C171      1.0  0.01307  0.60070  0.79853  1.0000
  C   C172      1.0  0.11249  0.35425  0.58736  1.0000
  H   H198      1.0  0.03065  0.62533  0.76202  1.0000
  H   H199      1.0  0.20228  0.57704  0.88616  1.0000
  C   C173      1.0  0.14918  0.39301  0.85605  1.0000
  C   C174      1.0  0.16892  0.39867  0.87777  1.0000
  C   C175      1.0  0.17092  0.39281  0.91831  1.0000
  C   C176      1.0  0.15321  0.38110  0.93737  1.0000
  C   C177      1.0  0.13330  0.37585  0.91585  1.0000
  C   C178      1.0  0.13125  0.38180  0.87538  1.0000
  H   H200      1.0  0.18284  0.40740  0.86307  1.0000
  H   H201      1.0  0.18622  0.39719  0.93469  1.0000
  H   H202      1.0  0.11948  0.36687  0.93036  1.0000
  H   H203      1.0  0.11594  0.37738  0.85901  1.0000
  H   H204      1.0  0.05427  0.47088  0.76535  1.0000
  C   C179      1.0  0.08620  0.47135  0.69882  1.0000
  C   C180      1.0  0.10178  0.46925  0.73019  1.0000
  C   C181      1.0  0.11378  0.48852  0.74346  1.0000
  C   C182      1.0  0.11037  0.50991  0.72524  1.0000
  C   C183      1.0  0.09417  0.51223  0.69477  1.0000
  C   C184      1.0  0.08211  0.49291  0.68155  1.0000
  H   H205      1.0  0.10485  0.45268  0.74377  1.0000
  H   H206      1.0  0.12591  0.48680  0.76760  1.0000
  H   H207      1.0  0.09171  0.52865  0.68024  1.0000
  H   H208      1.0  0.07023  0.49445  0.65703  1.0000
  H   H209      1.0  0.15640  0.57519  0.96365  1.0000
  C   C185      1.0  0.06463  0.62966  0.85577  1.0000
  H   H210      1.0  0.03210  0.47449  0.72936  1.0000
  H   H211      1.0  0.03205  0.40836  0.75381  1.0000
  C   C186      1.0  0.02804  0.36695  0.58837  1.0000
  C   C187      1.0  0.01019  0.36457  0.56118  1.0000
  H   H212      1.0  0.12208  0.36996  0.53165  1.0000
  H   H213      1.0  0.20296  0.59269  0.93190  1.0000
  N   N12       1.0  0.18589  0.55992  0.93535  1.0000
  C   C188      1.0  0.03526  0.49688  0.82227  1.0000
  C   C189      1.0  0.01520  0.40478  0.76532  1.0000
  H   H214      1.0  0.11162  0.46777  0.59349  1.0000
  H   H215      1.0  0.02641  0.46079  0.77675  1.0000
  H   H216      1.0  0.14808  0.49027  0.91747  1.0000
  C   C190      1.0  0.11785  0.65903  0.53810  1.0000
  H   H217      1.0  0.20777  0.36324  0.89794  1.0000
  C   C191      1.0  0.08115  0.65058  0.56879  1.0000
  H   H218      1.0  0.06472  0.66482  0.80448  1.0000
  H   H219      1.0  0.17189  0.34959  0.87887  1.0000
  H   H220      1.0  0.03243  0.66314  0.84611  1.0000
  S   S64       1.0  0.15568  0.37190  0.98741  1.0000
  C   C192      1.0  0.17168  0.54407  0.91152  1.0000
  H   H221      1.0  0.21711  0.54156  0.92172  1.0000
  N   N13       1.0  0.06661  0.65429  0.86615  1.0000
  C   C193      1.0  0.01480  0.33866  0.69190  1.0000
  H   H222      1.0  0.16612  0.56620  0.85904  1.0000
  H   H223      1.0  0.02621  0.49546  0.64422  1.0000
  C   C194      1.0  0.01185  0.38605  0.79064  1.0000
  C   C195      1.0  0.12882  0.64756  0.56975  1.0000
  C   C196      1.0  0.03572  0.47505  0.76188  1.0000
  H   H224      1.0  0.18475  0.33781  0.93862  1.0000
  C   C197      1.0  0.08683  0.64882  0.97351  1.0000
  H   H225      1.0  0.18344  0.65065  0.92959  1.0000
  C   C198      1.0  0.17306  0.56691  0.97147  1.0000
  C   C199      1.0  0.01342  0.35192  0.52621  1.0000
  N   N14       1.0  0.02970  0.49780  0.77927  1.0000
  H   H226      1.0  0.01571  0.34866  0.71895  1.0000
  H   H227      1.0  0.11258  0.37020  0.60379  1.0000
  H   H228      1.0  0.21898  0.56019  0.96432  1.0000
  H   H229      1.0  0.23304  0.35273  0.92193  1.0000
  H   H230      1.0  0.02398  0.48450  0.83804  1.0000
  H   H231      1.0  0.06294  0.35820  0.60235  1.0000
  H   H232      1.0  0.12491  0.42922  0.61461  1.0000
  C   C200      1.0  0.14429  0.51302  0.86744  1.0000
  H   H233      1.0  0.17698  0.59142  0.90493  1.0000
  H   H234      1.0  0.00845  0.53836  0.80071  1.0000
  H   H235      1.0  0.01270  0.60054  0.64722  1.0000
  C   C201      1.0  0.14952  0.53445  0.85161  1.0000
  C   C202      1.0  0.10758  0.66038  0.97267  1.0000
  C   C203      1.0  0.19229  0.58110  0.91345  1.0000
  C   C204      1.0  0.15231  0.50693  0.90508  1.0000
  N   N15       1.0  0.17355  0.45853  0.71210  1.0000
  C   C205      1.0  0.17998  0.48046  0.73159  1.0000
  C   C206      1.0  0.16361  0.44344  0.74313  1.0000
  C   C207      1.0  0.19482  0.44758  0.69690  1.0000
  C   C208      1.0  0.15707  0.46156  0.67892  1.0000
  C   C209      1.0  0.14949  0.48350  0.66528  1.0000
  C   C210      1.0  0.14826  0.44211  0.65882  1.0000
  C   C211      1.0  0.13351  0.48559  0.63444  1.0000
  C   C212      1.0  0.13204  0.44439  0.62845  1.0000
  C   C213      1.0  0.12458  0.46609  0.61644  1.0000
  H   H236      1.0  0.16467  0.48966  0.74355  1.0000
  H   H237      1.0  0.19180  0.47758  0.75716  1.0000
  H   H238      1.0  0.18891  0.49216  0.71062  1.0000
  H   H239      1.0  0.16056  0.42567  0.73244  1.0000
  H   H240      1.0  0.14688  0.45022  0.75385  1.0000
  H   H241      1.0  0.17500  0.44155  0.76955  1.0000
  H   H242      1.0  0.20793  0.44554  0.72076  1.0000
  H   H243      1.0  0.19168  0.43009  0.68488  1.0000
  H   H244      1.0  0.20242  0.45797  0.67250  1.0000
  H   H245      1.0  0.15507  0.49938  0.67859  1.0000
  H   H246      1.0  0.15361  0.42491  0.66684  1.0000
  H   H247      1.0  0.03309  0.51390  0.83686  1.0000
  H   H248      1.0  0.13387  0.50119  0.85053  1.0000
  H   H249      1.0  0.14748  0.34525  0.82057  1.0000
  C   C214      1.0  0.16568  0.52223  0.92698  1.0000
  C   C215      1.0  0.03205  0.53189  0.64754  1.0000
  H   H250      1.0  0.04032  0.51709  0.72803  1.0000
  H   H251      1.0  0.02556  0.37668  0.61553  1.0000
  C   C216      1.0  0.01885  0.51217  0.65113  1.0000
  H   H252      1.0  0.05646  0.61937  0.87963  1.0000
  C   C217      1.0  0.16296  0.54985  0.87316  1.0000
  H   H253      1.0  0.06300  0.51033  0.76220  1.0000
  H   H254      1.0  0.09304  0.65912  0.82205  1.0000
  C   C218      1.0  0.00536  0.59788  0.67742  1.0000
  H   H255      1.0  0.04301  0.53244  0.77398  1.0000
  H   H256      1.0  0.06265  0.65160  0.56808  1.0000
  H   H257      1.0  0.17120  0.51686  0.95631  1.0000
  H   H258      1.0  0.14730  0.64610  0.57005  1.0000
  C   C219      1.0  0.09394  0.66072  0.53795  1.0000
  H   H259      1.0  0.12748  0.50247  0.62534  1.0000
  C   C220      1.0  0.07607  0.66642  0.83096  1.0000
  C   C221      1.0  0.04454  0.51517  0.76008  1.0000
  H   H260      1.0  0.17516  0.65479  0.85734  1.0000
  C   C222      1.0  0.05257  0.34395  0.54601  1.0000
  H   H261      1.0  0.08174  0.62189  0.84981  1.0000
  C   C223      1.0  0.02269  0.55347  0.65646  1.0000
  H   H262      1.0  0.01968  0.59508  0.69889  1.0000
  C   C224      1.0  0.04329  0.66376  0.87341  1.0000
  H   H263      1.0  0.20459  0.53378  0.96860  1.0000
  C   C225      1.0  0.08088  0.65667  0.90235  1.0000
  C   C226      1.0  0.20751  0.54832  0.94781  1.0000
  C   C227      1.0  0.07361  0.64696  0.93896  1.0000
  C   C228      1.0  0.10231  0.66813  0.90246  1.0000
  C   C229      1.0  0.17652  0.33657  0.85755  1.0000
  H   H264      1.0  0.04970  0.53052  0.63768  1.0000
  H   H265      1.0  0.23095  0.35230  0.86847  1.0000
  H   H266      1.0  0.05781  0.63753  0.94102  1.0000
  C   C230      1.0  0.22119  0.34962  0.89648  1.0000
  H   H267      1.0  0.18277  0.57948  0.98966  1.0000
  H   H268      1.0  0.06922  0.33619  0.54164  1.0000
  Fe  Fe33      1.0  0.39832  0.91226  0.20964  1.0000
  S   S65       1.0  0.39953  0.90806  0.27596  1.0000
  S   S66       1.0  0.39757  0.94652  0.17802  1.0000
  Fe  Fe34      1.0  0.39592  0.86042  0.19430  1.0000
  S   S67       1.0  0.39592  0.85247  0.25978  1.0000
  S   S68       1.0  0.39934  0.82946  0.15379  1.0000
  Fe  Fe35      1.0  0.37163  0.88235  0.26630  1.0000
  S   S69       1.0  0.33809  0.88596  0.29986  1.0000
  Fe  Fe36      1.0  0.42369  0.87881  0.26307  1.0000
  S   S70       1.0  0.45640  0.87000  0.29528  1.0000
  S   S71       1.0  0.36905  0.88804  0.20011  1.0000
  S   S72       1.0  0.42496  0.88525  0.19748  1.0000
  Fe  Fe37      1.0  0.12629  0.74252  0.42183  1.0000
  S   S73       1.0  0.14792  0.71106  0.41186  1.0000
  S   S74       1.0  0.14235  0.77761  0.43746  1.0000
  Fe  Fe38      1.0  0.08077  0.71602  0.40513  1.0000
  S   S75       1.0  0.10051  0.68284  0.39474  1.0000
  S   S76       1.0  0.04171  0.71233  0.39448  1.0000
  Fe  Fe39      1.0  0.12105  0.69302  0.44859  1.0000
  Fe  Fe40      1.0  0.12562  0.70355  0.35870  1.0000
  H   H269      1.0  0.30650  0.93960  0.46227  1.0000
  S   S77       1.0  0.10032  0.72488  0.46117  1.0000
  S   S78       1.0  0.10497  0.73635  0.36657  1.0000
  H   H270      1.0  0.35522  0.97953  0.46083  1.0000
  C   C231      1.0  0.33688  0.95473  0.19973  1.0000
  H   H271      1.0  0.47038  0.80782  0.11926  1.0000
  H   H272      1.0  0.34647  0.79728  0.18449  1.0000
  C   C232      1.0  0.37058  0.95768  0.37170  1.0000
  H   H273      1.0  0.46671  0.85634  0.21443  1.0000
  H   H274      1.0  0.47311  0.82706  0.22597  1.0000
  H   H275      1.0  0.22537  0.72876  0.20372  1.0000
  C   C233      1.0  0.35438  0.92780  0.41271  1.0000
  H   H276      1.0  0.31767  0.91103  0.45584  1.0000
  H   H277      1.0  0.16877  0.67189  0.16444  1.0000
  N   N16       1.0  0.33008  0.95212  0.24198  1.0000
  N   N17       1.0  0.34121  0.93487  0.48280  1.0000
  N   N18       1.0  0.32956  0.76308  0.03815  1.0000
  C   C234      1.0  0.16383  0.79638  0.45735  1.0000
  H   H278      1.0  0.30321  0.74458  0.00680  1.0000
  C   C235      1.0  0.33873  0.76715  0.15001  1.0000
  H   H279      1.0  0.36527  0.75446  0.03229  1.0000
  C   C236      1.0  0.01360  0.72396  0.40353  1.0000
  C   C237      1.0  0.46421  0.83845  0.20414  1.0000
  C   C238      1.0  0.40803  0.98981  0.27037  1.0000
  H   H280      1.0  0.30708  0.73562  0.05684  1.0000
  C   C239      1.0  0.33590  0.87684  0.34983  1.0000
  C   C240      1.0  0.31486  0.87934  0.36963  1.0000
  C   C241      1.0  0.31271  0.87312  0.40990  1.0000
  C   C242      1.0  0.33168  0.86457  0.43080  1.0000
  C   C243      1.0  0.35264  0.86175  0.41082  1.0000
  C   C244      1.0  0.35477  0.86788  0.37048  1.0000
  H   H281      1.0  0.30015  0.88612  0.35378  1.0000
  H   H282      1.0  0.29642  0.87511  0.42481  1.0000
  H   H283      1.0  0.36738  0.85506  0.42674  1.0000
  H   H284      1.0  0.37105  0.86581  0.35550  1.0000
  C   C245      1.0  0.39195  0.83053  0.10292  1.0000
  C   C246      1.0  0.39595  0.81108  0.07916  1.0000
  C   C247      1.0  0.38938  0.81094  0.03889  1.0000
  C   C248      1.0  0.37860  0.83023  0.02221  1.0000
  C   C249      1.0  0.37477  0.84972  0.04594  1.0000
  C   C250      1.0  0.38151  0.84994  0.08613  1.0000
  H   H285      1.0  0.40388  0.79595  0.09207  1.0000
  H   H286      1.0  0.39247  0.79587  0.02093  1.0000
  H   H287      1.0  0.36643  0.86470  0.03321  1.0000
  H   H288      1.0  0.37830  0.86498  0.10421  1.0000
  C   C251      1.0  0.48027  0.88486  0.27708  1.0000
  C   C252      1.0  0.47725  0.90416  0.25281  1.0000
  H   H289      1.0  0.34167  0.93791  0.18609  1.0000
  H   H290      1.0  0.46019  0.91044  0.24616  1.0000
  C   C253      1.0  0.35733  0.96648  0.43837  1.0000
  C   C254      1.0  0.40110  0.97146  0.20685  1.0000
  H   H291      1.0  0.35392  0.92452  0.25301  1.0000
  C   C255      1.0  0.40767  0.97001  0.24674  1.0000
  H   H292      1.0  0.14181  0.82586  0.44951  1.0000
  H   H293      1.0  0.41234  0.95364  0.25954  1.0000
  C   C256      1.0  0.31777  0.92619  0.47577  1.0000
  H   H294      1.0  0.31621  0.91839  0.23108  1.0000
  H   H295      1.0  0.34460  0.82349  0.12699  1.0000
  N   N19       1.0  0.18208  0.76204  0.33373  1.0000
  C   C257      1.0  0.19009  0.74939  0.36952  1.0000
  C   C258      1.0  0.18540  0.78693  0.34137  1.0000
  C   C259      1.0  0.15713  0.75833  0.32872  1.0000
  C   C260      1.0  0.19439  0.75333  0.29825  1.0000
  C   C261      1.0  0.20854  0.76742  0.27416  1.0000
  C   C262      1.0  0.19231  0.72997  0.28677  1.0000
  C   C263      1.0  0.21961  0.75854  0.24052  1.0000
  C   C264      1.0  0.20335  0.72132  0.25307  1.0000
  C   C265      1.0  0.21695  0.73557  0.22994  1.0000
  H   H296      1.0  0.20881  0.75164  0.37416  1.0000
  H   H297      1.0  0.18112  0.75544  0.39683  1.0000
  H   H298      1.0  0.18689  0.73065  0.36734  1.0000
  H   H299      1.0  0.20370  0.79095  0.34719  1.0000
  H   H300      1.0  0.17574  0.79276  0.36823  1.0000
  H   H301      1.0  0.17903  0.79760  0.31611  1.0000
  H   H302      1.0  0.15269  0.73982  0.32803  1.0000
  H   H303      1.0  0.14704  0.76599  0.35354  1.0000
  H   H304      1.0  0.15072  0.76603  0.30047  1.0000
  H   H305      1.0  0.21127  0.78535  0.28054  1.0000
  H   H306      1.0  0.18187  0.71817  0.30357  1.0000
  H   H307      1.0  0.23025  0.76956  0.22240  1.0000
  H   H308      1.0  0.20114  0.70345  0.24472  1.0000
  S   S79       1.0  0.33038  0.85877  0.48238  1.0000
  C   C266      1.0  0.47966  0.98222  0.20698  1.0000
  C   C267      1.0  0.20129  0.80517  0.48746  1.0000
  H   H309      1.0  0.29595  0.94141  0.22593  1.0000
  C   C268      1.0  0.34246  0.79055  0.15526  1.0000
  H   H310      1.0  0.44637  0.80990  0.15171  1.0000
  H   H311      1.0  0.49697  0.87317  0.18472  1.0000
  C   C269      1.0  0.16906  0.66889  0.19618  1.0000
  H   H312      1.0  0.34680  0.73976  0.99808  1.0000
  C   C270      1.0  0.15524  0.67911  0.26326  1.0000
  H   H313      1.0  0.46811  0.84988  0.10523  1.0000
  H   H314      1.0  0.47246  0.79792  0.17048  1.0000
  C   C271      1.0  0.34138  0.80533  0.12274  1.0000
  H   H315      1.0  0.30565  0.93188  0.27474  1.0000
  C   C272      1.0  0.18554  0.78907  0.47115  1.0000
  H   H316      1.0  0.36536  0.95208  0.26190  1.0000
  H   H317      1.0  0.19017  0.77109  0.46963  1.0000
  N   N20       1.0  0.47285  0.83475  0.16316  1.0000
  C   C273      1.0  0.46173  0.85171  0.13621  1.0000
  C   C274      1.0  0.31099  0.93541  0.24353  1.0000
  H   H318      1.0  0.34959  0.91000  0.41515  1.0000
  H   H319      1.0  0.31540  0.79353  0.01028  1.0000
  C   C275      1.0  0.49635  0.91571  0.23783  1.0000
  H   H320      1.0  0.33166  0.74012  0.10941  1.0000
  C   C276      1.0  0.33342  0.77296  0.07813  1.0000
  C   C277      1.0  0.34949  0.94188  0.26437  1.0000
  C   C278      1.0  0.36423  0.93487  0.37695  1.0000
  H   H321      1.0  0.37197  0.99121  0.39781  1.0000
  C   C279      1.0  0.30729  0.75099  0.03718  1.0000
  H   H322      1.0  0.44546  0.83520  0.20653  1.0000
  C   C280      1.0  0.15540  0.68265  0.22174  1.0000
  H   H323      1.0  0.35624  0.90071  0.47866  1.0000
  H   H324      1.0  0.39108  0.99428  0.15923  1.0000
  H   H325      1.0  0.28845  0.96836  0.27467  1.0000
  C   C281      1.0  0.32431  0.97492  0.25892  1.0000
  C   C282      1.0  0.35097  0.94322  0.44482  1.0000
  H   H326      1.0  0.14475  0.69612  0.20915  1.0000
  C   C283      1.0  0.32921  0.78051  0.00581  1.0000
  H   H327      1.0  0.34521  0.93995  0.29639  1.0000
  C   C284      1.0  0.33704  0.79680  0.08463  1.0000
  C   C285      1.0  0.46540  0.81153  0.15052  1.0000
  H   H328      1.0  0.35214  0.96580  0.19608  1.0000
  H   H329      1.0  0.32281  0.96252  0.18175  1.0000
  C   C286      1.0  0.34109  0.99240  0.26032  1.0000
  C   C287      1.0  0.00958  0.74287  0.42834  1.0000
  C   C288      1.0  0.30230  0.98051  0.27437  1.0000
  H   H330      1.0  0.33963  0.75569  0.17542  1.0000
  C   C289      1.0  0.33421  0.75843  0.11209  1.0000
  H   H331      1.0  0.33713  0.80924  0.06075  1.0000
  H   H332      1.0  0.36708  0.92241  0.35340  1.0000
  H   H333      1.0  0.02391  0.75125  0.44243  1.0000
  C   C290      1.0  0.39602  0.99303  0.19019  1.0000
  C   C291      1.0  0.49801  0.83792  0.16230  1.0000
  C   C292      1.0  0.34815  0.74638  0.02904  1.0000
  H   H334      1.0  0.29303  0.76259  0.04647  1.0000
  S   S80       1.0  0.13786  0.69754  0.29391  1.0000
  H   H335      1.0  0.46471  0.86972  0.14573  1.0000
  H   H336      1.0  0.44278  0.84955  0.13536  1.0000
  H   H337      1.0  0.34780  0.73105  0.04875  1.0000
  H   H338      1.0  0.01884  0.67382  0.44203  1.0000
  C   C293      1.0  0.36697  0.97348  0.40220  1.0000
  H   H339      1.0  0.35816  0.98945  0.24900  1.0000
  H   H340      1.0  0.37843  0.96309  0.34402  1.0000
  H   H341      1.0  0.47081  0.96623  0.20142  1.0000
  H   H342      1.0  0.41274  0.98851  0.30144  1.0000
  H   H343      1.0  0.49388  0.93069  0.21930  1.0000
  H   H344      1.0  0.16883  0.85355  0.47828  1.0000
  C   C294      1.0  0.31291  0.67864  0.00330  1.0000
  H   H345      1.0  0.34590  0.78952  0.00345  1.0000
  C   C295      1.0  0.17377  0.83562  0.47638  1.0000
  C   C296      1.0  0.15836  0.81981  0.45989  1.0000
  C   C297      1.0  0.28926  0.67410  0.00017  1.0000
  C   C298      1.0  0.01104  0.67786  0.47052  1.0000
  H   H346      1.0  0.32319  0.66862  0.02387  1.0000
  C   C299      1.0  0.46701  0.00170  0.21732  1.0000
  H   H347      1.0  0.44852  0.00083  0.21955  1.0000
  C   C300      1.0  0.16130  0.75532  0.56829  1.0000
  Fe  Fe41      1.0  0.37451  0.80013  0.93118  1.0000
  S   S81       1.0  0.38457  0.76437  0.95012  1.0000
  Fe  Fe42      1.0  0.36786  0.78729  0.84332  1.0000
  S   S82       1.0  0.37811  0.75062  0.85680  1.0000
  S   S83       1.0  0.35945  0.79559  0.77773  1.0000
  Fe  Fe43      1.0  0.35526  0.75274  0.91096  1.0000
  S   S84       1.0  0.32280  0.73088  0.92201  1.0000
  Fe  Fe44      1.0  0.40672  0.76524  0.89461  1.0000
  S   S85       1.0  0.44336  0.75026  0.88747  1.0000
  S   S86       1.0  0.34408  0.78887  0.89546  1.0000
  S   S87       1.0  0.39776  0.80165  0.87773  1.0000
  Fe  Fe45      1.0  0.24823  0.86310  0.53574  1.0000
  S   S88       1.0  0.27795  0.84000  0.55237  1.0000
  S   S89       1.0  0.21339  0.85041  0.51161  1.0000
  Fe  Fe46      1.0  0.27461  0.90829  0.55761  1.0000
  S   S90       1.0  0.30561  0.88705  0.57457  1.0000
  S   S91       1.0  0.28432  0.94656  0.56806  1.0000
  Fe  Fe47      1.0  0.29890  0.86644  0.51961  1.0000
  Fe  Fe48      1.0  0.28238  0.86270  0.60630  1.0000
  S   S92       1.0  0.28709  0.85374  0.67285  1.0000
  H   H348      1.0  0.12325  0.73268  0.58947  1.0000
  S   S93       1.0  0.25121  0.88461  0.59187  1.0000
  C   C301      1.0  0.27453  0.97575  0.56188  1.0000
  C   C302      1.0  0.25321  0.98146  0.54535  1.0000
  C   C303      1.0  0.27635  0.68717  0.97306  1.0000
  H   H349      1.0  0.37356  0.92137  0.50370  1.0000
  H   H350      1.0  0.30539  0.98982  0.58700  1.0000
  C   C304      1.0  0.33958  0.81267  0.74951  1.0000
  C   C305      1.0  0.32173  0.82524  0.76711  1.0000
  C   C306      1.0  0.30593  0.83762  0.74316  1.0000
  C   C307      1.0  0.30795  0.83810  0.70138  1.0000
  C   C308      1.0  0.32598  0.82581  0.68385  1.0000
  C   C309      1.0  0.34154  0.81311  0.70774  1.0000
  H   H351      1.0  0.31990  0.82516  0.79911  1.0000
  H   H352      1.0  0.29195  0.84686  0.75713  1.0000
  H   H353      1.0  0.32780  0.82580  0.65184  1.0000
  H   H354      1.0  0.35522  0.80346  0.69366  1.0000
  H   H355      1.0  0.35673  0.95994  0.52134  1.0000
  C   C310      1.0  0.47186  0.75951  0.89906  1.0000
  C   C311      1.0  0.47632  0.77972  0.92018  1.0000
  C   C312      1.0  0.49070  0.74614  0.88616  1.0000
  H   H356      1.0  0.46214  0.79025  0.93030  1.0000
  C   C313      1.0  0.17691  0.79980  0.58918  1.0000
  C   C314      1.0  0.31060  0.70869  0.95250  1.0000
  C   C315      1.0  0.12884  0.73001  0.55819  1.0000
  H   H357      1.0  0.30766  0.95748  0.70462  1.0000
  H   H358      1.0  0.34172  0.69850  0.98229  1.0000
  H   H359      1.0  0.24188  0.96793  0.53576  1.0000
  H   H360      1.0  0.26609  0.92400  0.64394  1.0000
  H   H361      1.0  0.15188  0.81248  0.54764  1.0000
  H   H362      1.0  0.26664  0.89937  0.67638  1.0000
  H   H363      1.0  0.21783  0.79940  0.49820  1.0000
  H   H364      1.0  0.07805  0.68511  0.83674  1.0000
  C   C316      1.0  0.28695  0.70424  0.94946  1.0000
  H   H365      1.0  0.25820  0.68402  0.97013  1.0000
  H   H366      1.0  0.29141  0.95767  0.65901  1.0000
  C   C317      1.0  0.02474  0.67929  0.50428  1.0000
  C   C318      1.0  0.35560  0.91581  0.49882  1.0000
  H   H367      1.0  0.15664  0.71250  0.50046  1.0000
  C   C319      1.0  0.29277  0.91739  0.73336  1.0000
  C   C320      1.0  0.27825  0.92635  0.76355  1.0000
  C   C321      1.0  0.30849  0.89976  0.74486  1.0000
  C   C322      1.0  0.27992  0.91873  0.80293  1.0000
  C   C323      1.0  0.31007  0.89234  0.78435  1.0000
  C   C324      1.0  0.29588  0.90183  0.81334  1.0000
  N   N21       1.0  0.29061  0.92571  0.69183  1.0000
  H   H368      1.0  0.32607  0.77254  0.97622  1.0000
  C   C325      1.0  0.32350  0.69573  0.97976  1.0000
  H   H369      1.0  0.33265  0.94565  0.54242  1.0000
  C   C326      1.0  0.01500  0.68532  0.54063  1.0000
  S   S94       1.0  0.36884  0.83037  0.97247  1.0000
  C   C327      1.0  0.48999  0.76721  0.78165  1.0000
  C   C328      1.0  0.19537  0.82866  0.49043  1.0000
  H   H370      1.0  0.11919  0.74238  0.53922  1.0000
  H   H371      1.0  0.26524  0.93908  0.75679  1.0000
  H   H372      1.0  0.31949  0.89102  0.72383  1.0000
  H   H373      1.0  0.26862  0.92579  0.82546  1.0000
  H   H374      1.0  0.32214  0.87879  0.79232  1.0000
  H   H375      1.0  0.13846  0.77461  0.52858  1.0000
  N   N22       1.0  0.30484  0.74564  0.79824  1.0000
  C   C329      1.0  0.28894  0.72796  0.81353  1.0000
  C   C330      1.0  0.32859  0.73650  0.80091  1.0000
  C   C331      1.0  0.30330  0.76577  0.82522  1.0000
  C   C332      1.0  0.29923  0.75117  0.75629  1.0000
  C   C333      1.0  0.30045  0.73384  0.72666  1.0000
  C   C334      1.0  0.29259  0.77356  0.74347  1.0000
  C   C335      1.0  0.29580  0.73874  0.68669  1.0000
  C   C336      1.0  0.28793  0.77825  0.70345  1.0000
  C   C337      1.0  0.28966  0.76094  0.67510  1.0000
  H   H376      1.0  0.29054  0.71145  0.79724  1.0000
  H   H377      1.0  0.29239  0.72390  0.84547  1.0000
  H   H378      1.0  0.27082  0.73390  0.81108  1.0000
  H   H379      1.0  0.33350  0.73266  0.83228  1.0000
  H   H380      1.0  0.34108  0.74911  0.78885  1.0000
  H   H381      1.0  0.33101  0.72022  0.78428  1.0000
  H   H382      1.0  0.28569  0.77319  0.82592  1.0000
  H   H383      1.0  0.30761  0.76099  0.85645  1.0000
  H   H384      1.0  0.31560  0.77939  0.81634  1.0000
  H   H385      1.0  0.30528  0.71641  0.73416  1.0000
  H   H386      1.0  0.29123  0.78792  0.76357  1.0000
  H   H387      1.0  0.29720  0.72531  0.66450  1.0000
  H   H388      1.0  0.28330  0.79558  0.69425  1.0000
  H   H389      1.0  0.28638  0.76483  0.64406  1.0000
  H   H390      1.0  0.32766  0.96691  0.50542  1.0000
  C   C338      1.0  0.16041  0.72994  0.51189  1.0000
  C   C339      1.0  0.15918  0.79736  0.56188  1.0000
  H   H391      1.0  0.02582  0.68659  0.56676  1.0000
  C   C340      1.0  0.33962  0.95277  0.51414  1.0000
  C   C341      1.0  0.30890  0.91672  0.66526  1.0000
  C   C342      1.0  0.26826  0.91843  0.67547  1.0000
  C   C343      1.0  0.17910  0.75841  0.59669  1.0000
  H   H392      1.0  0.48757  0.73049  0.86981  1.0000
  C   C344      1.0  0.15153  0.77552  0.55136  1.0000
  H   H393      1.0  0.29707  0.89582  0.84381  1.0000
  C   C345      1.0  0.28887  0.99385  0.57409  1.0000
  H   H394      1.0  0.30749  0.92405  0.63476  1.0000
  H   H395      1.0  0.27664  0.71408  0.92869  1.0000
  H   H396      1.0  0.12303  0.71261  0.54881  1.0000
  H   H397      1.0  0.32623  0.92097  0.67667  1.0000
  H   H398      1.0  0.18329  0.81678  0.59612  1.0000
  H   H399      1.0  0.16078  0.71383  0.60874  1.0000
  H   H400      1.0  0.27689  0.95963  0.70504  1.0000
  C   C346      1.0  0.29172  0.95119  0.69029  1.0000
  H   H401      1.0  0.18366  0.71237  0.57219  1.0000
  S   S95       1.0  0.26934  0.88866  0.50031  1.0000
  H   H402      1.0  0.30775  0.89776  0.66162  1.0000
  H   H403      1.0  0.25357  0.92571  0.69235  1.0000
  N   N23       1.0  0.15404  0.73239  0.55431  1.0000
  C   C347      1.0  0.47635  0.78105  0.80581  1.0000
  H   H404      1.0  0.20062  0.78243  0.62788  1.0000
  H   H405      1.0  0.45821  0.77750  0.80903  1.0000
  C   C348      1.0  0.16477  0.71295  0.57642  1.0000
  C   C349      1.0  0.18673  0.78039  0.60678  1.0000
  H   H406      1.0  0.13187  0.67825  0.93657  1.0000
  H   H407      1.0  0.30955  0.92053  0.50392  1.0000
  C   C350      1.0  0.48615  0.79899  0.82697  1.0000
  H   H408      1.0  0.48227  0.75306  0.76573  1.0000
  H   H409      1.0  0.10985  0.67525  0.87589  1.0000
  H   H410      1.0  0.47544  0.80932  0.84644  1.0000
  H   H411      1.0  0.15085  0.74220  0.49262  1.0000
  H   H412      1.0  0.15834  0.69603  0.56569  1.0000
  C   C351      1.0  0.49916  0.78632  0.92819  1.0000
  H   H413      1.0  0.17899  0.73304  0.50730  1.0000
  H   H414      1.0  0.18767  0.74414  0.61102  1.0000
  H   H415      1.0  0.34878  0.90908  0.52746  1.0000
  H   H416      1.0  0.04300  0.67605  0.50202  1.0000
  H   H417      1.0  0.04407  0.68197  0.88337  1.0000
  S   S96       1.0  0.13472  0.67082  0.49942  1.0000
  H   H418      1.0  0.08534  0.66945  0.51369  1.0000
  C   C352      1.0  0.11527  0.67004  0.93729  1.0000
  Fe  Fe49      1.0  0.57394  0.08599  0.24743  1.0000
  S   S97       1.0  0.57870  0.09482  0.18317  1.0000
  S   S98       1.0  0.54008  0.07261  0.26882  1.0000
  Fe  Fe50      1.0  0.62453  0.09010  0.26718  1.0000
  S   S99       1.0  0.63361  0.09890  0.20389  1.0000
  S   S100      1.0  0.65422  0.08558  0.31049  1.0000
  Fe  Fe51      1.0  0.60265  0.12184  0.20515  1.0000
  S   S101      1.0  0.60296  0.15770  0.17877  1.0000
  Fe  Fe52      1.0  0.60909  0.07123  0.18669  1.0000
  S   S102      1.0  0.61552  0.04957  0.13274  1.0000
  S   S103      1.0  0.59511  0.11529  0.27011  1.0000
  S   S104      1.0  0.60278  0.06011  0.24930  1.0000
  S   S105      1.0  0.65930  0.12920  0.48382  1.0000
  Fe  Fe53      1.0  0.84981  0.25525  0.41564  1.0000
  S   S106      1.0  0.83593  0.29016  0.39815  1.0000
  S   S107      1.0  0.82687  0.22316  0.42226  1.0000
  Fe  Fe54      1.0  0.90069  0.27135  0.40701  1.0000
  S   S108      1.0  0.88987  0.30712  0.38890  1.0000
  S   S109      1.0  0.93710  0.25717  0.42095  1.0000
  Fe  Fe55      1.0  0.86380  0.30419  0.43785  1.0000
  Fe  Fe56      1.0  0.86270  0.29089  0.35015  1.0000
  S   S110      1.0  0.85754  0.30218  0.28463  1.0000
  S   S111      1.0  0.87580  0.26942  0.45861  1.0000
  S   S112      1.0  0.87535  0.25499  0.36489  1.0000
  H   H419      1.0  0.51634  0.15014  0.04436  1.0000
  H   H420      1.0  0.77140  0.16403  0.46351  1.0000
  H   H421      1.0  0.58468  0.18301  0.00340  1.0000
  C   C353      1.0  0.57236  0.13821  0.02223  1.0000
  C   C354      1.0  0.54766  0.02572  0.18523  1.0000
  N   N24       1.0  0.90243  0.19813  0.46097  1.0000
  H   H422      1.0  0.75102  0.29740  0.20739  1.0000
  C   C355      1.0  0.96606  0.26513  0.40953  1.0000
  C   C356      1.0  0.98434  0.25334  0.42834  1.0000
  C   C357      1.0  0.97141  0.28236  0.38204  1.0000
  H   H423      1.0  0.98057  0.23996  0.44963  1.0000
  H   H424      1.0  0.95773  0.29158  0.36710  1.0000
  H   H425      1.0  0.50996  0.03948  0.23018  1.0000
  C   C358      1.0  0.53300  0.14201  0.04388  1.0000
  C   C359      1.0  0.51551  0.00396  0.21158  1.0000
  C   C360      1.0  0.50465  0.13096  0.16892  1.0000
  C   C361      1.0  0.83847  0.32003  0.25595  1.0000
  H   H426      1.0  0.52173  0.11619  0.08548  1.0000
  C   C362      1.0  0.67040  0.03832  0.18856  1.0000
  C   C363      1.0  0.64760  0.01492  0.44412  1.0000
  C   C364      1.0  0.67342  0.01667  0.17178  1.0000
  H   H427      1.0  0.52280  0.18864  0.03085  1.0000
  C   C365      1.0  0.88840  0.17864  0.47489  1.0000
  H   H428      1.0  0.64667  0.06341  0.43527  1.0000
  C   C366      1.0  0.65545  0.09842  0.35811  1.0000
  C   C367      1.0  0.63641  0.10938  0.37499  1.0000
  C   C368      1.0  0.63790  0.11875  0.41348  1.0000
  C   C369      1.0  0.65845  0.11747  0.43527  1.0000
  C   C370      1.0  0.67755  0.10674  0.41818  1.0000
  C   C371      1.0  0.67599  0.09714  0.37988  1.0000
  H   H429      1.0  0.62047  0.11038  0.35865  1.0000
  H   H430      1.0  0.62305  0.12703  0.42650  1.0000
  H   H431      1.0  0.69355  0.10593  0.43435  1.0000
  H   H432      1.0  0.69083  0.08880  0.36694  1.0000
  C   C372      1.0  0.61120  0.16017  0.12819  1.0000
  C   C373      1.0  0.60938  0.18149  0.10868  1.0000
  C   C374      1.0  0.61582  0.18378  0.06843  1.0000
  C   C375      1.0  0.62420  0.16473  0.04742  1.0000
  C   C376      1.0  0.62631  0.14355  0.06721  1.0000
  C   C377      1.0  0.61967  0.14121  0.10723  1.0000
  H   H433      1.0  0.60302  0.19631  0.12473  1.0000
  H   H434      1.0  0.61441  0.20028  0.05376  1.0000
  H   H435      1.0  0.63287  0.12875  0.05132  1.0000
  H   H436      1.0  0.62121  0.12469  0.12182  1.0000
  C   C378      1.0  0.61997  0.01977  0.13620  1.0000
  H   H437      1.0  0.91269  0.23154  0.48203  1.0000
  C   C379      1.0  0.66668  0.04038  0.22927  1.0000
  H   H438      1.0  0.63321  0.01807  0.07657  1.0000
  H   H439      1.0  0.75574  0.32841  0.10752  1.0000
  C   C380      1.0  0.51822  0.11494  0.27036  1.0000
  C   C381      1.0  0.51618  0.09106  0.27305  1.0000
  H   H440      1.0  0.77579  0.29957  0.06913  1.0000
  H   H441      1.0  0.53490  0.12253  0.26634  1.0000
  H   H442      1.0  0.81454  0.27997  0.14643  1.0000
  C   C382      1.0  0.66546  0.02079  0.25324  1.0000
  C   C383      1.0  0.74823  0.28424  0.12532  1.0000
  H   H443      1.0  0.79547  0.18545  0.41523  1.0000
  H   H444      1.0  0.77982  0.33198  0.14006  1.0000
  H   H445      1.0  0.75222  0.32598  0.15999  1.0000
  C   C384      1.0  0.53614  0.15639  0.15449  1.0000
  H   H446      1.0  0.53939  0.02530  0.15542  1.0000
  C   C385      1.0  0.55144  0.15077  0.02093  1.0000
  C   C386      1.0  0.78453  0.29378  0.09694  1.0000
  H   H447      1.0  0.99831  0.30048  0.35131  1.0000
  H   H448      1.0  0.89135  0.19345  0.40043  1.0000
  H   H449      1.0  0.93674  0.20722  0.44307  1.0000
  N   N25       1.0  0.54959  0.17210  0.99697  1.0000
  C   C387      1.0  0.79541  0.19049  0.44618  1.0000
  H   H450      1.0  0.54287  0.02403  0.26520  1.0000
  C   C388      1.0  0.89283  0.20722  0.42318  1.0000
  C   C389      1.0  0.52766  0.13692  0.17322  1.0000
  N   N26       1.0  0.54082  0.00560  0.20964  1.0000
  C   C390      1.0  0.53579  0.12237  0.06757  1.0000
  H   H451      1.0  0.91531  0.15199  0.47588  1.0000
  C   C391      1.0  0.68424  0.05818  0.47841  1.0000
  C   C392      1.0  0.61472  0.00722  0.17056  1.0000
  H   H452      1.0  0.92852  0.17878  0.42992  1.0000
  N   N27       1.0  0.64631  0.16812  0.28827  1.0000
  C   C393      1.0  0.64922  0.14557  0.26842  1.0000
  C   C394      1.0  0.62129  0.17264  0.29174  1.0000
  C   C395      1.0  0.65599  0.18616  0.26219  1.0000
  C   C396      1.0  0.65846  0.16787  0.32700  1.0000
  C   C397      1.0  0.68235  0.16311  0.32867  1.0000
  C   C398      1.0  0.64721  0.17209  0.36384  1.0000
  C   C399      1.0  0.69414  0.16228  0.36489  1.0000
  C   C400      1.0  0.65923  0.17135  0.39985  1.0000
  C   C401      1.0  0.68258  0.16634  0.40040  1.0000
  H   H453      1.0  0.64293  0.13147  0.28778  1.0000
  H   H454      1.0  0.63967  0.14492  0.23975  1.0000
  H   H455      1.0  0.66735  0.14148  0.26121  1.0000
  H   H456      1.0  0.61769  0.18985  0.30474  1.0000
  H   H457      1.0  0.61280  0.15929  0.31018  1.0000
  H   H458      1.0  0.61263  0.17234  0.26213  1.0000
  H   H459      1.0  0.67429  0.18285  0.25497  1.0000
  H   H460      1.0  0.64673  0.18717  0.23315  1.0000
  H   H461      1.0  0.65481  0.20335  0.27655  1.0000
  H   H462      1.0  0.69206  0.15966  0.30199  1.0000
  H   H463      1.0  0.62908  0.17557  0.36589  1.0000
  H   H464      1.0  0.71228  0.15815  0.36557  1.0000
  H   H465      1.0  0.65028  0.17386  0.42781  1.0000
  H   H466      1.0  0.69159  0.16512  0.42858  1.0000
  N   N28       1.0  0.76971  0.29706  0.13243  1.0000
  H   H467      1.0  0.73503  0.28783  0.14826  1.0000
  C   C402      1.0  0.54995  0.00843  0.25045  1.0000
  H   H468      1.0  0.66450  0.05729  0.24226  1.0000
  C   C403      1.0  0.78060  0.28941  0.17008  1.0000
  C   C404      1.0  0.80361  0.28118  0.17219  1.0000
  C   C405      1.0  0.76836  0.29083  0.20649  1.0000
  C   C406      1.0  0.81352  0.27480  0.20851  1.0000
  C   C407      1.0  0.77849  0.28445  0.24263  1.0000
  C   C408      1.0  0.80103  0.27647  0.24362  1.0000
  N   N29       1.0  0.66178  0.04778  0.48764  1.0000
  H   H469      1.0  0.80044  0.30412  0.09905  1.0000
  H   H470      1.0  0.56654  0.02634  0.18050  1.0000
  H   H471      1.0  0.66247  0.02343  0.28462  1.0000
  H   H472      1.0  0.55402  0.16093  0.15806  1.0000
  C   C409      1.0  0.64376  0.06196  0.46791  1.0000
  C   C410      1.0  0.80906  0.20910  0.45831  1.0000
  C   C411      1.0  0.71454  0.29002  0.00169  1.0000
  H   H473      1.0  0.87550  0.21490  0.42704  1.0000
  H   H474      1.0  0.90371  0.22102  0.41043  1.0000
  H   H475      1.0  0.59129  0.10958  0.04691  1.0000
  H   H476      1.0  0.83131  0.26927  0.20981  1.0000
  H   H477      1.0  0.76901  0.28616  0.27018  1.0000
  H   H478      1.0  0.80913  0.27216  0.27177  1.0000
  H   H479      1.0  0.63610  0.02594  0.42748  1.0000
  H   H480      1.0  0.85826  0.31589  0.20231  1.0000
  H   H481      1.0  0.67061  0.05351  0.16985  1.0000
  C   C412      1.0  0.57494  0.11860  0.04590  1.0000
  H   H482      1.0  0.52829  0.18545  0.11760  1.0000
  H   H483      1.0  0.60782  0.01594  0.19628  1.0000
  H   H484      1.0  0.75153  0.26539  0.12487  1.0000
  C   C413      1.0  0.66192  0.02341  0.47498  1.0000
  H   H485      1.0  0.58709  0.14366  0.00531  1.0000
  H   H486      1.0  0.74024  0.28912  0.09626  1.0000
  C   C414      1.0  0.99455  0.28736  0.37309  1.0000
  H   H487      1.0  0.55908  0.09583  0.08767  1.0000
  H   H488      1.0  0.54319  0.04236  0.19950  1.0000
  H   H489      1.0  0.68498  0.07640  0.48843  1.0000
  H   H490      1.0  0.85654  0.19845  0.47855  1.0000
  C   C415      1.0  0.52684  0.18364  0.99973  1.0000
  H   H491      1.0  0.53893  0.12653  0.19167  1.0000
  H   H492      1.0  0.78920  0.27539  0.09265  1.0000
  H   H493      1.0  0.67595  0.01515  0.13993  1.0000
  H   H494      1.0  0.72836  0.27908  0.01211  1.0000
  C   C416      1.0  0.62915  0.00845  0.10317  1.0000
  H   H495      1.0  0.68776  0.05785  0.44589  1.0000
  C   C417      1.0  0.76406  0.32186  0.13516  1.0000
  C   C418      1.0  0.55678  0.11082  0.06884  1.0000
  H   H496      1.0  0.93549  0.18588  0.48111  1.0000
  S   S113      1.0  0.74248  0.32572  0.02534  1.0000
  C   C419      1.0  0.89752  0.15616  0.48100  1.0000
  C   C420      1.0  0.52159  0.17012  0.13156  1.0000
  H   H497      1.0  0.56892  0.01013  0.25050  1.0000
  C   C421      1.0  0.78168  0.17825  0.47358  1.0000
  C   C422      1.0  0.92683  0.19204  0.45356  1.0000
  H   H498      1.0  0.64358  0.07993  0.47933  1.0000
  S   S114      1.0  0.63122  0.16607  0.99610  1.0000
  C   C423      1.0  0.84331  0.32394  0.21542  1.0000
  C   C424      1.0  0.86470  0.18187  0.48265  1.0000
  C   C425      1.0  0.71674  0.31409  0.00449  1.0000
  C   C426      1.0  0.50206  0.02335  0.22273  1.0000
  H   H499      1.0  0.56484  0.20582  0.99570  1.0000
  H   H500      1.0  0.62637  0.05499  0.47342  1.0000
  H   H501      1.0  0.56609  0.19152  0.04323  1.0000
  C   C427      1.0  0.56698  0.18878  0.01052  1.0000
  C   C428      1.0  0.81887  0.33040  0.27213  1.0000
  H   H502      1.0  0.81431  0.32698  0.30262  1.0000
  C   C429      1.0  0.69867  0.32787  0.99051  1.0000
  N   N30       1.0  0.68011  0.27261  0.82858  1.0000
  Fe  Fe57      1.0  0.68915  0.12518  0.52703  1.0000
  H   H503      1.0  0.98042  0.31945  0.61680  1.0000
  Fe  Fe58      1.0  0.70039  0.12855  0.61648  1.0000
  S   S115      1.0  0.73677  0.11662  0.60484  1.0000
  S   S116      1.0  0.68910  0.13397  0.68193  1.0000
  Fe  Fe59      1.0  0.73668  0.14152  0.55290  1.0000
  S   S117      1.0  0.76547  0.16873  0.55067  1.0000
  Fe  Fe60      1.0  0.72185  0.09007  0.56324  1.0000
  S   S118      1.0  0.73360  0.05250  0.55226  1.0000
  S   S119      1.0  0.70081  0.15425  0.56641  1.0000
  S   S120      1.0  0.68569  0.10035  0.57804  1.0000
  Fe  Fe61      1.0  0.63548  0.24663  0.93516  1.0000
  S   S121      1.0  0.65393  0.21353  0.92052  1.0000
  S   S122      1.0  0.65142  0.28208  0.94848  1.0000
  Fe  Fe62      1.0  0.58722  0.22513  0.91684  1.0000
  S   S123      1.0  0.60315  0.19107  0.90019  1.0000
  S   S124      1.0  0.54856  0.23428  0.92289  1.0000
  Fe  Fe63      1.0  0.62533  0.19647  0.95456  1.0000
  Fe  Fe64      1.0  0.63054  0.21078  0.86713  1.0000
  S   S125      1.0  0.64393  0.20791  0.80227  1.0000
  C   C430      1.0  0.80883  0.21517  0.49862  1.0000
  S   S126      1.0  0.61303  0.24482  0.88044  1.0000
  C   C431      1.0  0.51957  0.22527  0.91490  1.0000
  H   H504      1.0  0.65889  0.29418  0.86636  1.0000
  C   C432      1.0  0.67668  0.00726  0.49392  1.0000
  C   C433      1.0  0.89642  0.32790  0.57447  1.0000
  H   H505      1.0  0.52753  0.19430  0.88273  1.0000
  C   C434      1.0  0.67533  0.15453  0.71410  1.0000
  C   C435      1.0  0.67092  0.14840  0.75397  1.0000
  C   C436      1.0  0.66110  0.16424  0.78116  1.0000
  C   C437      1.0  0.65569  0.18668  0.76908  1.0000
  C   C438      1.0  0.66020  0.19285  0.72925  1.0000
  C   C439      1.0  0.66980  0.17695  0.70196  1.0000
  H   H506      1.0  0.67516  0.13121  0.76398  1.0000
  H   H507      1.0  0.65784  0.15908  0.81153  1.0000
  H   H508      1.0  0.65607  0.21007  0.71930  1.0000
  H   H509      1.0  0.67295  0.18208  0.67156  1.0000
  H   H510      1.0  0.71768  0.28016  0.77737  1.0000
  C   C440      1.0  0.72552  0.02378  0.56540  1.0000
  C   C441      1.0  0.67813  0.26312  0.78771  1.0000
  C   C442      1.0  0.50147  0.23881  0.93018  1.0000
  H   H511      1.0  0.69339  0.26139  0.98346  1.0000
  C   C443      1.0  0.67853  0.25308  0.85672  1.0000
  C   C444      1.0  0.79537  0.20271  0.52613  1.0000
  H   H512      1.0  0.64258  0.03921  0.54020  1.0000
  H   H513      1.0  0.79565  0.20753  0.55714  1.0000
  H   H514      1.0  0.64366  0.27945  0.82873  1.0000
  S   S127      1.0  0.72476  0.11408  0.51024  1.0000
  H   H515      1.0  0.89098  0.30932  0.51964  1.0000
  C   C445      1.0  0.73948  0.29909  0.81526  1.0000
  C   C446      1.0  0.66019  0.28818  0.83505  1.0000
  H   H516      1.0  0.69179  0.25017  0.78152  1.0000
  H   H517      1.0  0.67786  0.25875  0.88826  1.0000
  H   H518      1.0  0.96113  0.31575  0.71081  1.0000
  H   H519      1.0  0.67279  0.04282  0.54873  1.0000
  H   H520      1.0  0.69326  0.29439  0.89697  1.0000
  H   H521      1.0  0.66120  0.30369  0.81578  1.0000
  H   H522      1.0  0.66160  0.25394  0.78343  1.0000
  H   H523      1.0  0.66272  0.24301  0.85153  1.0000
  H   H524      1.0  0.55303  0.18265  0.93586  1.0000
  N   N31       1.0  0.74910  0.18733  0.66892  1.0000
  C   C447      1.0  0.75909  0.16378  0.66883  1.0000
  C   C448      1.0  0.72810  0.18740  0.64407  1.0000
  C   C449      1.0  0.76592  0.20277  0.64963  1.0000
  C   C450      1.0  0.74307  0.19424  0.71002  1.0000
  C   C451      1.0  0.75116  0.21476  0.72801  1.0000
  C   C452      1.0  0.72810  0.18054  0.73302  1.0000
  C   C453      1.0  0.74456  0.22095  0.76660  1.0000
  C   C454      1.0  0.72146  0.18695  0.77136  1.0000
  C   C455      1.0  0.72968  0.20709  0.78816  1.0000
  H   H525      1.0  0.74651  0.15051  0.67790  1.0000
  H   H526      1.0  0.76495  0.15864  0.63853  1.0000
  H   H527      1.0  0.77405  0.16248  0.68924  1.0000
  H   H528      1.0  0.71559  0.17426  0.65395  1.0000
  H   H529      1.0  0.73211  0.18351  0.61239  1.0000
  H   H530      1.0  0.71923  0.20438  0.64497  1.0000
  H   H531      1.0  0.77040  0.19682  0.61910  1.0000
  H   H532      1.0  0.75894  0.22049  0.64594  1.0000
  H   H533      1.0  0.78228  0.20332  0.66661  1.0000
  H   H534      1.0  0.76264  0.22630  0.71295  1.0000
  H   H535      1.0  0.72120  0.16478  0.72131  1.0000
  H   H536      1.0  0.75108  0.23653  0.77993  1.0000
  H   H537      1.0  0.70975  0.17622  0.78801  1.0000
  H   H538      1.0  0.72454  0.21186  0.81802  1.0000
  C   C456      1.0  0.70168  0.28512  0.83591  1.0000
  C   C457      1.0  0.72607  0.30697  0.88169  1.0000
  H   H539      1.0  0.69336  0.24112  0.85364  1.0000
  H   H540      1.0  0.50365  0.24899  0.82500  1.0000
  H   H541      1.0  0.75861  0.31795  0.85909  1.0000
  C   C458      1.0  0.70578  0.29536  0.87349  1.0000
  H   H542      1.0  0.70060  0.03302  0.60973  1.0000
  H   H543      1.0  0.57122  0.15931  0.94948  1.0000
  C   C459      1.0  0.65787  0.04924  0.53123  1.0000
  H   H544      1.0  0.65506  0.06728  0.54114  1.0000
  C   C460      1.0  0.71922  0.28731  0.80683  1.0000
  C   C461      1.0  0.67881  0.31773  0.97418  1.0000
  C   C462      1.0  0.78159  0.18419  0.51393  1.0000
  H   H545      1.0  0.72871  0.31453  0.91088  1.0000
  C   C463      1.0  0.51404  0.20480  0.89537  1.0000
  H   H546      1.0  0.67861  0.27693  0.76484  1.0000
  S   S128      1.0  0.60841  0.22956  0.97267  1.0000
  C   C464      1.0  0.70882  0.01900  0.59406  1.0000
  C   C465      1.0  0.67653  0.29368  0.97162  1.0000
  H   H547      1.0  0.50540  0.25469  0.94534  1.0000
  H   H548      1.0  0.90855  0.21038  0.52036  1.0000
  C   C466      1.0  0.74290  0.30886  0.85261  1.0000
  H   H549      1.0  0.50903  0.21857  0.77467  1.0000
  H   H550      1.0  0.90914  0.31586  0.58548  1.0000
  H   H551      1.0  0.74901  0.00846  0.52351  1.0000
  H   H552      1.0  0.81922  0.22930  0.50871  1.0000
  C   C467      1.0  0.88612  0.32413  0.53718  1.0000
  H   H553      1.0  0.75263  0.30073  0.79272  1.0000
  C   C468      1.0  0.73606  0.00510  0.54572  1.0000
  H   H554      1.0  0.84952  0.12802  0.51077  1.0000
  C   C469      1.0  0.69465  0.27988  0.98543  1.0000
  C   C470      1.0  0.55388  0.16682  0.95449  1.0000
  H   H555      1.0  0.68838  0.01254  0.51695  1.0000
  C   C471      1.0  0.95482  0.32862  0.68876  1.0000
  H   H556      1.0  0.54113  0.15446  0.94274  1.0000
  H   H557      1.0  0.95012  0.31936  0.66108  1.0000
  H   H558      1.0  0.66506  0.32868  0.96342  1.0000
  H   H559      1.0  0.52633  0.19985  0.98210  1.0000
  C   C472      1.0  0.99543  0.32226  0.63496  1.0000
  H   H560      1.0  0.51296  0.17270  0.98761  1.0000
  H   H561      1.0  0.89079  0.12113  0.49826  1.0000
  H   H562      1.0  0.83278  0.16675  0.50065  1.0000
  C   C473      1.0  0.86033  0.14199  0.50101  1.0000
  C   C474      1.0  0.85092  0.16380  0.49539  1.0000
  H   H563      1.0  0.88444  0.22364  0.49616  1.0000
  C   C475      1.0  0.88357  0.13818  0.49390  1.0000
  H   H564      1.0  0.69868  0.04905  0.49336  1.0000
  C   C476      1.0  0.90199  0.21667  0.49120  1.0000
  Fe  Fe65      1.0  0.79653  0.63228  0.03801  1.0000
  S   S129      1.0  0.76295  0.61542  0.02311  1.0000
  Fe  Fe66      1.0  0.78709  0.63497  0.12781  1.0000
  S   S130      1.0  0.75268  0.61833  0.11916  1.0000
  S   S131      1.0  0.80262  0.63989  0.19044  1.0000
  Fe  Fe67      1.0  0.76997  0.59317  0.07736  1.0000
  S   S132      1.0  0.77036  0.55388  0.08833  1.0000
  Fe  Fe68      1.0  0.74800  0.64186  0.06568  1.0000
  H   H565      1.0  0.87752  0.36274  0.40844  1.0000
  S   S133      1.0  0.80444  0.60874  0.08893  1.0000
  C   C477      1.0  0.71226  0.57481  0.07306  1.0000
  Fe  Fe69      1.0  0.76022  0.36004  0.04152  1.0000
  N   N32       1.0  0.86226  0.65608  0.11142  1.0000
  Fe  Fe70      1.0  0.76580  0.41295  0.05619  1.0000
  S   S134      1.0  0.80112  0.40834  0.08143  1.0000
  S   S135      1.0  0.75149  0.44880  0.03919  1.0000
  Fe  Fe71      1.0  0.80653  0.38439  0.02974  1.0000
  Fe  Fe72      1.0  0.78772  0.37735  0.11435  1.0000
  H   H566      1.0  0.83457  0.40247  0.21874  1.0000
  H   H567      1.0  0.86253  0.37115  0.23079  1.0000
  S   S136      1.0  0.75134  0.38355  0.09286  1.0000
  C   C478      1.0  0.85412  0.37940  0.25578  1.0000
  H   H568      1.0  0.83461  0.44459  0.05374  1.0000
  H   H569      1.0  0.84814  0.33620  0.34748  1.0000
  C   C479      1.0  0.76529  0.52477  0.07359  1.0000
  C   C480      1.0  0.75368  0.51916  0.03848  1.0000
  C   C481      1.0  0.74958  0.49592  0.02871  1.0000
  C   C482      1.0  0.75743  0.47782  0.05326  1.0000
  C   C483      1.0  0.76946  0.48340  0.08793  1.0000
  C   C484      1.0  0.77319  0.50667  0.09809  1.0000
  H   H570      1.0  0.74762  0.53274  0.01908  1.0000
  C   C485      1.0  0.81171  0.50249  0.00140  1.0000
  H   H571      1.0  0.77548  0.46981  0.10739  1.0000
  C   C486      1.0  0.87352  0.65239  0.18449  1.0000
  C   C487      1.0  0.81685  0.66082  0.22021  1.0000
  N   N33       1.0  0.83018  0.46325  0.99844  1.0000
  H   H572      1.0  0.84283  0.37762  0.43004  1.0000
  H   H573      1.0  0.82244  0.63692  0.26836  1.0000
  H   H574      1.0  0.70938  0.61030  0.05890  1.0000
  N   N34       1.0  0.84995  0.37129  0.36788  1.0000
  C   C488      1.0  0.83967  0.34816  0.36874  1.0000
  H   H575      1.0  0.67923  0.63215  0.03953  1.0000
  C   C489      1.0  0.83913  0.38508  0.40006  1.0000
  C   C490      1.0  0.84664  0.38116  0.32763  1.0000
  S   S137      1.0  0.79618  0.35314  0.06447  1.0000
  C   C491      1.0  0.85805  0.37135  0.29438  1.0000
  C   C492      1.0  0.68696  0.56637  0.00416  1.0000
  H   H576      1.0  0.69997  0.34637  0.99227  1.0000
  S   S138      1.0  0.79303  0.36994  0.18136  1.0000
  H   H577      1.0  0.82732  0.66375  0.12648  1.0000
  C   C493      1.0  0.83068  0.46225  0.04264  1.0000
  H   H578      1.0  0.72244  0.57787  0.09953  1.0000
  C   C494      1.0  0.85846  0.63089  0.11291  1.0000
  C   C495      1.0  0.82484  0.65439  0.25824  1.0000
  H   H579      1.0  0.71335  0.53819  0.08066  1.0000
  H   H580      1.0  0.82104  0.40764  0.34281  1.0000
  H   H581      1.0  0.84563  0.40299  0.40021  1.0000
  C   C496      1.0  0.87472  0.36915  0.37748  1.0000
  H   H582      1.0  0.82013  0.38539  0.39748  1.0000
  H   H583      1.0  0.83347  0.34146  0.16092  1.0000
  C   C497      1.0  0.69187  0.58957  0.01421  1.0000
  H   H584      1.0  0.79031  0.35359  0.26200  1.0000
  C   C498      1.0  0.81012  0.52554  0.98991  1.0000
  H   H585      1.0  0.86811  0.63474  0.18636  1.0000
  H   H586      1.0  0.84886  0.62499  0.47679  1.0000
  S   S139      1.0  0.82570  0.64267  0.99751  1.0000
  H   H587      1.0  0.81430  0.42053  0.27513  1.0000
  H   H588      1.0  0.78218  0.51069  0.12532  1.0000
  S   S140      1.0  0.78136  0.65985  0.07739  1.0000
  H   H589      1.0  0.84109  0.34020  0.39866  1.0000
  H   H590      1.0  0.87712  0.59329  0.47948  1.0000
  H   H591      1.0  0.87196  0.65252  0.04967  1.0000
  C   C499      1.0  0.82685  0.40709  0.28082  1.0000
  H   H592      1.0  0.88343  0.38598  0.37458  1.0000
  S   S141      1.0  0.83975  0.38904  0.99580  1.0000
  C   C500      1.0  0.83837  0.39705  0.24895  1.0000
  C   C501      1.0  0.87814  0.66054  0.07784  1.0000
  H   H593      1.0  0.86931  0.35661  0.29760  1.0000
  C   C502      1.0  0.81014  0.34951  0.20843  1.0000
  C   C503      1.0  0.80504  0.34523  0.24871  1.0000
  H   H594      1.0  0.87451  0.62137  0.12028  1.0000
  S   S142      1.0  0.71413  0.66278  0.06097  1.0000
  H   H595      1.0  0.89555  0.65351  0.08428  1.0000
  H   H596      1.0  0.88378  0.35661  0.35810  1.0000
  H   H597      1.0  0.69092  0.53052  0.01986  1.0000
  H   H598      1.0  0.84205  0.66493  0.31233  1.0000
  H   H599      1.0  0.81388  0.46676  0.05623  1.0000
  C   C504      1.0  0.70477  0.59319  0.04946  1.0000
  S   S143      1.0  0.77175  0.38972  0.00307  1.0000
  C   C505      1.0  0.70716  0.55236  0.06245  1.0000
  H   H600      1.0  0.79369  0.45758  0.99577  1.0000
  C   C506      1.0  0.83088  0.39939  0.31969  1.0000
  H   H601      1.0  0.84381  0.47401  0.05498  1.0000
  H   H602      1.0  0.66444  0.64057  0.99571  1.0000
  H   H603      1.0  0.85233  0.62420  0.08374  1.0000
  H   H604      1.0  0.82114  0.34892  0.36105  1.0000
  C   C507      1.0  0.88201  0.66204  0.21956  1.0000
  H   H605      1.0  0.79995  0.49666  0.02387  1.0000
  H   H606      1.0  0.84502  0.62634  0.13505  1.0000
  H   H607      1.0  0.71480  0.62952  0.00006  1.0000
  H   H608      1.0  0.88294  0.65186  0.24655  1.0000
  C   C508      1.0  0.87156  0.66556  0.14894  1.0000
  C   C509      1.0  0.67003  0.62525  0.01327  1.0000
  H   H609      1.0  0.83259  0.66095  0.07422  1.0000
  C   C510      1.0  0.82919  0.33839  0.19174  1.0000
  H   H610      1.0  0.79775  0.53687  0.00421  1.0000
  H   H611      1.0  0.65451  0.61647  0.02465  1.0000
  H   H612      1.0  0.74026  0.49190  0.00181  1.0000
  C   C511      1.0  0.69457  0.54812  0.02808  1.0000
  S   S144      1.0  0.88523  0.66252  0.48209  1.0000
  C   C512      1.0  0.83997  0.66731  0.10260  1.0000
  S   S145      1.0  0.85622  0.33553  0.47598  1.0000
  H   H613      1.0  0.81079  0.43197  0.99422  1.0000
  H   H614      1.0  0.85337  0.43407  0.99748  1.0000
  H   H615      1.0  0.86689  0.46117  0.99170  1.0000
  Fe  Fe73      1.0  0.91865  0.41442  0.73909  1.0000
  S   S146      1.0  0.90923  0.41598  0.67454  1.0000
  S   S147      1.0  0.95189  0.43184  0.75338  1.0000
  Fe  Fe74      1.0  0.87210  0.39514  0.76391  1.0000
  S   S148      1.0  0.85949  0.39500  0.70059  1.0000
  S   S149      1.0  0.84338  0.38624  0.80678  1.0000
  Fe  Fe75      1.0  0.89427  0.38104  0.68462  1.0000
  H   H616      1.0  0.80718  0.37907  0.86197  1.0000
  Fe  Fe76      1.0  0.87559  0.42972  0.69647  1.0000
  S   S150      1.0  0.85696  0.46186  0.67748  1.0000
  S   S151      1.0  0.90601  0.37838  0.74854  1.0000
  S   S152      1.0  0.88612  0.43074  0.76019  1.0000
  Fe  Fe77      1.0  0.90347  0.58055  0.72650  1.0000
  S   S153      1.0  0.91039  0.59036  0.78965  1.0000
  S   S154      1.0  0.91964  0.54876  0.70044  1.0000
  Fe  Fe78      1.0  0.87733  0.62475  0.70757  1.0000
  S   S155      1.0  0.88170  0.63843  0.76977  1.0000
  C   C513      1.0  0.84037  0.51956  0.94222  1.0000
  Fe  Fe79      1.0  0.91793  0.62510  0.76402  1.0000
  S   S156      1.0  0.94972  0.64548  0.77677  1.0000
  Fe  Fe80      1.0  0.87367  0.60257  0.79058  1.0000
  S   S157      1.0  0.84813  0.58978  0.83644  1.0000
  S   S158      1.0  0.91403  0.61424  0.70046  1.0000
  S   S159      1.0  0.86628  0.58998  0.72871  1.0000
  H   H617      1.0  0.85513  0.43275  0.83043  1.0000
  C   C514      1.0  0.85122  0.45140  0.98392  1.0000
  C   C515      1.0  0.80617  0.51570  0.85936  1.0000
  H   H618      1.0  0.70025  0.63645  0.95521  1.0000
  C   C516      1.0  0.88584  0.64024  0.59653  1.0000
  C   C517      1.0  0.89166  0.64426  0.55653  1.0000
  H   H619      1.0  0.89593  0.62840  0.61415  1.0000
  H   H620      1.0  0.90593  0.63508  0.54342  1.0000
  C   C518      1.0  0.84190  0.60499  0.88071  1.0000
  C   C519      1.0  0.82440  0.59703  0.90574  1.0000
  C   C520      1.0  0.81918  0.60844  0.94154  1.0000
  C   C521      1.0  0.83148  0.62793  0.95258  1.0000
  C   C522      1.0  0.84897  0.63590  0.92755  1.0000
  C   C523      1.0  0.85414  0.62451  0.89170  1.0000
  H   H621      1.0  0.81473  0.58207  0.89729  1.0000
  H   H622      1.0  0.80568  0.60218  0.96056  1.0000
  C   C524      1.0  0.97378  0.36052  0.71858  1.0000
  H   H623      1.0  0.86764  0.63080  0.87266  1.0000
  C   C525      1.0  0.97410  0.62855  0.78651  1.0000
  H   H624      1.0  0.85174  0.45372  0.86900  1.0000
  C   C526      1.0  0.97258  0.60854  0.80939  1.0000
  H   H625      1.0  0.65503  0.59365  0.96223  1.0000
  H   H626      1.0  0.95638  0.60382  0.82251  1.0000
  H   H627      1.0  0.85561  0.53592  0.62489  1.0000
  H   H628      1.0  0.97919  0.34980  0.74445  1.0000
  C   C527      1.0  0.84051  0.38881  0.94322  1.0000
  C   C528      1.0  0.82100  0.38397  0.92078  1.0000
  C   C529      1.0  0.82228  0.38329  0.87905  1.0000
  C   C530      1.0  0.84300  0.38755  0.85932  1.0000
  C   C531      1.0  0.86243  0.39298  0.88166  1.0000
  C   C532      1.0  0.86117  0.39355  0.92350  1.0000
  H   H629      1.0  0.80504  0.38018  0.93556  1.0000
  C   C533      1.0  0.84158  0.50028  0.81025  1.0000
  H   H630      1.0  0.87851  0.39620  0.86678  1.0000
  H   H631      1.0  0.87638  0.39720  0.94069  1.0000
  C   C534      1.0  0.87438  0.48579  0.68577  1.0000
  C   C535      1.0  0.86451  0.50685  0.69678  1.0000
  C   C536      1.0  0.87838  0.52610  0.70300  1.0000
  C   C537      1.0  0.90204  0.52452  0.69679  1.0000
  C   C538      1.0  0.91189  0.50341  0.68613  1.0000
  C   C539      1.0  0.89813  0.48399  0.68125  1.0000
  H   H632      1.0  0.84616  0.50819  0.70086  1.0000
  H   H633      1.0  0.87069  0.54214  0.71207  1.0000
  H   H634      1.0  0.93017  0.50204  0.68143  1.0000
  H   H635      1.0  0.90586  0.46776  0.67292  1.0000
  C   C540      1.0  0.97466  0.41414  0.76851  1.0000
  H   H636      1.0  0.86884  0.37726  0.60076  1.0000
  C   C541      1.0  0.97127  0.39566  0.79441  1.0000
  H   H637      1.0  0.85138  0.52634  0.91909  1.0000
  H   H638      1.0  0.95431  0.39217  0.80573  1.0000
  C   C542      1.0  0.95817  0.51675  0.76846  1.0000
  C   C543      1.0  0.96371  0.36224  0.64974  1.0000
  H   H639      1.0  0.83858  0.59380  0.65077  1.0000
  H   H640      1.0  0.96235  0.60050  0.65446  1.0000
  H   H641      1.0  0.82672  0.61001  0.59435  1.0000
  H   H642      1.0  0.85066  0.37071  0.53493  1.0000
  H   H643      1.0  0.95326  0.48322  0.74342  1.0000
  H   H644      1.0  0.95663  0.57056  0.65027  1.0000
  H   H645      1.0  0.79658  0.48098  0.86605  1.0000
  C   C544      1.0  0.82114  0.53142  0.84239  1.0000
  S   S160      1.0  0.90368  0.35108  0.64429  1.0000
  H   H646      1.0  0.81418  0.42577  0.82590  1.0000
  C   C545      1.0  0.80872  0.49218  0.85181  1.0000
  C   C546      1.0  0.84217  0.49647  0.95368  1.0000
  H   H647      1.0  0.87890  0.59518  0.63698  1.0000
  H   H648      1.0  0.85853  0.65098  0.93583  1.0000
  C   C547      1.0  0.67099  0.60277  0.95377  1.0000
  H   H649      1.0  0.98604  0.37490  0.71503  1.0000
  H   H650      1.0  0.96873  0.53596  0.68098  1.0000
  C   C548      1.0  0.98871  0.48900  0.75816  1.0000
  H   H651      1.0  0.85476  0.48619  0.93821  1.0000
  C   C549      1.0  0.99704  0.52598  0.78744  1.0000
  C   C550      1.0  0.83743  0.60490  0.56970  1.0000
  H   H652      1.0  0.71688  0.61027  0.95883  1.0000
  H   H653      1.0  0.84580  0.46326  0.76039  1.0000
  C   C551      1.0  0.86347  0.35873  0.54584  1.0000
  H   H654      1.0  0.80897  0.45026  0.95128  1.0000
  H   H655      1.0  0.85056  0.53613  0.80523  1.0000
  C   C552      1.0  0.98993  0.38168  0.80569  1.0000
  H   H656      1.0  0.81911  0.54966  0.84817  1.0000
  H   H657      1.0  0.94018  0.52142  0.76644  1.0000
  H   H658      1.0  0.79256  0.52183  0.87863  1.0000
  H   H659      1.0  0.81094  0.44438  0.86729  1.0000
  H   H660      1.0  0.96787  0.54858  0.79542  1.0000
  H   H661      1.0  0.98579  0.49864  0.66600  1.0000
  C   C553      1.0  0.96559  0.49529  0.75530  1.0000
  H   H662      1.0  0.85575  0.49520  0.79137  1.0000
  C   C554      1.0  0.97861  0.57807  0.71856  1.0000
  N   N35       1.0  0.82986  0.45899  0.81819  1.0000
  H   H663      1.0  0.81521  0.46179  0.75942  1.0000
  C   C555      1.0  0.87374  0.36248  0.58317  1.0000
  C   C556      1.0  0.98655  0.53547  0.67218  1.0000
  H   H664      1.0  0.88067  0.56925  0.53879  1.0000
  C   C557      1.0  0.85180  0.45130  0.83622  1.0000
  H   H665      1.0  0.66558  0.61811  0.93611  1.0000
  H   H666      1.0  0.94337  0.66257  0.53854  1.0000
  C   C558      1.0  0.81006  0.45025  0.98426  1.0000
  H   H667      1.0  0.86669  0.46075  0.82401  1.0000
  C   C559      1.0  0.99211  0.59483  0.81587  1.0000
  C   C560      1.0  0.86955  0.33952  0.52275  1.0000
  H   H668      1.0  0.82043  0.57328  0.62573  1.0000
  N   N36       1.0  0.97211  0.34670  0.68171  1.0000
  C   C561      1.0  0.82642  0.48376  0.82654  1.0000
  C   C562      1.0  0.81145  0.44413  0.83424  1.0000
  H   H669      1.0  0.67741  0.56178  0.97791  1.0000
  C   C563      1.0  0.83886  0.52373  0.81805  1.0000
  H   H670      1.0  0.83240  0.43638  0.76722  1.0000
  H   H671      1.0  0.85070  0.44833  0.95131  1.0000
  H   H672      1.0  0.89292  0.57408  0.60648  1.0000
  H   H673      1.0  0.79437  0.44919  0.82218  1.0000
  C   C564      1.0  0.83082  0.45502  0.77460  1.0000
  C   C565      1.0  0.83566  0.61835  0.53532  1.0000
  H   H674      1.0  0.82396  0.63292  0.53452  1.0000
  H   H675      1.0  0.88148  0.56602  0.65351  1.0000
  H   H676      1.0  0.83964  0.56432  0.66450  1.0000
  H   H677      1.0  0.95704  0.36853  0.72675  1.0000
  H   H678      1.0  0.96410  0.56597  0.72093  1.0000
  H   H679      1.0  0.87055  0.54150  0.58034  1.0000
  N   N37       1.0  0.85596  0.57189  0.60829  1.0000
  C   C566      1.0  0.83779  0.57604  0.63844  1.0000
  C   C567      1.0  0.85541  0.54708  0.59790  1.0000
  C   C568      1.0  0.87830  0.57699  0.62700  1.0000
  C   C569      1.0  0.85326  0.58623  0.57213  1.0000
  C   C570      1.0  0.86756  0.58245  0.53856  1.0000
  H   H680      1.0  0.83973  0.54293  0.58058  1.0000
  H   H681      1.0  0.68121  0.59167  0.93336  1.0000
  S   S161      1.0  0.85625  0.64364  0.66085  1.0000
  C   C571      1.0  0.99614  0.51397  0.66344  1.0000
  C   C572      1.0  0.86651  0.65094  0.61299  1.0000
  H   H682      1.0  0.93846  0.33599  0.70038  1.0000
  C   C573      1.0  0.89024  0.34703  0.59765  1.0000
  H   H683      1.0  0.99088  0.57946  0.83385  1.0000
  C   C574      1.0  0.99525  0.63484  0.77031  1.0000
  N   N38       1.0  0.98893  0.57850  0.67831  1.0000
  C   C575      1.0  0.97058  0.58346  0.64895  1.0000
  H   H684      1.0  0.97135  0.59512  0.72698  1.0000
  C   C576      1.0  0.86571  0.59610  0.50445  1.0000
  C   C577      1.0  0.84971  0.61394  0.50277  1.0000
  C   C578      1.0  0.87884  0.65977  0.53322  1.0000
  H   H685      1.0  0.94784  0.37164  0.65886  1.0000
  C   C579      1.0  0.97384  0.53203  0.78465  1.0000
  H   H686      1.0  0.97674  0.37536  0.64215  1.0000
  H   H687      1.0  0.98734  0.36725  0.82546  1.0000
  H   H688      1.0  0.95904  0.35282  0.62222  1.0000
  H   H689      1.0  0.99160  0.57304  0.74123  1.0000
  C   C580      1.0  0.70495  0.62188  0.97521  1.0000
  H   H690      1.0  0.99884  0.35070  0.50657  1.0000
  H   H691      1.0  0.97748  0.58344  0.61811  1.0000
  H   H692      1.0  0.99302  0.47194  0.74803  1.0000
  C   C581      1.0  0.99666  0.41880  0.75434  1.0000
  C   C582      1.0  0.82454  0.53411  0.96057  1.0000
  C   C583      1.0  0.99417  0.33599  0.66977  1.0000
  H   H693      1.0  0.82345  0.55207  0.95207  1.0000
  H   H694      1.0  0.99645  0.65030  0.75256  1.0000
  C   C584      1.0  0.99958  0.55591  0.66929  1.0000
  H   H695      1.0  0.99702  0.61446  0.68586  1.0000
  C   C585      1.0  0.82824  0.48738  0.98455  1.0000
  H   H696      1.0  0.99375  0.37264  0.56714  1.0000
  C   C586      1.0  0.85397  0.66676  0.58984  1.0000
  H   H697      1.0  0.99930  0.43283  0.73383  1.0000
  N   N39       1.0  0.68449  0.60936  0.98938  1.0000
  Fe  Fe81      1.0  0.62429  0.90320  0.27251  1.0000
  S   S162      1.0  0.64189  0.89239  0.21587  1.0000
  S   S163      1.0  0.64612  0.91498  0.32477  1.0000
  Fe  Fe82      1.0  0.57762  0.90823  0.23095  1.0000
  S   S164      1.0  0.59187  0.89791  0.17189  1.0000
  S   S165      1.0  0.54189  0.92308  0.22707  1.0000
  Fe  Fe83      1.0  0.61089  0.87061  0.20529  1.0000
  S   S166      1.0  0.61174  0.83516  0.17739  1.0000
  Fe  Fe84      1.0  0.62124  0.92048  0.18716  1.0000
  S   S167      1.0  0.63620  0.94289  0.13973  1.0000
  S   S168      1.0  0.59442  0.87907  0.26455  1.0000
  S   S169      1.0  0.60582  0.93297  0.24372  1.0000
  Fe  Fe85      1.0  0.87645  0.69526  0.44839  1.0000
  H   H698      1.0  0.56452  0.80261  0.99827  1.0000
  Fe  Fe86      1.0  0.86460  0.71627  0.36683  1.0000
  S   S170      1.0  0.87201  0.75210  0.38966  1.0000
  S   S171      1.0  0.85195  0.71422  0.30176  1.0000
  Fe  Fe87      1.0  0.90338  0.73615  0.41947  1.0000
  S   S172      1.0  0.93959  0.75112  0.42770  1.0000
  Fe  Fe88      1.0  0.85189  0.74227  0.44435  1.0000
  H   H699      1.0  0.94542  0.70198  0.45054  1.0000
  S   S173      1.0  0.89720  0.70144  0.39293  1.0000
  S   S174      1.0  0.84336  0.70703  0.42024  1.0000
  C   C587      1.0  0.51359  0.82043  0.14977  1.0000
  H   H700      1.0  0.71716  0.76034  0.05211  1.0000
  C   C588      1.0  0.79484  0.82207  0.36210  1.0000
  H   H701      1.0  0.77462  0.80735  0.31547  1.0000
  C   C589      1.0  0.66658  0.95582  0.24051  1.0000
  H   H702      1.0  0.81396  0.68891  0.17877  1.0000
  H   H703      1.0  0.64148  0.97641  0.07926  1.0000
  H   H704      1.0  0.54901  0.81047  0.14096  1.0000
  C   C590      1.0  0.66949  0.80890  0.14290  1.0000
  H   H705      1.0  0.58695  0.91242  0.08473  1.0000
  H   H706      1.0  0.53506  0.86182  0.07374  1.0000
  H   H707      1.0  0.68337  0.95338  0.22545  1.0000
  H   H708      1.0  0.66853  0.75635  0.10048  1.0000
  C   C591      1.0  0.53130  0.86261  0.17390  1.0000
  H   H709      1.0  0.65886  0.77565  0.16275  1.0000
  H   H710      1.0  0.92093  0.69532  0.47880  1.0000
  H   H711      1.0  0.83388  0.71675  0.22242  1.0000
  C   C592      1.0  0.96791  0.74038  0.41715  1.0000
  C   C593      1.0  0.97194  0.72150  0.39224  1.0000
  C   C594      1.0  0.98696  0.75104  0.43490  1.0000
  H   H712      1.0  0.95766  0.71319  0.37791  1.0000
  H   H713      1.0  0.98423  0.76572  0.45403  1.0000
  C   C595      1.0  0.65174  0.89891  0.36840  1.0000
  C   C596      1.0  0.64320  0.87677  0.37386  1.0000
  C   C597      1.0  0.64831  0.86454  0.40898  1.0000
  C   C598      1.0  0.66195  0.87432  0.43886  1.0000
  C   C599      1.0  0.67043  0.89649  0.43343  1.0000
  C   C600      1.0  0.66540  0.90868  0.39827  1.0000
  H   H714      1.0  0.63260  0.86912  0.35112  1.0000
  H   H715      1.0  0.64163  0.84742  0.41301  1.0000
  H   H716      1.0  0.63637  0.98532  0.41097  1.0000
  H   H717      1.0  0.67209  0.92578  0.39420  1.0000
  C   C601      1.0  0.62997  0.83102  0.04478  1.0000
  C   C602      1.0  0.62051  0.81209  0.06428  1.0000
  C   C603      1.0  0.61472  0.81358  0.10485  1.0000
  C   C604      1.0  0.61817  0.83403  0.12608  1.0000
  C   C605      1.0  0.62746  0.85297  0.10647  1.0000
  C   C606      1.0  0.63360  0.85134  0.06615  1.0000
  H   H718      1.0  0.61777  0.79626  0.04833  1.0000
  H   H719      1.0  0.60775  0.79880  0.11998  1.0000
  H   H720      1.0  0.63034  0.86877  0.12256  1.0000
  H   H721      1.0  0.64111  0.86599  0.05144  1.0000
  H   H722      1.0  0.51232  0.96728  0.19708  1.0000
  C   C607      1.0  0.62860  0.97219  0.13872  1.0000
  C   C608      1.0  0.61865  0.98330  0.17149  1.0000
  C   C609      1.0  0.50764  0.85915  0.17426  1.0000
  H   H723      1.0  0.61449  0.97358  0.19771  1.0000
  H   H724      1.0  0.70912  0.81686  0.39096  1.0000
  C   C610      1.0  0.63379  0.98485  0.10465  1.0000
  C   C611      1.0  0.67834  0.82166  0.11153  1.0000
  C   C612      1.0  0.50358  0.98316  0.20435  1.0000
  H   H725      1.0  0.53876  0.88237  0.27745  1.0000
  N   N40       1.0  0.77824  0.70428  0.33397  1.0000
  H   H726      1.0  0.60852  0.89510  0.02918  1.0000
  C   C613      1.0  0.78372  0.70920  0.29178  1.0000
  H   H727      1.0  0.62869  0.98069  0.26242  1.0000
  C   C614      1.0  0.77711  0.72611  0.35649  1.0000
  C   C615      1.0  0.79674  0.74025  0.35944  1.0000
  C   C616      1.0  0.75695  0.73389  0.37627  1.0000
  C   C617      1.0  0.79633  0.76064  0.38122  1.0000
  C   C618      1.0  0.75675  0.75439  0.39799  1.0000
  C   C619      1.0  0.77642  0.76765  0.40058  1.0000
  C   C620      1.0  0.69610  0.79038  0.00132  1.0000
  C   C621      1.0  0.64310  0.97866  0.28380  1.0000
  H   H728      1.0  0.70517  0.74661  0.00893  1.0000
  H   H729      1.0  0.77029  0.72018  0.27771  1.0000
  H   H730      1.0  0.78536  0.69313  0.27395  1.0000
  H   H731      1.0  0.80022  0.71837  0.28851  1.0000
  C   C622      1.0  0.57076  0.81856  0.01282  1.0000
  H   H732      1.0  0.50795  0.80364  0.14063  1.0000
  H   H733      1.0  0.87633  0.70028  0.12582  1.0000
  H   H734      1.0  0.81279  0.73543  0.34555  1.0000
  H   H735      1.0  0.74121  0.72431  0.37595  1.0000
  H   H736      1.0  0.81183  0.77063  0.38440  1.0000
  H   H737      1.0  0.74142  0.75980  0.41361  1.0000
  H   H738      1.0  0.77648  0.78320  0.41826  1.0000
  H   H739      1.0  0.89101  0.71646  0.18772  1.0000
  H   H740      1.0  0.66431  0.81743  0.17017  1.0000
  H   H741      1.0  0.81380  0.69672  0.34736  1.0000
  C   C623      1.0  0.55199  0.98496  0.19201  1.0000
  H   H742      1.0  0.81103  0.81665  0.34923  1.0000
  C   C624      1.0  0.83927  0.69290  0.27072  1.0000
  C   C625      1.0  0.67952  0.69198  0.03494  1.0000
  C   C626      1.0  0.53165  0.82976  0.02269  1.0000
  C   C627      1.0  0.67191  0.77451  0.10274  1.0000
  C   C628      1.0  0.52166  0.88846  0.27052  1.0000
  H   H743      1.0  0.65276  0.95478  0.21782  1.0000
  C   C629      1.0  0.58016  0.89753  0.06948  1.0000
  H   H744      1.0  0.65109  0.71339  0.01521  1.0000
  N   N41       1.0  0.68540  0.77532  0.03168  1.0000
  H   H745      1.0  0.53827  0.87883  0.18394  1.0000
  H   H746      1.0  0.70116  0.97731  0.27797  1.0000
  C   C630      1.0  0.54609  0.84514  0.16170  1.0000
  C   C631      1.0  0.66631  0.78537  0.13854  1.0000
  C   C632      1.0  0.66343  0.76725  0.01508  1.0000
  C   C633      1.0  0.79647  0.68929  0.35099  1.0000
  H   H747      1.0  0.54978  0.96952  0.21109  1.0000
  H   H748      1.0  0.54542  0.99349  0.26957  1.0000
  C   C634      1.0  0.70085  0.75518  0.03765  1.0000
  H   H749      1.0  0.79384  0.68647  0.38342  1.0000
  C   C635      1.0  0.83143  0.69931  0.23258  1.0000
  C   C636      1.0  0.88645  0.69846  0.18645  1.0000
  C   C637      1.0  0.59227  0.88781  0.03805  1.0000
  H   H750      1.0  0.68086  0.90424  0.45628  1.0000
  H   H751      1.0  0.75184  0.68607  0.36549  1.0000
  S   S175      1.0  0.88363  0.72937  0.47609  1.0000
  C   C638      1.0  0.55960  0.88785  0.08175  1.0000
  H   H752      1.0  0.67393  0.98074  0.17996  1.0000
  C   C639      1.0  0.68408  0.97752  0.29265  1.0000
  H   H753      1.0  0.68002  0.84011  0.11467  1.0000
  C   C640      1.0  0.98752  0.68240  0.47282  1.0000
  C   C641      1.0  0.53727  0.82412  0.14963  1.0000
  H   H754      1.0  0.55044  0.89535  0.10667  1.0000
  H   H755      1.0  0.71265  0.79739  0.01206  1.0000
  H   H756      1.0  0.57080  0.98709  0.18894  1.0000
  C   C642      1.0  0.51856  0.90796  0.24672  1.0000
  H   H757      1.0  0.66441  0.94071  0.26045  1.0000
  H   H758      1.0  0.83890  0.80646  0.47572  1.0000
  H   H759      1.0  0.56445  0.84782  0.16214  1.0000
  H   H760      1.0  0.54513  0.98125  0.16183  1.0000
  C   C643      1.0  0.88845  0.68500  0.22055  1.0000
  N   N42       1.0  0.73075  0.84322  0.41547  1.0000
  C   C644      1.0  0.72986  0.86862  0.41863  1.0000
  C   C645      1.0  0.70996  0.83588  0.39351  1.0000
  C   C646      1.0  0.72952  0.83326  0.45605  1.0000
  C   C647      1.0  0.75250  0.83602  0.39636  1.0000
  C   C648      1.0  0.75335  0.82364  0.35992  1.0000
  C   C649      1.0  0.77379  0.84126  0.41449  1.0000
  C   C650      1.0  0.77428  0.81684  0.34319  1.0000
  C   C651      1.0  0.79457  0.83425  0.39767  1.0000
  H   H761      1.0  0.81058  0.83826  0.41246  1.0000
  H   H762      1.0  0.71353  0.87459  0.43241  1.0000
  H   H763      1.0  0.74386  0.87551  0.43751  1.0000
  H   H764      1.0  0.73116  0.87686  0.38884  1.0000
  H   H765      1.0  0.70903  0.84376  0.36335  1.0000
  H   H766      1.0  0.69301  0.74156  0.05624  1.0000
  H   H767      1.0  0.69397  0.84135  0.40906  1.0000
  H   H768      1.0  0.74256  0.84059  0.47635  1.0000
  H   H769      1.0  0.71265  0.83678  0.47030  1.0000
  H   H770      1.0  0.73213  0.81431  0.45548  1.0000
  H   H771      1.0  0.73811  0.81902  0.34370  1.0000
  H   H772      1.0  0.77454  0.85080  0.44202  1.0000
  C   C652      1.0  0.68388  0.81103  0.07549  1.0000
  H   H773      1.0  0.58760  0.82234  0.99904  1.0000
  H   H774      1.0  0.65483  0.75467  0.03478  1.0000
  H   H775      1.0  0.74222  0.70092  0.32088  1.0000
  C   C653      1.0  0.66715  0.70538  0.00689  1.0000
  C   C654      1.0  0.56288  0.85820  0.03000  1.0000
  C   C655      1.0  0.68089  0.78701  0.07003  1.0000
  N   N43       1.0  0.66543  0.97787  0.26270  1.0000
  H   H776      1.0  0.68975  0.82219  0.05202  1.0000
  C   C656      1.0  0.87808  0.68898  0.15116  1.0000
  H   H777      1.0  0.68303  0.96205  0.31219  1.0000
  C   C657      1.0  0.70009  0.68060  0.02462  1.0000
  S   S176      1.0  0.82016  0.75945  0.47353  1.0000
  C   C658      1.0  0.55097  0.86846  0.06246  1.0000
  H   H778      1.0  0.68345  0.99278  0.31246  1.0000
  C   C659      1.0  0.66771  0.99839  0.23691  1.0000
  H   H779      1.0  0.89435  0.69256  0.24817  1.0000
  H   H780      1.0  0.87977  0.67911  0.07100  1.0000
  C   C660      1.0  0.82019  0.68348  0.20759  1.0000
  H   H781      1.0  0.99734  0.69888  0.36609  1.0000
  C   C661      1.0  0.64767  0.99156  0.43411  1.0000
  H   H782      1.0  0.64004  0.96266  0.30118  1.0000
  H   H783      1.0  0.66179  0.95800  0.44661  1.0000
  H   H784      1.0  0.57388  0.81459  0.04477  1.0000
  C   C662      1.0  0.83599  0.67025  0.28330  1.0000
  C   C663      1.0  0.66200  0.97612  0.45409  1.0000
  H   H785      1.0  0.67290  0.69013  0.06480  1.0000
  H   H786      1.0  0.65141  0.78195  0.01064  1.0000
  H   H787      1.0  0.97811  0.68131  0.44526  1.0000
  C   C664      1.0  0.58390  0.86839  0.01866  1.0000
  C   C665      1.0  0.67658  0.98399  0.48381  1.0000
  H   H788      1.0  0.53251  0.82425  0.05437  1.0000
  C   C666      1.0  0.93936  0.69095  0.47524  1.0000
  C   C667      1.0  0.67214  0.99692  0.19538  1.0000
  H   H789      1.0  0.84138  0.68624  0.09967  1.0000
  H   H790      1.0  0.64192  0.99305  0.30535  1.0000
  N   N44       1.0  0.55425  0.83788  0.00836  1.0000
  C   C668      1.0  0.99455  0.71344  0.38550  1.0000
  H   H791      1.0  0.51820  0.84329  0.01925  1.0000
  H   H792      1.0  0.50487  0.86200  0.30453  1.0000
  C   C669      1.0  0.75660  0.69104  0.33462  1.0000
  S   S177      1.0  0.66894  0.85782  0.48148  1.0000
  H   H793      1.0  0.94021  0.67263  0.46592  1.0000
  H   H794      1.0  0.59427  0.86120  0.99505  1.0000
  H   H795      1.0  0.52574  0.81452  0.00551  1.0000
  H   H796      1.0  0.79718  0.67219  0.33619  1.0000
  S   S178      1.0  0.63762  0.83012  0.99390  1.0000
  H   H797      1.0  0.68451  0.80493  0.99282  1.0000
  C   C670      1.0  0.50249  0.87699  0.28587  1.0000
  H   H798      1.0  0.75822  0.67478  0.31730  1.0000
  C   C671      1.0  0.80872  0.78680  0.48803  1.0000
  C   C672      1.0  0.82144  0.80705  0.48646  1.0000
  H   H799      1.0  0.65302  0.86609  0.79490  1.0000
  Fe  Fe89      1.0  0.69259  0.87082  0.52982  1.0000
  N   N45       1.0  0.54919  0.79276  0.79705  1.0000
  Fe  Fe90      1.0  0.70536  0.86366  0.61804  1.0000
  S   S179      1.0  0.73592  0.88685  0.61068  1.0000
  S   S180      1.0  0.70281  0.84769  0.68087  1.0000
  Fe  Fe91      1.0  0.71258  0.91105  0.57668  1.0000
  S   S181      1.0  0.70555  0.94855  0.59653  1.0000
  Fe  Fe92      1.0  0.74250  0.86842  0.55257  1.0000
  S   S182      1.0  0.77801  0.85632  0.53101  1.0000
  S   S183      1.0  0.68173  0.88837  0.58633  1.0000
  S   S184      1.0  0.71368  0.84395  0.56205  1.0000
  Fe  Fe93      1.0  0.62476  0.79173  0.86136  1.0000
  S   S185      1.0  0.60812  0.75746  0.87357  1.0000
  S   S186      1.0  0.62558  0.80656  0.79747  1.0000
  Fe  Fe94      1.0  0.62648  0.80203  0.95171  1.0000
  H   H800      1.0  0.94815  0.68503  0.57426  1.0000
  Fe  Fe95      1.0  0.63406  0.75329  0.92386  1.0000
  C   C673      1.0  0.95023  0.71972  0.52237  1.0000
  Fe  Fe96      1.0  0.58535  0.77593  0.91802  1.0000
  S   S187      1.0  0.54646  0.78235  0.92658  1.0000
  S   S188      1.0  0.65168  0.78658  0.90867  1.0000
  S   S189      1.0  0.60111  0.81008  0.90368  1.0000
  C   C674      1.0  0.51798  0.77293  0.91527  1.0000
  H   H801      1.0  0.93201  0.72559  0.52250  1.0000
  N   N46       1.0  0.76333  0.80770  0.64405  1.0000
  H   H802      1.0  0.52764  0.74216  0.88389  1.0000
  C   C675      1.0  0.81176  0.82804  0.49974  1.0000
  C   C676      1.0  0.68095  0.83622  0.71254  1.0000
  C   C677      1.0  0.65790  0.83518  0.70119  1.0000
  C   C678      1.0  0.64135  0.82607  0.72750  1.0000
  C   C679      1.0  0.64747  0.81777  0.76555  1.0000
  C   C680      1.0  0.67052  0.81890  0.77692  1.0000
  C   C681      1.0  0.68706  0.82806  0.75065  1.0000
  H   H803      1.0  0.65278  0.84130  0.67210  1.0000
  H   H804      1.0  0.62364  0.82534  0.71815  1.0000
  H   H805      1.0  0.67563  0.81269  0.80597  1.0000
  H   H806      1.0  0.70476  0.82882  0.76005  1.0000
  C   C682      1.0  0.71357  0.97730  0.58332  1.0000
  H   H807      1.0  0.57412  0.80118  0.75201  1.0000
  C   C683      1.0  0.73012  0.98210  0.55443  1.0000
  H   H808      1.0  0.51615  0.81674  0.84285  1.0000
  H   H809      1.0  0.73856  0.96809  0.53906  1.0000
  C   C684      1.0  0.55765  0.81217  0.82149  1.0000
  C   C685      1.0  0.81894  0.79381  0.58835  1.0000
  C   C686      1.0  0.67502  0.70743  0.96771  1.0000
  H   H810      1.0  0.80242  0.82481  0.60431  1.0000
  H   H811      1.0  0.75014  0.84201  0.65411  1.0000
  H   H812      1.0  0.70188  0.69735  0.92725  1.0000
  H   H813      1.0  0.83905  0.67517  0.60239  1.0000
  C   C687      1.0  0.78914  0.82925  0.51424  1.0000
  C   C688      1.0  0.86032  0.67147  0.55031  1.0000
  H   H814      1.0  0.54081  0.85898  0.96104  1.0000
  H   H815      1.0  0.65891  0.88368  0.73071  1.0000
  C   C689      1.0  0.81857  0.76991  0.58806  1.0000
  H   H816      1.0  0.83268  0.80270  0.57324  1.0000
  H   H817      1.0  0.70910  0.92919  0.78400  1.0000
  N   N47       1.0  0.68881  0.92013  0.71197  1.0000
  C   C690      1.0  0.68593  0.94544  0.71519  1.0000
  C   C691      1.0  0.71266  0.91495  0.69960  1.0000
  C   C692      1.0  0.67335  0.91228  0.67974  1.0000
  C   C693      1.0  0.68428  0.90894  0.75076  1.0000
  C   C694      1.0  0.66851  0.89061  0.75531  1.0000
  C   C695      1.0  0.69643  0.91579  0.78532  1.0000
  C   C696      1.0  0.66498  0.88019  0.79226  1.0000
  C   C697      1.0  0.69274  0.90524  0.82215  1.0000
  C   C698      1.0  0.67704  0.88748  0.82560  1.0000
  H   H818      1.0  0.69875  0.95335  0.73521  1.0000
  H   H819      1.0  0.68820  0.95407  0.68577  1.0000
  H   H820      1.0  0.66856  0.95004  0.72642  1.0000
  H   H821      1.0  0.72547  0.92177  0.72086  1.0000
  H   H822      1.0  0.71662  0.92269  0.67007  1.0000
  H   H823      1.0  0.71560  0.89606  0.69730  1.0000
  H   H824      1.0  0.65505  0.91542  0.68730  1.0000
  H   H825      1.0  0.67662  0.92159  0.65133  1.0000
  H   H826      1.0  0.67592  0.89367  0.67330  1.0000
  H   H827      1.0  0.72660  0.81073  0.63715  1.0000
  C   C699      1.0  0.80129  0.80634  0.60651  1.0000
  H   H828      1.0  0.73741  0.78231  0.63112  1.0000
  H   H829      1.0  0.76979  0.76092  0.63954  1.0000
  H   H830      1.0  0.70224  0.91075  0.84813  1.0000
  H   H831      1.0  0.55745  0.75649  0.79211  1.0000
  H   H832      1.0  0.75937  0.78381  0.69293  1.0000
  C   C700      1.0  0.78317  0.77069  0.62544  1.0000
  H   H833      1.0  0.74196  0.80315  0.59265  1.0000
  C   C701      1.0  0.69560  0.69607  0.95743  1.0000
  C   C702      1.0  0.74144  0.80062  0.62543  1.0000
  C   C703      1.0  0.78268  0.79509  0.62539  1.0000
  H   H834      1.0  0.55434  0.80925  0.85370  1.0000
  S   S190      1.0  0.60988  0.76895  0.96919  1.0000
  C   C704      1.0  0.55545  0.79753  0.75510  1.0000
  H   H835      1.0  0.76501  0.83837  0.60814  1.0000
  H   H836      1.0  0.54398  0.82911  0.94857  1.0000
  C   C705      1.0  0.76243  0.80233  0.68714  1.0000
  C   C706      1.0  0.76495  0.83305  0.63995  1.0000
  H   H837      1.0  0.55190  0.78277  0.73521  1.0000
  H   H838      1.0  0.54578  0.81267  0.74340  1.0000
  H   H839      1.0  0.74826  0.81195  0.70218  1.0000
  H   H840      1.0  0.77878  0.80693  0.70210  1.0000
  C   C707      1.0  0.77625  0.80910  0.51504  1.0000
  S   S191      1.0  0.72176  0.89466  0.51772  1.0000
  H   H841      1.0  0.57654  0.81432  0.81846  1.0000
  H   H842      1.0  0.78060  0.83980  0.65458  1.0000
  C   C708      1.0  0.51354  0.75279  0.89401  1.0000
  H   H843      1.0  0.98491  0.69549  0.57174  1.0000
  C   C709      1.0  0.70296  0.99598  0.60292  1.0000
  C   C710      1.0  0.52415  0.78918  0.80022  1.0000
  C   C711      1.0  0.80081  0.75836  0.60681  1.0000
  H   H844      1.0  0.54963  0.82875  0.81229  1.0000
  H   H845      1.0  0.55728  0.76756  0.84181  1.0000
  C   C712      1.0  0.56158  0.77178  0.81036  1.0000
  H   H846      1.0  0.80067  0.73973  0.60652  1.0000
  H   H847      1.0  0.67432  0.87917  0.85407  1.0000
  H   H848      1.0  0.83192  0.76034  0.57271  1.0000
  H   H849      1.0  0.82196  0.84346  0.49892  1.0000
  S   S192      1.0  0.65921  0.72250  0.92985  1.0000
  C   C713      1.0  0.55181  0.84348  0.96546  1.0000
  H   H850      1.0  0.92251  0.68497  0.54580  1.0000
  C   C714      1.0  0.94127  0.68131  0.54421  1.0000
  H   H851      1.0  0.58049  0.77398  0.80826  1.0000
  H   H852      1.0  0.85030  0.68340  0.53258  1.0000
  N   N48       1.0  0.95241  0.69499  0.51247  1.0000
  H   H853      1.0  0.75890  0.80959  0.52611  1.0000
  H   H854      1.0  0.95756  0.72381  0.55198  1.0000
  C   C715      1.0  0.51351  0.77122  0.77863  1.0000
  H   H855      1.0  0.95934  0.73047  0.50008  1.0000
  H   H856      1.0  0.52335  0.75990  0.75967  1.0000
  C   C716      1.0  0.97701  0.68880  0.50934  1.0000
  C   C717      1.0  0.78603  0.78806  0.50231  1.0000
  C   C718      1.0  0.70818  0.68299  0.98566  1.0000
  H   H857      1.0  0.56858  0.84675  0.95100  1.0000
  H   H858      1.0  0.69015  0.99265  0.62534  1.0000
  H   H859      1.0  0.69969  0.78090  0.97318  1.0000
  C   C719      1.0  0.99152  0.69018  0.54320  1.0000
  C   C720      1.0  0.50969  0.80303  0.82459  1.0000
  H   H860      1.0  0.77604  0.77252  0.50392  1.0000
  H   H861      1.0  0.50218  0.80198  0.94447  1.0000
  H   H862      1.0  0.72397  0.67452  0.97704  1.0000
  H   H863      1.0  0.68779  0.97201  0.49941  1.0000
  H   H864      1.0  0.66586  0.75868  0.98581  1.0000
