data_image0
_chemical_formula_structural       HCSCH2FeSFeSHCSCSFeSFeSHCH3C7H5SCHC3H2C2H3CHSH2C2NC2H2CHSC2HFeH2CH6SHCH5SHCSFeNFeSHCHSCHFeSFeCH2C2HC7H5CHCSC2HFeH2CH2SH3CH4NCHCHSCHSHC2H3CH3NHCHCHC6HC2HC3H2SCS2FeSFeSC2FeHSC3FeSHC2HCSCHC3H2CHCH3C2H2CHSCHFeC2HCH4CH2C2NC2SH2CHSHCFeHSH2CH4C2SCH5CFeCHNHC2H6FeHFeHSHCHS2FeCFeHSC2S3C2H2C2HFeCHCHSH5C4HCH3CSH3CN2HC4H2FeC2NC4HCH2CHC3H6CHCHFeH4C2H2C3H4CH2CHC2S2CFeHFeCSHSH5SFeS2FeSHFeSFeS5CSHCH2C3H2SHCH5CNC4H2C7H4CH2CSHCHSHC2H8NC9H14NC6H10NCH4C2H5CH3CHC2HC3NC9H7CHCFeC3HCHNSFeH2CH2FeC2HNHCH2C2H4SHCSC4H4C2HCHCH4CHSC4HC3H3C2H2CHCH2C4HC3HSHC2Fe2HCSHFeHCHCHSHSHCFeSCSHFeHFeS2FeS2FeSFeHS2FeHSCFeCH2C2H3CHCH2SHSNC2H2CHSC7H5C2H4C2HCHC2H2C2H2CH3SH3FeC2H2C2NC9H11SHC4SH4CHCH2SHCHCHSH3FeNC6H2CHC3H2C2FeH3CHNC9H5CH7SNHSCH6C4NCH2CHC2NH2CHC2HCHCHC4HCHCH2C2HCSH5CHSC4H2CH5SHCFeHFeCH3SHCHFe2SHFeS2FeSFeS3HCSCHSCFeSC3H4C6H4C2SCFeH3C3SH3C2H2C3SNCH8CH2SCH7C2HCH2SHSCHC2HNHC4HC3H2CH4CHFeCHC2HCNC9H11CSCNC9H12CHNC9H3CHCHCH2CHNSHC2HC2H2C2HC2H2SHC2H2S2HCH7SH2SHCFeCHFeNC3HCH3C2SH2C2NH2SHC2H2CH2CH2SH2CHCH2CHCS2H2C2HC2H2CNCH2SH2CHCSH3C2H2CH4NHC6FeHCH3C2H2CHC2HCSCHC2H3SHSH3CHCHNC2HCHCHNHC4H3FeH3CH2CH2C3HCSHCHFeHC2H2C2HCHSFeHFeSCSFeS2FeS2FeS2FeSFeS3C2H2CNH3C2HCH2C8H6CH2CHC2HC2FeHFeC3HSNSH2NFeSHFeS2FeS2FeSFeS3HSH3C2HSC2HC4H5CHCH4C7H6CHCH2C2H5SHC3HC2HCHNC9H12SCNFeC5SHCH3C2H5FeH3CHCNH3C2H3C3H4CH2CH2C3HCHC3HC2HCH3CHCH3NFeCH2CHCHCH5SC3H2C3HNCHCHCH2CHCH2C3HSC2HC3HSC2H2CH2SCHCH4SCH2FeS2FeHCSHFeCFe2SCSFeS2FeSHFeSFeS3CHC3HCH3CHCH3C2H2SH4C6H4CHSH2C2H3C4HSCH3CH5FeCHCH3SCNC9H14NC9H11SNCHC2H2CHC2H2CFeHSH2C2H3CHSC3H2NC15H9C2FeS2H5CSH3CH2NHNH2SH3C2HSHFe2CSHS2HC2FeSHSFeS2FeS2FeSFeS3HSCH3C2H3SC2H3CH2CFeH2FeCH2C7H4CH3CH3C2HCH2SHN2C9H2CH2CH2C5H3CHCHCHC6HSCH3C4HCHNC9H14CH2CHC2NC2H4C2HC2H2CHNH4FeCSH2C4H3CSH2C2HC2FeCHCH3CH2C3HCHCH4CH2CHCHCHSCH3C2SCH3CSHCFeCFeHSNFeSHFeSH2FeSCFeS2FeSFeS3CSH2NHC3HCHSHCHCH4C3S2C6H4CH2C6HCNH2CHFeC2S2H3CSH2CH3C2H2CHCH2C7H10CSNH5CNH2CH8NHC7H2CHCH3CHSC2HCH2C2SFeCFeHCH4C3H2C2HSC6H5C2H4C2HCHCSCHC2H2CHSC2H2CH3Fe2C2H2SC3HC2H2CHSCNH3CHCHFeSHFeSFeSFeS2CFeHCFeS2Fe2CS3HC2HCHCH2C3HC3NH3NC2H6C5H3CH2SCH2C2HC2H4CH2SC2HCHC2HCH5CHNHCH3CH2CHC3SC6HSHCHCHC5SH2CHCFeSH2SFeHFeSHSFeH2FeS2CFeHS2HSFeSCHCHCNCHC2H2CS2CHSC6H3C4H4C2HCSH3NHCHCH3C2H2SCHSCHNC3FeSC2SFeCFeSFeSHSH2SFeSFeSHCHC2HC9H4CH4CHFeCH2CHCH3CHCH2C3H2SHNSHS2HC2HCHCHC3NCH5C2H7NCHCH2SH2CHC2H2C2SH4C2H2CHCFeSCHSCFeSFeHSCHS2CSFeCFeSC2HCFeCHC6H4CH2CHC2H3CH4SH3NH2FeCSH2CH3CHCHSHCH3CHCH2CHCH2CH3NHC2HCHCH3SH3C3H2
_chemical_formula_sum              "H1296 C1080 S288 Fe144 N72"
_cell_length_a       57.1088
_cell_length_b       56.9801
_cell_length_c       62.9777
_cell_angle_alpha    90.7027
_cell_angle_beta     89.8271
_cell_angle_gamma    116.841

_space_group_name_H-M_alt    "P 1"
_space_group_IT_number       1

loop_
  _space_group_symop_operation_xyz
  'x, y, z'

loop_
  _atom_site_type_symbol
  _atom_site_label
  _atom_site_symmetry_multiplicity
  _atom_site_fract_x
  _atom_site_fract_y
  _atom_site_fract_z
  _atom_site_occupancy
  H   H1        1.0  0.45756  0.50383  0.04616  1.0000
  C   C1        1.0  0.36524  0.43156  0.02290  1.0000
  S   S1        1.0  0.46049  0.34014  0.07116  1.0000
  C   C2        1.0  0.50793  0.35317  0.15028  1.0000
  H   H2        1.0  0.48898  0.41872  0.12167  1.0000
  H   H3        1.0  0.45497  0.36082  0.11227  1.0000
  Fe  Fe1       1.0  0.47891  0.38282  0.06152  1.0000
  S   S2        1.0  0.46466  0.41398  0.05529  1.0000
  Fe  Fe2       1.0  0.48737  0.33407  0.04753  1.0000
  S   S3        1.0  0.47733  0.30334  0.02064  1.0000
  H   H4        1.0  0.40754  0.38598  0.15636  1.0000
  C   C3        1.0  0.48749  0.22763  0.01085  1.0000
  S   S4        1.0  0.33399  0.48102  0.09223  1.0000
  C   C4        1.0  0.41531  0.40162  0.14495  1.0000
  S   S5        1.0  0.34376  0.47647  0.04152  1.0000
  Fe  Fe3       1.0  0.32234  0.49360  0.06144  1.0000
  S   S6        1.0  0.27943  0.48567  0.05611  1.0000
  Fe  Fe4       1.0  0.35864  0.46764  0.07199  1.0000
  S   S7        1.0  0.36342  0.43031  0.07749  1.0000
  H   H5        1.0  0.19887  0.47374  0.01876  1.0000
  C   C5        1.0  0.26170  0.48693  0.03310  1.0000
  H   H6        1.0  0.49596  0.27437  0.04910  1.0000
  H   H7        1.0  0.44477  0.37975  0.16588  1.0000
  H   H8        1.0  0.29453  0.50153  0.01173  1.0000
  C   C6        1.0  0.47977  0.40569  0.13537  1.0000
  C   C7        1.0  0.43626  0.41785  0.06196  1.0000
  C   C8        1.0  0.41364  0.39755  0.07050  1.0000
  C   C9        1.0  0.39161  0.40173  0.07527  1.0000
  C   C10       1.0  0.39186  0.42616  0.07155  1.0000
  C   C11       1.0  0.41448  0.44643  0.06295  1.0000
  C   C12       1.0  0.43650  0.44227  0.05824  1.0000
  H   H9        1.0  0.41297  0.37856  0.07321  1.0000
  H   H10       1.0  0.37420  0.38589  0.08184  1.0000
  H   H11       1.0  0.41499  0.46528  0.05992  1.0000
  H   H12       1.0  0.45383  0.45804  0.05154  1.0000
  H   H13       1.0  0.49019  0.39327  0.13673  1.0000
  S   S8        1.0  0.39402  0.50652  0.07389  1.0000
  C   C13       1.0  0.43219  0.44259  0.11586  1.0000
  H   H14       1.0  0.39936  0.44850  0.12642  1.0000
  C   C14       1.0  0.40194  0.41690  0.14297  1.0000
  C   C15       1.0  0.44612  0.37465  0.11228  1.0000
  C   C16       1.0  0.27375  0.49554  0.01339  1.0000
  H   H15       1.0  0.34402  0.42646  0.02402  1.0000
  H   H16       1.0  0.43830  0.45810  0.10425  1.0000
  C   C17       1.0  0.43752  0.40630  0.13212  1.0000
  C   C18       1.0  0.49379  0.24109  0.03055  1.0000
  H   H17       1.0  0.46146  0.43130  0.10653  1.0000
  H   H18       1.0  0.42472  0.36286  0.10921  1.0000
  H   H19       1.0  0.48424  0.41821  0.14996  1.0000
  C   C19       1.0  0.21970  0.48006  0.01713  1.0000
  H   H20       1.0  0.45453  0.38788  0.09850  1.0000
  S   S9        1.0  0.50253  0.37562  0.03582  1.0000
  H   H21       1.0  0.38469  0.41269  0.15253  1.0000
  H   H22       1.0  0.22496  0.47244  0.04990  1.0000
  C   C20       1.0  0.48115  0.27400  0.01767  1.0000
  C   C21       1.0  0.50024  0.34208  0.17051  1.0000
  N   N1        1.0  0.45102  0.38940  0.13264  1.0000
  C   C22       1.0  0.49095  0.26427  0.03389  1.0000
  C   C23       1.0  0.23458  0.47928  0.03480  1.0000
  H   H23       1.0  0.42107  0.35530  0.14803  1.0000
  H   H24       1.0  0.49020  0.14932  0.03172  1.0000
  C   C24       1.0  0.44201  0.36991  0.15006  1.0000
  H   H25       1.0  0.48174  0.32463  0.17230  1.0000
  S   S10       1.0  0.48684  0.33839  0.12823  1.0000
  C   C25       1.0  0.51613  0.35359  0.18853  1.0000
  C   C26       1.0  0.44548  0.42724  0.11747  1.0000
  H   H26       1.0  0.44555  0.41857  0.01059  1.0000
  Fe  Fe5       1.0  0.49485  0.35289  0.09403  1.0000
  H   H27       1.0  0.50210  0.50119  0.02618  1.0000
  H   H28       1.0  0.45325  0.35819  0.15040  1.0000
  C   C27       1.0  0.41026  0.43723  0.12837  1.0000
  H   H29       1.0  0.51123  0.46803  0.04453  1.0000
  H   H30       1.0  0.49123  0.12600  0.05013  1.0000
  H   H31       1.0  0.36727  0.41441  0.02914  1.0000
  H   H32       1.0  0.50970  0.34520  0.20404  1.0000
  H   H33       1.0  0.37598  0.44833  0.03403  1.0000
  H   H34       1.0  0.50088  0.23352  0.04336  1.0000
  S   S11       1.0  0.51157  0.39555  0.08560  1.0000
  H   H35       1.0  0.49998  0.12548  0.02253  1.0000
  C   C28       1.0  0.50147  0.13844  0.03633  1.0000
  H   H36       1.0  0.51585  0.10245  0.04077  1.0000
  H   H37       1.0  0.51624  0.18401  0.05466  1.0000
  H   H38       1.0  0.39916  0.40773  0.01195  1.0000
  H   H39       1.0  0.51124  0.19450  0.45165  1.0000
  H   H40       1.0  0.43085  0.38796  0.35999  1.0000
  S   S12       1.0  0.45952  0.32717  0.45858  1.0000
  H   H41       1.0  0.51232  0.31206  0.36777  1.0000
  C   C29       1.0  0.49228  0.19189  0.49150  1.0000
  S   S13       1.0  0.48772  0.37603  0.49276  1.0000
  Fe  Fe6       1.0  0.48901  0.33757  0.48512  1.0000
  N   N2        1.0  0.43146  0.35913  0.39448  1.0000
  Fe  Fe7       1.0  0.46098  0.36728  0.46425  1.0000
  S   S14       1.0  0.42290  0.37145  0.46128  1.0000
  H   H42       1.0  0.29480  0.38412  0.49393  1.0000
  C   C30       1.0  0.51294  0.33103  0.36496  1.0000
  H   H43       1.0  0.44387  0.38480  0.32347  1.0000
  S   S15       1.0  0.33752  0.47973  0.44921  1.0000
  C   C31       1.0  0.45217  0.33455  0.34440  1.0000
  H   H44       1.0  0.04875  0.49018  0.48523  1.0000
  Fe  Fe8       1.0  0.37735  0.49274  0.46472  1.0000
  S   S16       1.0  0.40741  0.47615  0.46532  1.0000
  Fe  Fe9       1.0  0.32486  0.49028  0.48060  1.0000
  C   C32       1.0  0.51865  0.36587  0.34050  1.0000
  H   H45       1.0  0.39937  0.36781  0.38661  1.0000
  H   H46       1.0  0.32133  0.44002  0.48317  1.0000
  C   C33       1.0  0.44527  0.33627  0.36548  1.0000
  C   C34       1.0  0.33422  0.43026  0.48527  1.0000
  H   H47       1.0  0.22757  0.51566  0.45726  1.0000
  C   C35       1.0  0.26646  0.50055  0.49998  1.0000
  C   C36       1.0  0.41938  0.40103  0.46111  1.0000
  C   C37       1.0  0.39467  0.39968  0.45646  1.0000
  C   C38       1.0  0.39069  0.42244  0.45714  1.0000
  C   C39       1.0  0.41137  0.44688  0.46268  1.0000
  C   C40       1.0  0.43620  0.44827  0.46687  1.0000
  C   C41       1.0  0.44023  0.42557  0.46606  1.0000
  H   H48       1.0  0.37838  0.38084  0.45262  1.0000
  H   H49       1.0  0.37159  0.42100  0.45361  1.0000
  H   H50       1.0  0.45239  0.46706  0.47102  1.0000
  H   H51       1.0  0.45935  0.42700  0.46962  1.0000
  H   H52       1.0  0.28204  0.51219  0.48920  1.0000
  C   C42       1.0  0.24810  0.50936  0.50645  1.0000
  H   H53       1.0  0.45622  0.34441  0.40909  1.0000
  C   C43       1.0  0.40362  0.35387  0.39611  1.0000
  S   S17       1.0  0.49365  0.38754  0.44092  1.0000
  C   C44       1.0  0.43678  0.37288  0.35623  1.0000
  C   C45       1.0  0.43777  0.35588  0.37213  1.0000
  H   H54       1.0  0.48462  0.19893  0.50511  1.0000
  Fe  Fe10      1.0  0.49413  0.34862  0.43708  1.0000
  H   H55       1.0  0.44406  0.40121  0.39360  1.0000
  H   H56       1.0  0.43099  0.34431  0.42599  1.0000
  C   C46       1.0  0.44398  0.37112  0.33523  1.0000
  H   H57       1.0  0.42244  0.32015  0.40545  1.0000
  H   H58       1.0  0.35483  0.44563  0.48344  1.0000
  S   S18       1.0  0.28785  0.46530  0.49972  1.0000
  H   H59       1.0  0.44545  0.38914  0.41913  1.0000
  H   H60       1.0  0.39823  0.35584  0.41288  1.0000
  H   H61       1.0  0.33020  0.41601  0.47188  1.0000
  C   C47       1.0  0.44832  0.38650  0.40191  1.0000
  H   H62       1.0  0.39027  0.33360  0.39043  1.0000
  H   H63       1.0  0.45837  0.35139  0.31329  1.0000
  H   H64       1.0  0.46945  0.39194  0.39946  1.0000
  H   H65       1.0  0.47635  0.18232  0.47955  1.0000
  N   N3        1.0  0.32972  0.41700  0.50604  1.0000
  C   C48       1.0  0.45190  0.35216  0.32939  1.0000
  H   H66       1.0  0.44692  0.32254  0.37633  1.0000
  C   C49       1.0  0.43549  0.34118  0.40930  1.0000
  H   H67       1.0  0.45883  0.32014  0.33984  1.0000
  S   S19       1.0  0.49840  0.32895  0.40671  1.0000
  C   C50       1.0  0.51364  0.37943  0.35732  1.0000
  H   H68       1.0  0.51352  0.39803  0.35434  1.0000
  S   S20       1.0  0.36342  0.50001  0.49648  1.0000
  H   H69       1.0  0.46909  0.21905  0.48122  1.0000
  C   C51       1.0  0.51103  0.23502  0.47337  1.0000
  C   C52       1.0  0.50738  0.34429  0.38167  1.0000
  H   H70       1.0  0.36903  0.51514  0.39022  1.0000
  H   H71       1.0  0.46303  0.25497  0.46644  1.0000
  H   H72       1.0  0.49660  0.17607  0.49781  1.0000
  C   C53       1.0  0.50835  0.36885  0.37789  1.0000
  H   H73       1.0  0.49992  0.29291  0.45015  1.0000
  H   H74       1.0  0.50450  0.37942  0.39069  1.0000
  H   H75       1.0  0.44326  0.26780  0.50521  1.0000
  N   N4        1.0  0.51595  0.21361  0.48212  1.0000
  H   H76       1.0  0.38376  0.44079  0.50727  1.0000
  C   C54       1.0  0.48599  0.23472  0.47398  1.0000
  H   H77       1.0  0.26706  0.51541  0.44336  1.0000
  C   C55       1.0  0.48216  0.25534  0.46551  1.0000
  H   H78       1.0  0.49530  0.47104  0.49289  1.0000
  C   C56       1.0  0.05995  0.51066  0.48994  1.0000
  C   C57       1.0  0.50296  0.27682  0.45642  1.0000
  C   C58       1.0  0.51887  0.34190  0.34452  1.0000
  C   C59       1.0  0.26450  0.47665  0.50726  1.0000
  C   C60       1.0  0.51284  0.48499  0.50109  1.0000
  C   C61       1.0  0.37481  0.41958  0.50843  1.0000
  H   H79       1.0  0.31679  0.36297  0.50748  1.0000
  C   C62       1.0  0.33747  0.37636  0.50814  1.0000
  C   C63       1.0  0.34712  0.40416  0.50785  1.0000
  H   H80       1.0  0.28895  0.40907  0.50656  1.0000
  C   C64       1.0  0.30130  0.39849  0.50740  1.0000
  C   C65       1.0  0.51638  0.51039  0.50556  1.0000
  C   C66       1.0  0.45592  0.25338  0.57865  1.0000
  H   H81       1.0  0.48761  0.16999  0.63037  1.0000
  H   H82       1.0  0.48016  0.09782  0.61881  1.0000
  S   S21       1.0  0.46613  0.13282  0.53444  1.0000
  C   C67       1.0  0.48171  0.10680  0.66261  1.0000
  S   S22       1.0  0.46625  0.15251  0.58353  1.0000
  S   S23       1.0  0.49593  0.31246  0.51031  1.0000
  Fe  Fe11      1.0  0.46730  0.11733  0.56708  1.0000
  S   S24       1.0  0.44873  0.07616  0.58197  1.0000
  Fe  Fe12      1.0  0.46948  0.16979  0.55081  1.0000
  S   S25       1.0  0.44740  0.19250  0.53979  1.0000
  C   C68       1.0  0.22534  0.47055  0.52759  1.0000
  C   C69       1.0  0.51505  0.19741  0.67833  1.0000
  Fe  Fe13      1.0  0.51020  0.15266  0.53643  1.0000
  H   H83       1.0  0.43756  0.23570  0.57738  1.0000
  S   S26       1.0  0.16028  0.47316  0.58171  1.0000
  C   C70       1.0  0.28001  0.51461  0.55912  1.0000
  C   C71       1.0  0.50111  0.27871  0.58992  1.0000
  C   C72       1.0  0.22732  0.49445  0.52018  1.0000
  Fe  Fe14      1.0  0.12071  0.47321  0.57672  1.0000
  S   S27       1.0  0.08074  0.43822  0.58393  1.0000
  H   H84       1.0  0.35584  0.45332  0.52213  1.0000
  C   C73       1.0  0.42660  0.02188  0.58210  1.0000
  C   C74       1.0  0.50274  0.30006  0.57816  1.0000
  H   H85       1.0  0.33366  0.42793  0.53915  1.0000
  C   C75       1.0  0.48827  0.24260  0.53290  1.0000
  S   S28       1.0  0.51154  0.13536  0.56787  1.0000
  C   C76       1.0  0.42798  0.04412  0.57148  1.0000
  H   H86       1.0  0.49486  0.20627  0.60113  1.0000
  C   C77       1.0  0.50845  0.11789  0.65615  1.0000
  C   C78       1.0  0.02659  0.41195  0.58589  1.0000
  C   C79       1.0  0.41181  0.04016  0.55378  1.0000
  H   H87       1.0  0.51498  0.14242  0.61852  1.0000
  H   H88       1.0  0.41238  0.05695  0.54553  1.0000
  C   C80       1.0  0.46164  0.22536  0.53008  1.0000
  H   H89       1.0  0.06562  0.50139  0.52200  1.0000
  C   C81       1.0  0.45035  0.20899  0.60272  1.0000
  H   H90       1.0  0.24291  0.48749  0.57259  1.0000
  H   H91       1.0  0.28289  0.49838  0.55286  1.0000
  H   H92       1.0  0.44398  0.20077  0.58639  1.0000
  C   C82       1.0  0.04845  0.42768  0.57334  1.0000
  C   C83       1.0  0.04400  0.43289  0.55245  1.0000
  H   H93       1.0  0.48793  0.13809  0.71024  1.0000
  H   H94       1.0  0.06053  0.44461  0.54247  1.0000
  C   C84       1.0  0.48109  0.29818  0.56680  1.0000
  H   H95       1.0  0.48493  0.07200  0.63157  1.0000
  S   S29       1.0  0.50582  0.19696  0.70526  1.0000
  C   C85       1.0  0.45775  0.27493  0.56707  1.0000
  H   H96       1.0  0.32227  0.44636  0.52268  1.0000
  Fe  Fe15      1.0  0.51021  0.17101  0.58236  1.0000
  C   C86       1.0  0.49582  0.18252  0.66320  1.0000
  C   C87       1.0  0.50255  0.18179  0.64176  1.0000
  H   H97       1.0  0.29691  0.50808  0.71309  1.0000
  C   C88       1.0  0.47454  0.11387  0.68202  1.0000
  H   H98       1.0  0.47569  0.17119  0.66820  1.0000
  H   H99       1.0  0.50178  0.08654  0.60753  1.0000
  H   H100      1.0  0.26582  0.50336  0.70311  1.0000
  H   H101      1.0  0.20936  0.45868  0.53801  1.0000
  C   C89       1.0  0.49518  0.22347  0.59279  1.0000
  H   H102      1.0  0.24202  0.44317  0.52690  1.0000
  H   H103      1.0  0.02973  0.40763  0.60201  1.0000
  C   C90       1.0  0.48465  0.23986  0.62502  1.0000
  C   C91       1.0  0.49852  0.26886  0.52606  1.0000
  N   N5        1.0  0.47672  0.23210  0.60258  1.0000
  C   C92       1.0  0.24385  0.46173  0.52116  1.0000
  C   C93       1.0  0.33566  0.43695  0.52325  1.0000
  S   S30       1.0  0.13112  0.50855  0.59819  1.0000
  H   H104      1.0  0.46591  0.09288  0.65287  1.0000
  H   H105      1.0  0.45024  0.19256  0.61221  1.0000
  C   C94       1.0  0.47760  0.25471  0.59061  1.0000
  H   H106      1.0  0.31250  0.51345  0.52567  1.0000
  S   S31       1.0  0.51327  0.19010  0.55077  1.0000
  H   H107      1.0  0.29651  0.38765  0.52265  1.0000
  C   C95       1.0  0.49357  0.13200  0.69550  1.0000
  Fe  Fe16      1.0  0.17394  0.49941  0.55302  1.0000
  H   H108      1.0  0.48266  0.31446  0.55711  1.0000
  S   S32       1.0  0.13363  0.49666  0.54658  1.0000
  H   H109      1.0  0.44130  0.27329  0.55751  1.0000
  H   H110      1.0  0.43533  0.21414  0.60971  1.0000
  C   C96       1.0  0.25680  0.50798  0.57047  1.0000
  H   H111      1.0  0.50091  0.23601  0.54084  1.0000
  H   H112      1.0  0.43894  0.02464  0.59583  1.0000
  H   H113      1.0  0.45406  0.10564  0.68652  1.0000
  H   H114      1.0  0.48993  0.21771  0.57588  1.0000
  C   C97       1.0  0.49496  0.09093  0.62301  1.0000
  C   C98       1.0  0.35462  0.36494  0.50886  1.0000
  S   S33       1.0  0.20386  0.50617  0.52630  1.0000
  C   C99       1.0  0.45597  0.26083  0.51264  1.0000
  H   H115      1.0  0.47222  0.24802  0.63262  1.0000
  H   H116      1.0  0.42497  0.22153  0.51755  1.0000
  H   H117      1.0  0.48293  0.22285  0.63465  1.0000
  H   H118      1.0  0.34697  0.34372  0.50863  1.0000
  H   H119      1.0  0.50548  0.25480  0.62660  1.0000
  C   C100      1.0  0.44561  0.23462  0.51979  1.0000
  Fe  Fe17      1.0  0.17100  0.51028  0.60108  1.0000
  C   C101      1.0  0.48249  0.27824  0.51595  1.0000
  H   H120      1.0  0.51588  0.23897  0.59331  1.0000
  N   N6        1.0  0.51688  0.11111  0.63568  1.0000
  H   H121      1.0  0.39495  0.37181  0.50928  1.0000
  C   C102      1.0  0.39171  0.40795  0.50940  1.0000
  C   C103      1.0  0.38167  0.38070  0.50941  1.0000
  H   H122      1.0  0.41279  0.42015  0.50919  1.0000
  H   H123      1.0  0.32847  0.51493  0.55080  1.0000
  H   H124      1.0  0.51863  0.28091  0.59805  1.0000
  H   H125      1.0  0.51895  0.28221  0.52897  1.0000
  H   H126      1.0  0.14996  0.51430  0.65074  1.0000
  H   H127      1.0  0.47148  0.15384  0.83735  1.0000
  Fe  Fe18      1.0  0.49497  0.17834  0.97686  1.0000
  H   H128      1.0  0.19633  0.51539  0.00783  1.0000
  Fe  Fe19      1.0  0.47508  0.12865  0.94749  1.0000
  H   H129      1.0  0.04076  0.44968  0.86839  1.0000
  S   S34       1.0  0.44718  0.08747  0.93467  1.0000
  H   H130      1.0  0.08791  0.40436  0.88678  1.0000
  C   C104      1.0  0.46389  0.14859  0.85325  1.0000
  H   H131      1.0  0.48604  0.07192  0.96886  1.0000
  S   S35       1.0  0.49462  0.13850  0.97940  1.0000
  S   S36       1.0  0.47191  0.16698  0.94608  1.0000
  Fe  Fe20      1.0  0.17348  0.48763  0.96727  1.0000
  C   C105      1.0  0.44623  0.13261  0.89446  1.0000
  Fe  Fe21      1.0  0.11312  0.45724  0.95955  1.0000
  H   H132      1.0  0.08040  0.45472  0.85351  1.0000
  S   S37       1.0  0.07522  0.41847  0.96101  1.0000
  C   C106      1.0  0.36929  0.45988  0.99387  1.0000
  C   C107      1.0  0.45736  0.11938  0.88273  1.0000
  S   S38       1.0  0.14849  0.46476  0.93911  1.0000
  S   S39       1.0  0.13824  0.47629  0.98845  1.0000
  S   S40       1.0  0.51318  0.14514  0.92946  1.0000
  C   C108      1.0  0.45782  0.45787  0.99944  1.0000
  C   C109      1.0  0.25891  0.49643  0.99574  1.0000
  H   H133      1.0  0.09043  0.43322  0.91656  1.0000
  H   H134      1.0  0.08424  0.47661  0.87593  1.0000
  C   C110      1.0  0.43089  0.05655  0.94751  1.0000
  C   C111      1.0  0.42692  0.03351  0.93628  1.0000
  H   H135      1.0  0.48412  0.19896  0.83553  1.0000
  Fe  Fe22      1.0  0.14752  0.50250  0.93038  1.0000
  C   C112      1.0  0.41959  0.05411  0.96762  1.0000
  H   H136      1.0  0.43539  0.03513  0.92065  1.0000
  C   C113      1.0  0.48018  0.01581  0.99327  1.0000
  H   H137      1.0  0.42208  0.07157  0.97633  1.0000
  S   S41       1.0  0.21446  0.49120  0.97460  1.0000
  H   H138      1.0  0.11537  0.46057  0.90318  1.0000
  H   H139      1.0  0.46147  0.21141  0.82905  1.0000
  H   H140      1.0  0.41212  0.17432  0.86967  1.0000
  H   H141      1.0  0.46294  0.22670  0.86399  1.0000
  H   H142      1.0  0.36904  0.41942  0.97043  1.0000
  C   C114      1.0  0.45316  0.16293  0.86501  1.0000
  C   C115      1.0  0.43927  0.43312  0.00584  1.0000
  C   C116      1.0  0.04263  0.41424  0.95679  1.0000
  C   C117      1.0  0.03764  0.43386  0.94778  1.0000
  H   H143      1.0  0.47834  0.46223  0.99871  1.0000
  C   C118      1.0  0.03429  0.43261  0.87833  1.0000
  H   H144      1.0  0.05382  0.45241  0.94352  1.0000
  H   H145      1.0  0.47280  0.22735  0.97941  1.0000
  H   H146      1.0  0.41206  0.16097  0.84372  1.0000
  C   C119      1.0  0.23180  0.48875  0.99743  1.0000
  S   S42       1.0  0.11103  0.49361  0.94943  1.0000
  H   H147      1.0  0.45942  0.10310  0.88974  1.0000
  H   H148      1.0  0.11210  0.43071  0.87220  1.0000
  H   H149      1.0  0.43540  0.16362  0.89569  1.0000
  C   C120      1.0  0.47339  0.03320  0.98185  1.0000
  N   N7        1.0  0.37542  0.43850  0.00102  1.0000
  N   N8        1.0  0.45054  0.18564  0.85621  1.0000
  H   H150      1.0  0.46704  0.26766  0.98536  1.0000
  C   C121      1.0  0.04485  0.44781  0.00183  1.0000
  C   C122      1.0  0.40369  0.02895  0.97594  1.0000
  C   C123      1.0  0.05019  0.49225  0.00225  1.0000
  C   C124      1.0  0.40383  0.44578  0.00078  1.0000
  H   H151      1.0  0.08630  0.46216  0.91228  1.0000
  H   H152      1.0  0.51829  0.27256  0.96647  1.0000
  Fe  Fe23      1.0  0.51168  0.18373  0.93034  1.0000
  C   C125      1.0  0.46602  0.12724  0.86213  1.0000
  C   C126      1.0  0.50666  0.02603  0.00037  1.0000
  N   N9        1.0  0.08082  0.43851  0.88426  1.0000
  C   C127      1.0  0.09064  0.42029  0.87554  1.0000
  C   C128      1.0  0.08923  0.46110  0.86956  1.0000
  C   C129      1.0  0.09376  0.44898  0.90496  1.0000
  C   C130      1.0  0.05206  0.42430  0.88743  1.0000
  H   H153      1.0  0.46439  0.49624  0.98923  1.0000
  C   C131      1.0  0.47469  0.26041  0.99803  1.0000
  H   H154      1.0  0.41942  0.19506  0.84701  1.0000
  H   H155      1.0  0.37601  0.46592  0.97732  1.0000
  C   C132      1.0  0.42338  0.47117  0.99491  1.0000
  H   H156      1.0  0.08035  0.41089  0.86048  1.0000
  C   C133      1.0  0.44409  0.15403  0.88582  1.0000
  C   C134      1.0  0.46306  0.20879  0.87071  1.0000
  C   C135      1.0  0.42232  0.17872  0.85407  1.0000
  H   H157      1.0  0.45379  0.02679  0.97577  1.0000
  H   H158      1.0  0.05353  0.43433  0.00125  1.0000
  H   H159      1.0  0.45328  0.17798  0.82278  1.0000
  H   H160      1.0  0.43944  0.12633  0.91048  1.0000
  H   H161      1.0  0.02471  0.37492  0.96924  1.0000
  H   H162      1.0  0.47494  0.11706  0.85312  1.0000
  C   C136      1.0  0.51747  0.06856  0.98506  1.0000
  H   H163      1.0  0.11097  0.47111  0.86741  1.0000
  C   C137      1.0  0.47806  0.23758  0.99456  1.0000
  H   H164      1.0  0.39427  0.02734  0.99117  1.0000
  Fe  Fe24      1.0  0.13792  0.51318  0.97675  1.0000
  H   H165      1.0  0.48385  0.21347  0.87387  1.0000
  H   H166      1.0  0.05339  0.39488  0.90873  1.0000
  H   H167      1.0  0.45324  0.20567  0.88639  1.0000
  H   H168      1.0  0.41871  0.48697  0.99086  1.0000
  C   C138      1.0  0.46286  0.19375  0.83499  1.0000
  C   C139      1.0  0.02113  0.39027  0.96226  1.0000
  H   H169      1.0  0.34782  0.45387  0.99424  1.0000
  H   H170      1.0  0.37990  0.02407  0.90101  1.0000
  C   C140      1.0  0.49175  0.05913  0.97784  1.0000
  C   C141      1.0  0.04109  0.40181  0.90057  1.0000
  C   C142      1.0  0.41270  0.42711  0.00657  1.0000
  H   H171      1.0  0.36218  0.39752  0.99245  1.0000
  H   H172      1.0  0.26856  0.50315  0.98064  1.0000
  H   H173      1.0  0.33974  0.41013  0.98598  1.0000
  H   H174      1.0  0.37848  0.47750  0.00445  1.0000
  C   C143      1.0  0.36103  0.41540  0.98686  1.0000
  H   H175      1.0  0.06313  0.51325  0.00232  1.0000
  H   H176      1.0  0.08226  0.48217  0.00189  1.0000
  C   C144      1.0  0.06111  0.47479  0.00207  1.0000
  H   H177      1.0  0.19284  0.50876  0.89117  1.0000
  C   C145      1.0  0.02290  0.48276  0.00211  1.0000
  C   C146      1.0  0.44993  0.47691  0.99413  1.0000
  S   S43       1.0  0.49043  0.19783  0.00775  1.0000
  S   S44       1.0  0.38620  0.61941  0.24335  1.0000
  C   C147      1.0  0.35898  0.54853  0.18788  1.0000
  Fe  Fe25      1.0  0.36634  0.57507  0.24225  1.0000
  H   H178      1.0  0.48024  0.72045  0.02781  1.0000
  Fe  Fe26      1.0  0.22687  0.72007  0.23017  1.0000
  C   C148      1.0  0.48987  0.91242  0.01572  1.0000
  S   S45       1.0  0.20601  0.73037  0.20397  1.0000
  H   H179      1.0  0.49757  0.84338  0.02045  1.0000
  S   S46       1.0  0.26766  0.72422  0.22660  1.0000
  H   H180      1.0  0.14406  0.68192  0.19949  1.0000
  H   H181      1.0  0.17575  0.55622  0.03937  1.0000
  H   H182      1.0  0.09047  0.65033  0.14191  1.0000
  H   H183      1.0  0.25875  0.75478  0.12010  1.0000
  H   H184      1.0  0.48593  0.59792  0.11959  1.0000
  S   S47       1.0  0.48384  0.79312  0.23501  1.0000
  Fe  Fe27      1.0  0.19029  0.69679  0.08084  1.0000
  S   S48       1.0  0.16469  0.71702  0.07793  1.0000
  S   S49       1.0  0.21162  0.69259  0.10962  1.0000
  Fe  Fe28      1.0  0.18138  0.67817  0.03435  1.0000
  S   S50       1.0  0.15493  0.69676  0.02803  1.0000
  H   H185      1.0  0.44895  0.55801  0.12578  1.0000
  Fe  Fe29      1.0  0.18563  0.73132  0.04645  1.0000
  S   S51       1.0  0.20352  0.77399  0.03526  1.0000
  Fe  Fe30      1.0  0.13645  0.68048  0.05983  1.0000
  S   S52       1.0  0.09489  0.64938  0.06877  1.0000
  S   S53       1.0  0.21269  0.71316  0.05084  1.0000
  S   S54       1.0  0.16169  0.65987  0.06466  1.0000
  S   S55       1.0  0.48309  0.90139  0.05853  1.0000
  S   S56       1.0  0.40507  0.53088  0.01631  1.0000
  C   C149      1.0  0.24352  0.81647  0.01561  1.0000
  S   S57       1.0  0.35632  0.53449  0.06278  1.0000
  H   H186      1.0  0.12102  0.57431  0.02660  1.0000
  C   C150      1.0  0.43028  0.58101  0.03324  1.0000
  H   H187      1.0  0.51515  0.81490  0.15637  1.0000
  H   H188      1.0  0.41591  0.57403  0.04582  1.0000
  C   C151      1.0  0.46154  0.53339  0.06953  1.0000
  C   C152      1.0  0.47247  0.90402  0.03283  1.0000
  C   C153      1.0  0.51589  0.83779  0.18416  1.0000
  H   H189      1.0  0.09332  0.59965  0.02323  1.0000
  H   H190      1.0  0.40518  0.83280  0.12965  1.0000
  S   S58       1.0  0.51851  0.86811  0.21973  1.0000
  H   H191      1.0  0.33838  0.51825  0.13933  1.0000
  C   C154      1.0  0.37783  0.54727  0.14631  1.0000
  H   H192      1.0  0.50661  0.82092  0.19424  1.0000
  H   H193      1.0  0.44108  0.58903  0.10497  1.0000
  H   H194      1.0  0.24962  0.76380  0.03420  1.0000
  H   H195      1.0  0.23669  0.81735  0.13348  1.0000
  H   H196      1.0  0.43345  0.86966  0.21059  1.0000
  C   C155      1.0  0.23609  0.79194  0.02525  1.0000
  N   N10       1.0  0.46486  0.57053  0.09434  1.0000
  C   C156      1.0  0.48441  0.57844  0.05768  1.0000
  C   C157      1.0  0.05510  0.66454  0.06278  1.0000
  C   C158      1.0  0.06204  0.64516  0.06942  1.0000
  C   C159      1.0  0.04213  0.62105  0.07655  1.0000
  H   H197      1.0  0.07014  0.68322  0.05733  1.0000
  H   H198      1.0  0.04724  0.60596  0.08185  1.0000
  C   C160      1.0  0.44660  0.58192  0.09012  1.0000
  C   C161      1.0  0.20786  0.72008  0.17775  1.0000
  C   C162      1.0  0.19564  0.72679  0.16121  1.0000
  C   C163      1.0  0.19672  0.71869  0.14019  1.0000
  C   C164      1.0  0.20976  0.70351  0.13566  1.0000
  C   C165      1.0  0.22209  0.69697  0.15218  1.0000
  C   C166      1.0  0.22120  0.70524  0.17315  1.0000
  H   H199      1.0  0.18552  0.73848  0.16470  1.0000
  H   H200      1.0  0.18771  0.72441  0.12755  1.0000
  H   H201      1.0  0.23232  0.68534  0.14879  1.0000
  H   H202      1.0  0.23063  0.69994  0.18579  1.0000
  C   C167      1.0  0.45954  0.83641  0.03056  1.0000
  H   H203      1.0  0.49821  0.60925  0.09384  1.0000
  H   H204      1.0  0.50439  0.58400  0.10564  1.0000
  C   C168      1.0  0.44318  0.81532  0.20569  1.0000
  S   S59       1.0  0.34546  0.55047  0.21295  1.0000
  H   H205      1.0  0.26753  0.75354  0.15747  1.0000
  C   C169      1.0  0.23532  0.62524  0.03723  1.0000
  H   H206      1.0  0.18218  0.63641  0.17812  1.0000
  S   S60       1.0  0.39043  0.54805  0.12033  1.0000
  H   H207      1.0  0.24510  0.81431  0.17115  1.0000
  C   C170      1.0  0.38535  0.56443  0.18291  1.0000
  C   C171      1.0  0.39465  0.56389  0.16222  1.0000
  H   H208      1.0  0.39847  0.57742  0.19493  1.0000
  H   H209      1.0  0.41500  0.57647  0.15850  1.0000
  H   H210      1.0  0.26000  0.78222  0.18338  1.0000
  H   H211      1.0  0.02337  0.67477  0.05791  1.0000
  H   H212      1.0  0.48689  0.87522  0.14504  1.0000
  H   H213      1.0  0.29487  0.79019  0.02126  1.0000
  H   H214      1.0  0.22802  0.74612  0.09296  1.0000
  H   H215      1.0  0.46351  0.83385  0.04697  1.0000
  N   N11       1.0  0.33550  0.61357  0.18737  1.0000
  C   C172      1.0  0.35405  0.60440  0.17837  1.0000
  C   C173      1.0  0.31916  0.59422  0.20341  1.0000
  C   C174      1.0  0.31832  0.61366  0.16974  1.0000
  C   C175      1.0  0.34878  0.63992  0.19758  1.0000
  C   C176      1.0  0.37634  0.65308  0.20136  1.0000
  C   C177      1.0  0.33391  0.65262  0.20509  1.0000
  C   C178      1.0  0.38801  0.67731  0.21210  1.0000
  C   C179      1.0  0.34581  0.67691  0.21565  1.0000
  C   C180      1.0  0.37278  0.68916  0.21925  1.0000
  H   H216      1.0  0.36607  0.60161  0.19104  1.0000
  H   H217      1.0  0.34357  0.58486  0.17028  1.0000
  H   H218      1.0  0.36733  0.61831  0.16644  1.0000
  H   H219      1.0  0.33122  0.59434  0.21733  1.0000
  H   H220      1.0  0.30991  0.57375  0.19686  1.0000
  H   H221      1.0  0.30314  0.59839  0.20952  1.0000
  H   H222      1.0  0.32960  0.62934  0.15815  1.0000
  H   H223      1.0  0.30947  0.59448  0.16096  1.0000
  H   H224      1.0  0.30151  0.61684  0.17538  1.0000
  H   H225      1.0  0.38931  0.64486  0.19664  1.0000
  H   H226      1.0  0.31281  0.64361  0.20339  1.0000
  H   H227      1.0  0.40896  0.68680  0.21521  1.0000
  H   H228      1.0  0.33385  0.68596  0.22144  1.0000
  H   H229      1.0  0.38192  0.70775  0.22776  1.0000
  N   N12       1.0  0.12504  0.64781  0.13027  1.0000
  C   C181      1.0  0.13470  0.67385  0.12019  1.0000
  C   C182      1.0  0.12993  0.63022  0.11521  1.0000
  C   C183      1.0  0.09619  0.63673  0.13309  1.0000
  C   C184      1.0  0.13816  0.65096  0.15112  1.0000
  C   C185      1.0  0.15589  0.64032  0.15546  1.0000
  C   C186      1.0  0.13404  0.66585  0.16767  1.0000
  H   H230      1.0  0.13213  0.68852  0.13044  1.0000
  H   H231      1.0  0.15591  0.68186  0.11643  1.0000
  H   H232      1.0  0.12424  0.67264  0.10505  1.0000
  H   H233      1.0  0.12311  0.61017  0.12179  1.0000
  H   H234      1.0  0.15115  0.63835  0.11111  1.0000
  H   H235      1.0  0.11942  0.62797  0.09984  1.0000
  H   H236      1.0  0.08575  0.63288  0.11751  1.0000
  H   H237      1.0  0.08834  0.61786  0.14185  1.0000
  H   H238      1.0  0.16106  0.62952  0.14372  1.0000
  H   H239      1.0  0.12159  0.67532  0.16539  1.0000
  N   N13       1.0  0.43014  0.83195  0.20074  1.0000
  C   C187      1.0  0.40182  0.81659  0.20588  1.0000
  H   H240      1.0  0.46488  0.82626  0.20422  1.0000
  H   H241      1.0  0.23278  0.54518  0.04538  1.0000
  H   H242      1.0  0.49534  0.68340  0.05227  1.0000
  H   H243      1.0  0.46514  0.54015  0.11439  1.0000
  C   C188      1.0  0.16361  0.65870  0.19112  1.0000
  C   C189      1.0  0.48943  0.59130  0.10370  1.0000
  H   H244      1.0  0.17394  0.66242  0.20615  1.0000
  H   H245      1.0  0.42026  0.83043  0.03695  1.0000
  H   H246      1.0  0.43592  0.85015  0.23191  1.0000
  H   H247      1.0  0.43629  0.79783  0.19491  1.0000
  H   H248      1.0  0.43243  0.89109  0.04268  1.0000
  C   C190      1.0  0.46119  0.85608  0.17126  1.0000
  H   H249      1.0  0.49419  0.78693  0.07438  1.0000
  H   H250      1.0  0.48156  0.70339  0.06307  1.0000
  H   H251      1.0  0.26150  0.76843  0.08596  1.0000
  C   C191      1.0  0.44597  0.89754  0.02949  1.0000
  H   H252      1.0  0.45113  0.62021  0.04640  1.0000
  C   C192      1.0  0.44104  0.85548  0.21497  1.0000
  C   C193      1.0  0.19128  0.59629  0.04828  1.0000
  H   H253      1.0  0.39270  0.79753  0.19699  1.0000
  C   C194      1.0  0.16824  0.64410  0.17525  1.0000
  C   C195      1.0  0.14665  0.66964  0.18732  1.0000
  C   C196      1.0  0.46676  0.86325  0.15001  1.0000
  N   N14       1.0  0.23941  0.78691  0.10024  1.0000
  C   C197      1.0  0.21207  0.78342  0.09857  1.0000
  C   C198      1.0  0.25743  0.81266  0.09108  1.0000
  C   C199      1.0  0.24109  0.76608  0.08687  1.0000
  C   C200      1.0  0.24631  0.78612  0.12280  1.0000
  C   C201      1.0  0.24333  0.80313  0.13806  1.0000
  C   C202      1.0  0.25593  0.76863  0.13035  1.0000
  C   C203      1.0  0.24834  0.80177  0.15963  1.0000
  C   C204      1.0  0.26118  0.76770  0.15192  1.0000
  C   C205      1.0  0.25700  0.78390  0.16656  1.0000
  H   H254      1.0  0.19813  0.76517  0.10667  1.0000
  H   H255      1.0  0.20966  0.80013  0.10564  1.0000
  H   H256      1.0  0.20559  0.78197  0.08170  1.0000
  H   H257      1.0  0.25599  0.82933  0.09931  1.0000
  H   H258      1.0  0.25301  0.81371  0.07394  1.0000
  H   H259      1.0  0.27822  0.81616  0.09219  1.0000
  H   H260      1.0  0.23494  0.76668  0.07022  1.0000
  C   C206      1.0  0.28802  0.82205  0.00985  1.0000
  H   H261      1.0  0.47750  0.86300  0.18220  1.0000
  C   C207      1.0  0.21628  0.57821  0.02784  1.0000
  Fe  Fe31      1.0  0.36898  0.52090  0.09226  1.0000
  C   C208      1.0  0.19404  0.53128  0.01665  1.0000
  C   C209      1.0  0.47914  0.84243  0.01527  1.0000
  C   C210      1.0  0.42078  0.83927  0.14137  1.0000
  H   H262      1.0  0.25834  0.56851  0.02910  1.0000
  C   C211      1.0  0.05319  0.59291  0.02014  1.0000
  H   H263      1.0  0.21031  0.63807  0.05415  1.0000
  N   N15       1.0  0.21892  0.55615  0.01725  1.0000
  S   S61       1.0  0.25937  0.65150  0.23320  1.0000
  Fe  Fe32      1.0  0.50091  0.83569  0.24424  1.0000
  H   H264      1.0  0.42799  0.56698  0.08280  1.0000
  H   H265      1.0  0.39874  0.81129  0.22299  1.0000
  C   C212      1.0  0.47054  0.56064  0.07407  1.0000
  H   H266      1.0  0.14681  0.62278  0.02940  1.0000
  H   H267      1.0  0.46287  0.86611  0.21455  1.0000
  Fe  Fe33      1.0  0.25218  0.68574  0.24362  1.0000
  C   C213      1.0  0.50044  0.70340  0.05879  1.0000
  C   C214      1.0  0.48889  0.56957  0.03803  1.0000
  H   H268      1.0  0.39074  0.82797  0.20258  1.0000
  N   N16       1.0  0.51565  0.72414  0.04329  1.0000
  H   H269      1.0  0.39465  0.81948  0.16632  1.0000
  C   C215      1.0  0.41501  0.83179  0.16261  1.0000
  H   H270      1.0  0.43905  0.80796  0.22222  1.0000
  H   H271      1.0  0.05492  0.60439  0.03438  1.0000
  C   C216      1.0  0.44660  0.85490  0.13508  1.0000
  C   C217      1.0  0.43519  0.84006  0.17825  1.0000
  H   H272      1.0  0.45108  0.86054  0.11859  1.0000
  H   H273      1.0  0.48155  0.53603  0.01825  1.0000
  H   H274      1.0  0.02812  0.62215  0.03093  1.0000
  H   H275      1.0  0.17317  0.59351  0.05587  1.0000
  S   S62       1.0  0.21072  0.67999  0.24456  1.0000
  H   H276      1.0  0.51187  0.70604  0.07366  1.0000
  C   C218      1.0  0.21220  0.62142  0.04736  1.0000
  S   S63       1.0  0.49487  0.64832  0.01923  1.0000
  C   C219      1.0  0.45018  0.60710  0.03353  1.0000
  C   C220      1.0  0.47030  0.97283  0.00958  1.0000
  C   C221      1.0  0.28942  0.62738  0.24446  1.0000
  C   C222      1.0  0.46889  0.61626  0.01724  1.0000
  H   H277      1.0  0.18731  0.52353  0.03283  1.0000
  H   H278      1.0  0.25595  0.60791  0.02032  1.0000
  H   H279      1.0  0.49103  0.59937  0.05951  1.0000
  H   H280      1.0  0.45056  0.51831  0.08085  1.0000
  C   C223      1.0  0.23753  0.60397  0.02782  1.0000
  C   C224      1.0  0.30994  0.62571  0.25553  1.0000
  H   H281      1.0  0.45506  0.59879  0.07912  1.0000
  C   C225      1.0  0.45260  0.54985  0.11064  1.0000
  H   H282      1.0  0.48261  0.74398  0.05781  1.0000
  C   C226      1.0  0.28531  0.64975  0.24672  1.0000
  H   H283      1.0  0.42246  0.96811  0.01242  1.0000
  H   H284      1.0  0.31670  0.73449  0.24804  1.0000
  H   H285      1.0  0.24175  0.53490  0.02093  1.0000
  H   H286      1.0  0.49420  0.70112  0.01606  1.0000
  C   C227      1.0  0.35157  0.53112  0.15137  1.0000
  H   H287      1.0  0.35537  0.72837  0.23821  1.0000
  S   S64       1.0  0.51948  0.85983  0.06784  1.0000
  C   C228      1.0  0.43517  0.83444  0.02494  1.0000
  C   C229      1.0  0.19308  0.57493  0.03861  1.0000
  C   C230      1.0  0.50952  0.78181  0.06943  1.0000
  C   C231      1.0  0.07533  0.59006  0.01402  1.0000
  H   H288      1.0  0.22928  0.82399  0.01415  1.0000
  C   C232      1.0  0.28061  0.79767  0.01963  1.0000
  C   C233      1.0  0.34221  0.53184  0.17201  1.0000
  C   C234      1.0  0.50316  0.75737  0.05985  1.0000
  H   H289      1.0  0.43287  0.53464  0.10558  1.0000
  H   H290      1.0  0.50962  0.73608  0.01238  1.0000
  H   H291      1.0  0.47775  0.98186  0.02546  1.0000
  C   C235      1.0  0.47916  0.54276  0.03388  1.0000
  C   C236      1.0  0.46561  0.52471  0.04961  1.0000
  H   H292      1.0  0.45463  0.95258  0.01261  1.0000
  H   H293      1.0  0.27657  0.61129  0.23429  1.0000
  C   C237      1.0  0.25486  0.78265  0.02712  1.0000
  H   H294      1.0  0.51043  0.91809  0.01832  1.0000
  C   C238      1.0  0.15259  0.61186  0.01823  1.0000
  H   H295      1.0  0.32177  0.51950  0.17564  1.0000
  H   H296      1.0  0.31301  0.60838  0.25389  1.0000
  C   C239      1.0  0.13792  0.58446  0.01653  1.0000
  C   C240      1.0  0.38328  0.76483  0.25244  1.0000
  C   C241      1.0  0.23879  0.55103  0.02867  1.0000
  C   C242      1.0  0.42896  0.56401  0.01659  1.0000
  H   H297      1.0  0.49896  0.58361  0.02562  1.0000
  C   C243      1.0  0.49919  0.72035  0.02413  1.0000
  C   C244      1.0  0.43667  0.89832  0.00901  1.0000
  C   C245      1.0  0.02853  0.65966  0.06311  1.0000
  H   H298      1.0  0.44436  0.99916  0.02454  1.0000
  S   S65       1.0  0.41019  0.75980  0.24458  1.0000
  H   H299      1.0  0.25145  0.64490  0.03641  1.0000
  C   C246      1.0  0.35805  0.74582  0.24689  1.0000
  C   C247      1.0  0.33607  0.74930  0.25243  1.0000
  Fe  Fe34      1.0  0.45034  0.78835  0.25607  1.0000
  Fe  Fe35      1.0  0.37832  0.51642  0.04473  1.0000
  H   H300      1.0  0.51386  0.01428  0.00892  1.0000
  C   C248      1.0  0.43780  0.98847  0.00911  1.0000
  S   S66       1.0  0.19445  0.65902  0.00861  1.0000
  H   H301      1.0  0.49681  0.76296  0.34156  1.0000
  Fe  Fe36      1.0  0.37549  0.57070  0.29019  1.0000
  H   H302      1.0  0.25061  0.66450  0.33736  1.0000
  C   C249      1.0  0.22957  0.76925  0.49930  1.0000
  H   H303      1.0  0.45598  0.63132  0.31298  1.0000
  C   C250      1.0  0.44263  0.57436  0.37850  1.0000
  H   H304      1.0  0.18080  0.53528  0.48010  1.0000
  S   S67       1.0  0.39596  0.61445  0.29471  1.0000
  H   H305      1.0  0.25992  0.61555  0.28405  1.0000
  S   S68       1.0  0.26195  0.70371  0.27627  1.0000
  H   H306      1.0  0.42249  0.60920  0.33507  1.0000
  C   C251      1.0  0.36643  0.54303  0.34289  1.0000
  Fe  Fe37      1.0  0.22154  0.70085  0.27626  1.0000
  S   S69       1.0  0.19236  0.68125  0.30286  1.0000
  C   C252      1.0  0.47653  0.71638  0.26454  1.0000
  S   S70       1.0  0.46737  0.78001  0.28515  1.0000
  H   H307      1.0  0.48349  0.63052  0.30086  1.0000
  Fe  Fe38      1.0  0.48590  0.82356  0.29145  1.0000
  H   H308      1.0  0.19752  0.60190  0.31787  1.0000
  Fe  Fe39      1.0  0.18642  0.69254  0.42777  1.0000
  S   S71       1.0  0.16259  0.71172  0.44102  1.0000
  S   S72       1.0  0.21589  0.70986  0.40102  1.0000
  Fe  Fe40      1.0  0.17078  0.65356  0.46423  1.0000
  S   S73       1.0  0.14654  0.67039  0.48062  1.0000
  S   S74       1.0  0.17383  0.61655  0.47241  1.0000
  Fe  Fe41      1.0  0.13100  0.67063  0.44781  1.0000
  S   S75       1.0  0.08840  0.65407  0.43609  1.0000
  Fe  Fe42      1.0  0.18029  0.71001  0.47256  1.0000
  H   H309      1.0  0.49942  0.60195  0.33181  1.0000
  S   S76       1.0  0.15385  0.65188  0.43187  1.0000
  S   S77       1.0  0.20549  0.69274  0.45904  1.0000
  Fe  Fe43      1.0  0.37604  0.54111  0.48552  1.0000
  H   H310      1.0  0.20980  0.62453  0.34003  1.0000
  S   S78       1.0  0.39264  0.53522  0.45474  1.0000
  C   C253      1.0  0.22652  0.56996  0.49522  1.0000
  Fe  Fe44      1.0  0.36432  0.61477  0.27394  1.0000
  C   C254      1.0  0.08004  0.55759  0.48089  1.0000
  H   H311      1.0  0.43425  0.57796  0.48169  1.0000
  H   H312      1.0  0.40593  0.80200  0.26836  1.0000
  C   C255      1.0  0.24996  0.62170  0.31676  1.0000
  C   C256      1.0  0.16393  0.60339  0.49782  1.0000
  H   H313      1.0  0.44121  0.67908  0.26366  1.0000
  H   H314      1.0  0.33396  0.68441  0.28194  1.0000
  H   H315      1.0  0.46615  0.72823  0.26458  1.0000
  C   C257      1.0  0.36481  0.52708  0.37912  1.0000
  H   H316      1.0  0.24647  0.74935  0.48012  1.0000
  C   C258      1.0  0.42070  0.81370  0.44266  1.0000
  H   H317      1.0  0.41821  0.72424  0.27424  1.0000
  H   H318      1.0  0.28731  0.59502  0.29363  1.0000
  S   S79       1.0  0.19617  0.74601  0.49485  1.0000
  H   H319      1.0  0.26863  0.67324  0.31285  1.0000
  S   S80       1.0  0.34181  0.57074  0.27168  1.0000
  N   N17       1.0  0.08598  0.57831  0.46483  1.0000
  C   C259      1.0  0.05258  0.63168  0.46920  1.0000
  C   C260      1.0  0.05658  0.63593  0.44736  1.0000
  H   H320      1.0  0.24689  0.62437  0.35118  1.0000
  H   H321      1.0  0.06913  0.64028  0.47994  1.0000
  C   C261      1.0  0.38652  0.78733  0.26383  1.0000
  H   H322      1.0  0.51123  0.99824  0.49848  1.0000
  S   S81       1.0  0.33672  0.53192  0.47177  1.0000
  C   C262      1.0  0.41690  0.59561  0.36680  1.0000
  C   C263      1.0  0.19889  0.69023  0.33001  1.0000
  C   C264      1.0  0.22319  0.70991  0.33685  1.0000
  C   C265      1.0  0.22807  0.71564  0.35867  1.0000
  C   C266      1.0  0.20865  0.70198  0.37381  1.0000
  C   C267      1.0  0.18424  0.68254  0.36696  1.0000
  C   C268      1.0  0.17946  0.67662  0.34514  1.0000
  H   H323      1.0  0.23826  0.72063  0.32534  1.0000
  H   H324      1.0  0.24698  0.73078  0.36384  1.0000
  H   H325      1.0  0.16910  0.67201  0.37846  1.0000
  H   H326      1.0  0.16057  0.66144  0.33996  1.0000
  H   H327      1.0  0.44192  0.88877  0.43759  1.0000
  C   C269      1.0  0.35397  0.55789  0.34998  1.0000
  C   C270      1.0  0.34680  0.55718  0.37151  1.0000
  H   H328      1.0  0.34967  0.56974  0.33886  1.0000
  H   H329      1.0  0.33700  0.56858  0.37682  1.0000
  H   H330      1.0  0.40828  0.80121  0.45565  1.0000
  H   H331      1.0  0.51406  0.67411  0.26375  1.0000
  C   C271      1.0  0.42349  0.58262  0.38248  1.0000
  C   C272      1.0  0.45749  0.85375  0.43242  1.0000
  H   H332      1.0  0.38397  0.88947  0.47996  1.0000
  C   C273      1.0  0.24505  0.53428  0.45706  1.0000
  H   H333      1.0  0.45057  0.58465  0.28877  1.0000
  C   C274      1.0  0.28216  0.59733  0.32721  1.0000
  C   C275      1.0  0.26771  0.53376  0.44905  1.0000
  H   H334      1.0  0.38340  0.70399  0.27441  1.0000
  H   H335      1.0  0.21357  0.57114  0.44269  1.0000
  C   C276      1.0  0.45564  0.83753  0.46763  1.0000
  C   C277      1.0  0.20830  0.62306  0.32245  1.0000
  H   H336      1.0  0.41316  0.57827  0.39754  1.0000
  H   H337      1.0  0.44665  0.85589  0.41852  1.0000
  C   C278      1.0  0.51636  0.86310  0.38218  1.0000
  H   H338      1.0  0.47735  0.56929  0.32189  1.0000
  H   H339      1.0  0.40386  0.69105  0.28420  1.0000
  H   H340      1.0  0.46828  0.84276  0.42675  1.0000
  S   S82       1.0  0.46582  0.83132  0.26342  1.0000
  H   H341      1.0  0.19483  0.74620  0.36057  1.0000
  H   H342      1.0  0.27418  0.60280  0.35973  1.0000
  H   H343      1.0  0.30874  0.55616  0.44193  1.0000
  Fe  Fe45      1.0  0.35216  0.52276  0.44138  1.0000
  C   C279      1.0  0.47601  0.67329  0.26368  1.0000
  C   C280      1.0  0.41302  0.89084  0.45747  1.0000
  H   H344      1.0  0.29467  0.58824  0.33113  1.0000
  H   H345      1.0  0.40353  0.82569  0.48288  1.0000
  C   C281      1.0  0.27660  0.78501  0.49434  1.0000
  C   C282      1.0  0.39199  0.85625  0.48284  1.0000
  N   N18       1.0  0.22359  0.78467  0.42753  1.0000
  C   C283      1.0  0.21374  0.79022  0.44790  1.0000
  C   C284      1.0  0.23565  0.76707  0.43233  1.0000
  C   C285      1.0  0.24430  0.80993  0.41957  1.0000
  C   C286      1.0  0.20292  0.77238  0.41108  1.0000
  C   C287      1.0  0.20906  0.76493  0.39102  1.0000
  C   C288      1.0  0.17643  0.76752  0.41428  1.0000
  C   C289      1.0  0.18979  0.75255  0.37548  1.0000
  C   C290      1.0  0.15730  0.75508  0.39861  1.0000
  C   C291      1.0  0.16394  0.74747  0.37932  1.0000
  H   H346      1.0  0.19828  0.77187  0.45489  1.0000
  H   H347      1.0  0.22955  0.79877  0.46013  1.0000
  H   H348      1.0  0.20567  0.80454  0.44589  1.0000
  H   H349      1.0  0.22054  0.74749  0.43762  1.0000
  H   H350      1.0  0.25071  0.77532  0.44510  1.0000
  H   H351      1.0  0.24560  0.76349  0.41837  1.0000
  H   H352      1.0  0.23586  0.82340  0.41508  1.0000
  H   H353      1.0  0.25982  0.82020  0.43175  1.0000
  H   H354      1.0  0.25432  0.80709  0.40531  1.0000
  H   H355      1.0  0.22866  0.76777  0.38739  1.0000
  H   H356      1.0  0.16975  0.77241  0.42895  1.0000
  S   S83       1.0  0.35031  0.64400  0.28465  1.0000
  H   H357      1.0  0.13706  0.75080  0.40160  1.0000
  C   C292      1.0  0.32585  0.64615  0.26928  1.0000
  C   C293      1.0  0.39514  0.87971  0.47390  1.0000
  C   C294      1.0  0.06145  0.57548  0.45452  1.0000
  C   C295      1.0  0.42922  0.60019  0.34701  1.0000
  S   S84       1.0  0.46005  0.63859  0.26260  1.0000
  H   H358      1.0  0.10901  0.59173  0.43629  1.0000
  H   H359      1.0  0.12193  0.57765  0.45555  1.0000
  H   H360      1.0  0.27179  0.59989  0.46939  1.0000
  H   H361      1.0  0.19780  0.57849  0.46468  1.0000
  C   C296      1.0  0.25045  0.76625  0.49020  1.0000
  H   H362      1.0  0.05121  0.55684  0.44535  1.0000
  C   C297      1.0  0.42490  0.85442  0.45844  1.0000
  H   H363      1.0  0.19576  0.63266  0.31806  1.0000
  H   H364      1.0  0.04751  0.57653  0.46644  1.0000
  S   S85       1.0  0.34278  0.54178  0.41309  1.0000
  H   H365      1.0  0.08763  0.60848  0.48670  1.0000
  C   C298      1.0  0.27790  0.60107  0.30605  1.0000
  H   H366      1.0  0.40737  0.81499  0.43035  1.0000
  C   C299      1.0  0.26995  0.58107  0.46395  1.0000
  H   H367      1.0  0.46670  0.82672  0.46221  1.0000
  S   S86       1.0  0.49491  0.91421  0.46784  1.0000
  H   H368      1.0  0.29256  0.78243  0.48720  1.0000
  H   H369      1.0  0.47031  0.85716  0.47349  1.0000
  H   H370      1.0  0.41588  0.90945  0.45092  1.0000
  Fe  Fe46      1.0  0.50223  0.78848  0.26491  1.0000
  N   N19       1.0  0.46172  0.59740  0.32127  1.0000
  C   C300      1.0  0.47193  0.62564  0.31587  1.0000
  C   C301      1.0  0.48400  0.59074  0.31980  1.0000
  C   C302      1.0  0.44208  0.58137  0.30506  1.0000
  C   C303      1.0  0.44907  0.59238  0.34245  1.0000
  C   C304      1.0  0.32166  0.66844  0.27150  1.0000
  C   C305      1.0  0.21607  0.57758  0.45964  1.0000
  H   H371      1.0  0.06547  0.59144  0.44286  1.0000
  H   H372      1.0  0.21696  0.64671  0.28562  1.0000
  C   C306      1.0  0.22932  0.63656  0.28878  1.0000
  H   H373      1.0  0.48478  0.63859  0.32871  1.0000
  C   C307      1.0  0.30166  0.67036  0.26006  1.0000
  C   C308      1.0  0.45535  0.57913  0.35882  1.0000
  C   C309      1.0  0.29246  0.58030  0.45585  1.0000
  H   H374      1.0  0.44726  0.56378  0.39066  1.0000
  H   H375      1.0  0.48237  0.60613  0.48327  1.0000
  C   C310      1.0  0.44276  0.59145  0.49489  1.0000
  C   C311      1.0  0.06528  0.53062  0.47520  1.0000
  Fe  Fe47      1.0  0.41611  0.61555  0.26406  1.0000
  H   H376      1.0  0.20101  0.51931  0.48327  1.0000
  H   H377      1.0  0.43354  0.55996  0.30856  1.0000
  H   H378      1.0  0.46969  0.57187  0.35677  1.0000
  C   C312      1.0  0.09940  0.60539  0.47384  1.0000
  H   H379      1.0  0.48111  0.85861  0.36620  1.0000
  N   N20       1.0  0.40060  0.72008  0.30520  1.0000
  C   C313      1.0  0.39042  0.73974  0.30238  1.0000
  C   C314      1.0  0.40175  0.70948  0.28369  1.0000
  C   C315      1.0  0.38175  0.69841  0.31834  1.0000
  C   C316      1.0  0.42655  0.73139  0.31589  1.0000
  C   C317      1.0  0.43531  0.75404  0.32937  1.0000
  C   C318      1.0  0.44353  0.71941  0.31373  1.0000
  C   C319      1.0  0.46039  0.76516  0.33850  1.0000
  C   C320      1.0  0.46860  0.73077  0.32284  1.0000
  C   C321      1.0  0.47711  0.75375  0.33501  1.0000
  H   H380      1.0  0.40524  0.75769  0.29442  1.0000
  H   H381      1.0  0.37240  0.73194  0.29232  1.0000
  H   H382      1.0  0.38464  0.74559  0.31764  1.0000
  H   H383      1.0  0.21887  0.61646  0.28172  1.0000
  H   H384      1.0  0.37825  0.84787  0.49583  1.0000
  C   C322      1.0  0.28233  0.80687  0.50778  1.0000
  H   H385      1.0  0.38063  0.70533  0.33473  1.0000
  H   H386      1.0  0.36166  0.68967  0.31142  1.0000
  H   H387      1.0  0.38741  0.68214  0.31959  1.0000
  H   H388      1.0  0.42364  0.76422  0.33241  1.0000
  H   H389      1.0  0.43795  0.70150  0.30461  1.0000
  H   H390      1.0  0.46727  0.78335  0.34767  1.0000
  H   H391      1.0  0.48174  0.72202  0.32002  1.0000
  S   S87       1.0  0.48111  0.83779  0.32446  1.0000
  N   N21       1.0  0.23429  0.63577  0.31186  1.0000
  H   H392      1.0  0.45508  0.92589  0.48550  1.0000
  S   S88       1.0  0.37566  0.54301  0.31596  1.0000
  C   C323      1.0  0.10339  0.57592  0.44835  1.0000
  H   H393      1.0  0.23168  0.55742  0.50574  1.0000
  H   H394      1.0  0.10257  0.62045  0.46158  1.0000
  H   H395      1.0  0.42533  0.58616  0.30448  1.0000
  H   H396      1.0  0.24247  0.59039  0.49643  1.0000
  H   H397      1.0  0.47285  0.87362  0.43724  1.0000
  H   H398      1.0  0.09398  0.55682  0.43964  1.0000
  C   C324      1.0  0.25485  0.61769  0.33819  1.0000
  C   C325      1.0  0.02697  0.61685  0.47722  1.0000
  C   C326      1.0  0.40660  0.84374  0.47529  1.0000
  C   C327      1.0  0.26204  0.61302  0.30078  1.0000
  N   N22       1.0  0.22186  0.55958  0.47307  1.0000
  C   C328      1.0  0.42785  0.87858  0.44985  1.0000
  H   H399      1.0  0.44379  0.82688  0.48154  1.0000
  H   H400      1.0  0.23813  0.67495  0.31555  1.0000
  C   C329      1.0  0.35222  0.54183  0.38619  1.0000
  H   H401      1.0  0.24785  0.64764  0.27986  1.0000
  C   C330      1.0  0.47883  0.90647  0.49257  1.0000
  C   C331      1.0  0.27062  0.60556  0.34327  1.0000
  N   N23       1.0  0.43953  0.84031  0.45033  1.0000
  H   H402      1.0  0.43097  0.80293  0.43549  1.0000
  H   H403      1.0  0.16407  0.56678  0.48924  1.0000
  C   C332      1.0  0.29131  0.55671  0.44836  1.0000
  H   H404      1.0  0.14897  0.73733  0.36739  1.0000
  C   C333      1.0  0.24857  0.66325  0.31978  1.0000
  C   C334      1.0  0.37175  0.52761  0.35756  1.0000
  H   H405      1.0  0.19235  0.52532  0.45695  1.0000
  C   C335      1.0  0.19805  0.53373  0.47324  1.0000
  H   H406      1.0  0.03738  0.62823  0.41682  1.0000
  C   C336      1.0  0.51738  0.71322  0.26466  1.0000
  H   H407      1.0  0.10146  0.58302  0.50793  1.0000
  C   C337      1.0  0.47000  0.60744  0.49579  1.0000
  C   C338      1.0  0.33918  0.77199  0.26336  1.0000
  C   C339      1.0  0.45929  0.91427  0.49691  1.0000
  C   C340      1.0  0.03461  0.62505  0.43374  1.0000
  H   H408      1.0  0.36687  0.80850  0.27777  1.0000
  C   C341      1.0  0.24550  0.55808  0.46481  1.0000
  H   H409      1.0  0.40138  0.60122  0.36975  1.0000
  C   C342      1.0  0.16114  0.57815  0.50184  1.0000
  H   H410      1.0  0.05814  0.52474  0.45918  1.0000
  H   H411      1.0  0.49350  0.59552  0.30389  1.0000
  C   C343      1.0  0.36444  0.79098  0.26917  1.0000
  C   C344      1.0  0.50345  0.68576  0.26407  1.0000
  H   H412      1.0  0.02411  0.61406  0.49416  1.0000
  C   C345      1.0  0.50412  0.72869  0.26481  1.0000
  S   S89       1.0  0.39819  0.57156  0.26061  1.0000
  H   H413      1.0  0.29911  0.68794  0.26146  1.0000
  H   H414      1.0  0.23181  0.59818  0.46044  1.0000
  H   H415      1.0  0.31092  0.59809  0.45523  1.0000
  H   H416      1.0  0.49618  0.71329  0.49938  1.0000
  H   H417      1.0  0.11921  0.60999  0.48011  1.0000
  C   C346      1.0  0.46243  0.68861  0.26404  1.0000
  H   H418      1.0  0.50108  0.69534  0.46390  1.0000
  S   S90       1.0  0.31161  0.77675  0.26949  1.0000
  C   C347      1.0  0.50395  0.84627  0.34577  1.0000
  C   C348      1.0  0.08950  0.56323  0.50216  1.0000
  C   C349      1.0  0.51530  0.71408  0.50399  1.0000
  C   C350      1.0  0.49874  0.85610  0.36488  1.0000
  H   H419      1.0  0.51314  0.67642  0.47888  1.0000
  H   H420      1.0  0.49955  0.88572  0.50445  1.0000
  C   C351      1.0  0.48450  0.89184  0.50760  1.0000
  H   H421      1.0  0.25010  0.52792  0.50077  1.0000
  H   H422      1.0  0.51726  0.75807  0.49431  1.0000
  H   H423      1.0  0.20874  0.57037  0.50218  1.0000
  H   H424      1.0  0.50146  0.51614  0.50081  1.0000
  H   H425      1.0  0.51228  0.87094  0.39667  1.0000
  S   S91       1.0  0.23428  0.74078  0.26201  1.0000
  H   H426      1.0  0.38135  0.51602  0.35221  1.0000
  C   C352      1.0  0.51914  0.69550  0.47065  1.0000
  Fe  Fe48      1.0  0.27407  0.74184  0.25949  1.0000
  H   H427      1.0  0.37875  0.56910  0.73270  1.0000
  Fe  Fe49      1.0  0.20592  0.57202  0.74790  1.0000
  C   C353      1.0  0.26831  0.55388  0.57549  1.0000
  H   H428      1.0  0.35698  0.98046  0.59837  1.0000
  H   H429      1.0  0.33598  0.68068  0.73501  1.0000
  H   H430      1.0  0.28017  0.55441  0.68296  1.0000
  S   S92       1.0  0.23730  0.61368  0.74504  1.0000
  H   H431      1.0  0.12919  0.54841  0.63410  1.0000
  C   C354      1.0  0.40681  0.76922  0.74687  1.0000
  H   H432      1.0  0.33894  0.91801  0.70115  1.0000
  Fe  Fe50      1.0  0.49512  0.69316  0.74290  1.0000
  Fe  Fe51      1.0  0.33804  0.86170  0.53757  1.0000
  S   S93       1.0  0.35749  0.84862  0.56250  1.0000
  H   H433      1.0  0.51056  0.69503  0.51187  1.0000
  Fe  Fe52      1.0  0.36610  0.91936  0.55507  1.0000
  S   S94       1.0  0.38692  0.90924  0.58108  1.0000
  S   S95       1.0  0.36874  0.96021  0.54953  1.0000
  Fe  Fe53      1.0  0.39419  0.88529  0.55565  1.0000
  S   S96       1.0  0.43182  0.88149  0.55430  1.0000
  Fe  Fe54      1.0  0.34824  0.87346  0.58558  1.0000
  S   S97       1.0  0.32629  0.85327  0.61544  1.0000
  S   S98       1.0  0.37578  0.89730  0.52922  1.0000
  S   S99       1.0  0.32646  0.88469  0.56112  1.0000
  H   H434      1.0  0.32669  0.70687  0.73281  1.0000
  C   C355      1.0  0.16101  0.53116  0.68232  1.0000
  S   S100      1.0  0.13992  0.56768  0.56360  1.0000
  C   C356      1.0  0.15423  0.56733  0.52210  1.0000
  H   H435      1.0  0.39760  0.65384  0.74113  1.0000
  S   S101      1.0  0.33477  0.80052  0.72797  1.0000
  C   C357      1.0  0.34578  0.56677  0.55721  1.0000
  Fe  Fe55      1.0  0.35343  0.84330  0.73631  1.0000
  S   S102      1.0  0.36644  0.87536  0.71123  1.0000
  C   C358      1.0  0.25097  0.52753  0.57865  1.0000
  C   C359      1.0  0.50676  0.68453  0.64319  1.0000
  C   C360      1.0  0.46522  0.62652  0.52908  1.0000
  H   H436      1.0  0.22523  0.66683  0.75762  1.0000
  H   H437      1.0  0.47452  0.67190  0.69093  1.0000
  H   H438      1.0  0.42555  0.61222  0.54048  1.0000
  H   H439      1.0  0.47380  0.63995  0.54233  1.0000
  C   C361      1.0  0.33881  0.85927  0.64169  1.0000
  C   C362      1.0  0.36223  0.88129  0.64712  1.0000
  C   C363      1.0  0.37057  0.88594  0.66848  1.0000
  C   C364      1.0  0.35585  0.86842  0.68447  1.0000
  C   C365      1.0  0.33282  0.84607  0.67890  1.0000
  C   C366      1.0  0.32424  0.84167  0.65764  1.0000
  H   H440      1.0  0.37366  0.89496  0.63499  1.0000
  H   H441      1.0  0.38841  0.90328  0.67267  1.0000
  H   H442      1.0  0.32127  0.83250  0.69108  1.0000
  H   H443      1.0  0.30608  0.82461  0.65362  1.0000
  C   C367      1.0  0.14931  0.58142  0.53832  1.0000
  C   C368      1.0  0.15891  0.61752  0.51399  1.0000
  S   S103      1.0  0.18677  0.53626  0.57277  1.0000
  C   C369      1.0  0.27524  0.55254  0.70016  1.0000
  Fe  Fe56      1.0  0.36568  0.79809  0.74819  1.0000
  H   H444      1.0  0.26063  0.72031  0.52614  1.0000
  H   H445      1.0  0.39577  0.60921  0.71123  1.0000
  H   H446      1.0  0.16102  0.63703  0.51101  1.0000
  C   C370      1.0  0.44489  0.90685  0.51586  1.0000
  C   C371      1.0  0.16605  0.52490  0.66161  1.0000
  C   C372      1.0  0.45005  0.89167  0.53065  1.0000
  S   S104      1.0  0.38324  0.77405  0.73237  1.0000
  H   H447      1.0  0.15666  0.60542  0.59931  1.0000
  H   H448      1.0  0.19714  0.73589  0.54551  1.0000
  H   H449      1.0  0.31127  0.88584  0.67414  1.0000
  C   C373      1.0  0.39286  0.99216  0.55767  1.0000
  C   C374      1.0  0.19182  0.53186  0.65521  1.0000
  H   H450      1.0  0.46657  0.66068  0.65243  1.0000
  H   H451      1.0  0.26535  0.82699  0.52665  1.0000
  C   C375      1.0  0.29829  0.54134  0.55577  1.0000
  C   C376      1.0  0.18162  0.54460  0.69681  1.0000
  C   C377      1.0  0.33839  0.55607  0.72325  1.0000
  S   S105      1.0  0.27052  0.76319  0.75506  1.0000
  N   N24       1.0  0.34041  0.94739  0.61968  1.0000
  C   C378      1.0  0.24607  0.70924  0.75609  1.0000
  H   H452      1.0  0.37159  0.93716  0.61332  1.0000
  H   H453      1.0  0.31421  0.94639  0.59461  1.0000
  H   H454      1.0  0.30430  0.58146  0.56200  1.0000
  H   H455      1.0  0.36739  0.97877  0.65508  1.0000
  H   H456      1.0  0.21927  0.79388  0.51959  1.0000
  H   H457      1.0  0.34564  0.58576  0.56111  1.0000
  H   H458      1.0  0.33947  0.91102  0.60817  1.0000
  H   H459      1.0  0.22343  0.56245  0.70124  1.0000
  C   C379      1.0  0.32335  0.91388  0.64871  1.0000
  H   H460      1.0  0.40872  0.97929  0.58343  1.0000
  H   H461      1.0  0.44338  0.73585  0.74289  1.0000
  S   S106      1.0  0.39235  0.57395  0.50994  1.0000
  C   C380      1.0  0.48128  0.62491  0.51291  1.0000
  H   H462      1.0  0.29474  0.51936  0.68702  1.0000
  H   H463      1.0  0.45553  0.87321  0.61923  1.0000
  H   H464      1.0  0.21395  0.71062  0.52378  1.0000
  H   H465      1.0  0.30391  0.94979  0.62108  1.0000
  H   H466      1.0  0.17017  0.56939  0.60039  1.0000
  H   H467      1.0  0.35571  0.65116  0.72790  1.0000
  H   H468      1.0  0.23243  0.55102  0.66482  1.0000
  C   C381      1.0  0.28713  0.51742  0.70354  1.0000
  C   C382      1.0  0.23525  0.79126  0.51254  1.0000
  H   H469      1.0  0.14100  0.52546  0.68720  1.0000
  C   C383      1.0  0.29161  0.56077  0.56420  1.0000
  H   H470      1.0  0.30082  0.91866  0.61147  1.0000
  H   H471      1.0  0.14748  0.61734  0.54673  1.0000
  S   S107      1.0  0.51541  0.64495  0.51332  1.0000
  H   H472      1.0  0.23797  0.71016  0.74079  1.0000
  S   S108      1.0  0.30212  0.61546  0.73622  1.0000
  C   C384      1.0  0.35423  0.95042  0.67938  1.0000
  H   H473      1.0  0.18498  0.62527  0.61483  1.0000
  C   C385      1.0  0.47010  0.88444  0.52657  1.0000
  C   C386      1.0  0.36530  0.57302  0.72294  1.0000
  H   H474      1.0  0.36647  0.96439  0.69134  1.0000
  N   N25       1.0  0.32308  0.54920  0.54384  1.0000
  H   H475      1.0  0.15233  0.54791  0.52507  1.0000
  C   C387      1.0  0.31367  0.94023  0.61144  1.0000
  C   C388      1.0  0.20741  0.55182  0.69033  1.0000
  C   C389      1.0  0.35167  0.93269  0.60732  1.0000
  C   C390      1.0  0.33861  0.92436  0.68501  1.0000
  H   H476      1.0  0.32165  0.58219  0.52827  1.0000
  C   C391      1.0  0.33921  0.94022  0.64233  1.0000
  C   C392      1.0  0.37497  0.59572  0.71084  1.0000
  C   C393      1.0  0.43791  0.61080  0.52800  1.0000
  H   H477      1.0  0.17477  0.55763  0.62548  1.0000
  H   H478      1.0  0.31853  0.59146  0.69071  1.0000
  C   C394      1.0  0.15140  0.60643  0.53422  1.0000
  H   H479      1.0  0.35941  0.71426  0.74002  1.0000
  H   H480      1.0  0.37781  0.98230  0.61983  1.0000
  H   H481      1.0  0.34614  0.55717  0.57241  1.0000
  H   H482      1.0  0.12682  0.56143  0.60901  1.0000
  C   C395      1.0  0.35544  0.63769  0.73993  1.0000
  H   H483      1.0  0.33196  0.53883  0.73300  1.0000
  Fe  Fe57      1.0  0.14617  0.53170  0.56841  1.0000
  C   C396      1.0  0.32777  0.52662  0.53702  1.0000
  H   H484      1.0  0.41161  0.74503  0.72233  1.0000
  C   C397      1.0  0.35459  0.95840  0.65838  1.0000
  C   C398      1.0  0.41744  0.75344  0.73808  1.0000
  H   H485      1.0  0.31179  0.89867  0.63735  1.0000
  C   C399      1.0  0.32298  0.90622  0.66976  1.0000
  N   N26       1.0  0.27855  0.78679  0.57771  1.0000
  C   C400      1.0  0.26693  0.78334  0.59928  1.0000
  C   C401      1.0  0.30506  0.78823  0.58007  1.0000
  C   C402      1.0  0.28194  0.81228  0.56929  1.0000
  C   C403      1.0  0.26106  0.76532  0.56325  1.0000
  C   C404      1.0  0.27019  0.75063  0.55016  1.0000
  C   C405      1.0  0.23418  0.75936  0.56121  1.0000
  C   C406      1.0  0.25321  0.73090  0.53634  1.0000
  C   C407      1.0  0.21740  0.73954  0.54739  1.0000
  C   C408      1.0  0.22687  0.72531  0.53503  1.0000
  H   H486      1.0  0.24877  0.78587  0.59964  1.0000
  H   H487      1.0  0.26216  0.76350  0.60554  1.0000
  H   H488      1.0  0.28060  0.79825  0.61080  1.0000
  H   H489      1.0  0.30387  0.76940  0.58598  1.0000
  H   H490      1.0  0.31744  0.80400  0.59156  1.0000
  H   H491      1.0  0.31605  0.79321  0.56481  1.0000
  H   H492      1.0  0.29413  0.82895  0.58004  1.0000
  H   H493      1.0  0.29191  0.81625  0.55361  1.0000
  H   H494      1.0  0.26292  0.81289  0.56710  1.0000
  H   H495      1.0  0.29045  0.75432  0.54994  1.0000
  H   H496      1.0  0.22605  0.77051  0.56978  1.0000
  C   C409      1.0  0.08417  0.54311  0.51673  1.0000
  S   S109      1.0  0.50039  0.67515  0.61598  1.0000
  C   C410      1.0  0.40945  0.99609  0.57511  1.0000
  N   N27       1.0  0.41179  0.83642  0.68243  1.0000
  C   C411      1.0  0.38509  0.82026  0.69096  1.0000
  C   C412      1.0  0.42715  0.82162  0.68610  1.0000
  C   C413      1.0  0.42367  0.86132  0.69493  1.0000
  C   C414      1.0  0.41198  0.84252  0.65960  1.0000
  C   C415      1.0  0.38864  0.83597  0.64770  1.0000
  C   C416      1.0  0.43614  0.85627  0.64872  1.0000
  C   C417      1.0  0.38963  0.84262  0.62627  1.0000
  C   C418      1.0  0.43688  0.86272  0.62727  1.0000
  C   C419      1.0  0.41367  0.85592  0.61607  1.0000
  H   H497      1.0  0.37497  0.80094  0.68257  1.0000
  H   H498      1.0  0.38580  0.81596  0.70805  1.0000
  H   H499      1.0  0.37273  0.83067  0.69021  1.0000
  H   H500      1.0  0.41965  0.80345  0.67606  1.0000
  H   H501      1.0  0.42586  0.81528  0.70297  1.0000
  H   H502      1.0  0.44837  0.83340  0.68275  1.0000
  H   H503      1.0  0.41287  0.87316  0.69228  1.0000
  H   H504      1.0  0.42304  0.85761  0.71232  1.0000
  H   H505      1.0  0.44454  0.87377  0.69074  1.0000
  H   H506      1.0  0.36934  0.82606  0.65464  1.0000
  H   H507      1.0  0.45467  0.86237  0.65681  1.0000
  H   H508      1.0  0.37162  0.83776  0.61758  1.0000
  C   C420      1.0  0.35777  0.60166  0.69908  1.0000
  H   H509      1.0  0.41436  0.86114  0.59946  1.0000
  N   N28       1.0  0.16083  0.58678  0.62769  1.0000
  C   C421      1.0  0.17665  0.57540  0.61707  1.0000
  C   C422      1.0  0.13284  0.56698  0.62589  1.0000
  C   C423      1.0  0.16408  0.61045  0.61595  1.0000
  C   C424      1.0  0.16987  0.59424  0.64991  1.0000
  C   C425      1.0  0.15284  0.58456  0.66765  1.0000
  C   C426      1.0  0.19650  0.61203  0.65430  1.0000
  C   C427      1.0  0.16212  0.59203  0.68839  1.0000
  C   C428      1.0  0.20560  0.61912  0.67514  1.0000
  C   C429      1.0  0.18844  0.60906  0.69214  1.0000
  H   H510      1.0  0.13239  0.57066  0.66608  1.0000
  H   H511      1.0  0.11947  0.57460  0.63248  1.0000
  H   H512      1.0  0.36537  0.61982  0.69025  1.0000
  C   C430      1.0  0.26141  0.80997  0.51676  1.0000
  H   H513      1.0  0.15313  0.62008  0.62383  1.0000
  C   C431      1.0  0.28241  0.53994  0.73468  1.0000
  H   H514      1.0  0.21057  0.62036  0.64167  1.0000
  C   C432      1.0  0.33856  0.69965  0.74222  1.0000
  H   H515      1.0  0.22613  0.63217  0.67820  1.0000
  H   H516      1.0  0.19560  0.61391  0.70833  1.0000
  C   C433      1.0  0.33075  0.58506  0.69951  1.0000
  H   H517      1.0  0.19785  0.58924  0.61631  1.0000
  N   N29       1.0  0.29175  0.54339  0.71239  1.0000
  S   S110      1.0  0.17436  0.55246  0.72263  1.0000
  H   H518      1.0  0.14910  0.58366  0.70179  1.0000
  C   C434      1.0  0.35686  0.97585  0.61558  1.0000
  C   C435      1.0  0.21244  0.54538  0.66967  1.0000
  H   H519      1.0  0.35350  0.93785  0.59020  1.0000
  C   C436      1.0  0.49053  0.68030  0.67975  1.0000
  C   C437      1.0  0.48610  0.67395  0.65792  1.0000
  H   H520      1.0  0.34950  0.98823  0.62438  1.0000
  H   H521      1.0  0.09194  0.54786  0.53279  1.0000
  C   C438      1.0  0.37922  0.63921  0.74738  1.0000
  C   C439      1.0  0.06941  0.51690  0.51066  1.0000
  H   H522      1.0  0.47415  0.87269  0.53796  1.0000
  C   C440      1.0  0.42664  0.59318  0.51095  1.0000
  C   C441      1.0  0.32253  0.56353  0.52449  1.0000
  H   H523      1.0  0.42991  0.91302  0.51902  1.0000
  H   H524      1.0  0.26101  0.52650  0.73578  1.0000
  S   S111      1.0  0.45484  0.69122  0.74474  1.0000
  H   H525      1.0  0.23283  0.52220  0.58732  1.0000
  C   C442      1.0  0.51578  0.69717  0.68709  1.0000
  C   C443      1.0  0.32020  0.56166  0.71168  1.0000
  H   H526      1.0  0.36483  0.57203  0.54902  1.0000
  H   H527      1.0  0.34041  0.56887  0.51461  1.0000
  S   S112      1.0  0.23343  0.55513  0.75595  1.0000
  S   S113      1.0  0.19925  0.52418  0.62936  1.0000
  H   H528      1.0  0.27740  0.57184  0.70633  1.0000
  C   C444      1.0  0.43532  0.74808  0.74975  1.0000
  H   H529      1.0  0.30524  0.55129  0.51438  1.0000
  H   H530      1.0  0.25395  0.53861  0.70133  1.0000
  H   H531      1.0  0.38134  0.01166  0.53373  1.0000
  H   H532      1.0  0.26349  0.56896  0.58176  1.0000
  H   H533      1.0  0.51617  0.63715  0.66074  1.0000
  H   H534      1.0  0.34681  0.53321  0.52855  1.0000
  H   H535      1.0  0.29046  0.68610  0.75697  1.0000
  S   S114      1.0  0.38613  0.84140  0.75478  1.0000
  H   H536      1.0  0.29242  0.53157  0.74497  1.0000
  H   H537      1.0  0.49956  0.63575  0.69632  1.0000
  S   S115      1.0  0.31585  0.82992  0.51223  1.0000
  H   H538      1.0  0.28581  0.55916  0.74184  1.0000
  C   C445      1.0  0.33144  0.61840  0.74756  1.0000
  Fe  Fe58      1.0  0.26453  0.59720  0.75493  1.0000
  C   C446      1.0  0.39416  0.01438  0.54714  1.0000
  H   H539      1.0  0.29758  0.65877  0.75822  1.0000
  Fe  Fe59      1.0  0.31245  0.79422  0.75833  1.0000
  N   N30       1.0  0.51694  0.75755  0.83703  1.0000
  C   C447      1.0  0.02918  0.56584  0.99010  1.0000
  C   C448      1.0  0.41170  0.00837  0.94490  1.0000
  C   C449      1.0  0.51897  0.68281  0.84544  1.0000
  H   H540      1.0  0.49785  0.71677  0.82838  1.0000
  C   C450      1.0  0.05142  0.56292  0.98426  1.0000
  H   H541      1.0  0.05093  0.55130  0.97033  1.0000
  H   H542      1.0  0.49523  0.77409  0.85472  1.0000
  H   H543      1.0  0.48311  0.81303  0.96921  1.0000
  C   C451      1.0  0.30222  0.67817  0.76572  1.0000
  C   C452      1.0  0.51101  0.68150  0.88999  1.0000
  S   S116      1.0  0.14556  0.51648  0.89682  1.0000
  H   H544      1.0  0.41146  0.83749  0.99977  1.0000
  H   H545      1.0  0.22768  0.54597  0.98603  1.0000
  C   C453      1.0  0.43027  0.83844  0.00399  1.0000
  C   C454      1.0  0.26338  0.73260  0.76645  1.0000
  N   N31       1.0  0.33077  0.69629  0.76489  1.0000
  H   H546      1.0  0.50643  0.86654  0.94558  1.0000
  H   H547      1.0  0.34701  0.92761  0.90594  1.0000
  S   S117      1.0  0.50566  0.68341  0.91763  1.0000
  H   H548      1.0  0.35506  0.73777  0.77150  1.0000
  C   C455      1.0  0.17491  0.62495  0.00571  1.0000
  C   C456      1.0  0.50111  0.83042  0.97484  1.0000
  H   H549      1.0  0.50151  0.74845  0.87880  1.0000
  H   H550      1.0  0.24792  0.57902  0.99377  1.0000
  C   C457      1.0  0.37237  0.00286  0.90156  1.0000
  H   H551      1.0  0.43985  0.98317  0.96716  1.0000
  H   H552      1.0  0.35389  0.99991  0.93194  1.0000
  C   C458      1.0  0.02948  0.58119  0.00821  1.0000
  H   H553      1.0  0.44490  0.84862  0.97291  1.0000
  H   H554      1.0  0.17815  0.53397  0.00849  1.0000
  S   S118      1.0  0.32818  0.83777  0.76537  1.0000
  H   H555      1.0  0.09171  0.57293  0.99143  1.0000
  H   H556      1.0  0.33028  0.72075  0.79104  1.0000
  C   C459      1.0  0.23887  0.68472  0.76558  1.0000
  H   H557      1.0  0.22969  0.58495  0.83952  1.0000
  C   C460      1.0  0.46719  0.59944  0.00033  1.0000
  H   H558      1.0  0.48084  0.72558  0.84837  1.0000
  H   H559      1.0  0.48537  0.87801  0.95838  1.0000
  C   C461      1.0  0.23999  0.60668  0.84128  1.0000
  H   H560      1.0  0.27469  0.85026  0.00062  1.0000
  C   C462      1.0  0.49282  0.73254  0.83376  1.0000
  S   S119      1.0  0.32107  0.83988  0.00096  1.0000
  S   S120      1.0  0.51070  0.72094  0.77088  1.0000
  H   H561      1.0  0.22270  0.51699  0.86028  1.0000
  H   H562      1.0  0.42761  0.99788  0.00019  1.0000
  C   C463      1.0  0.33468  0.72207  0.77374  1.0000
  C   C464      1.0  0.16770  0.52203  0.87536  1.0000
  H   H563      1.0  0.47994  0.73431  0.82136  1.0000
  C   C465      1.0  0.18042  0.53718  0.83892  1.0000
  C   C466      1.0  0.30478  0.80713  0.94165  1.0000
  H   H564      1.0  0.28641  0.76844  0.96678  1.0000
  H   H565      1.0  0.41601  0.89212  0.00654  1.0000
  C   C467      1.0  0.22760  0.56298  0.99493  1.0000
  N   N32       1.0  0.49623  0.85367  0.97796  1.0000
  C   C468      1.0  0.16339  0.53228  0.85638  1.0000
  H   H566      1.0  0.19747  0.76141  0.97715  1.0000
  H   H567      1.0  0.19268  0.61904  0.86369  1.0000
  S   S121      1.0  0.22401  0.53776  0.81855  1.0000
  H   H568      1.0  0.49917  0.78210  0.82735  1.0000
  H   H569      1.0  0.32172  0.72925  0.76583  1.0000
  C   C469      1.0  0.37907  0.62078  0.76188  1.0000
  H   H570      1.0  0.40622  0.79222  0.77409  1.0000
  C   C470      1.0  0.14513  0.57014  0.00196  1.0000
  S   S122      1.0  0.46449  0.75152  0.78533  1.0000
  H   H571      1.0  0.38420  0.72109  0.77035  1.0000
  H   H572      1.0  0.38005  0.97269  0.84322  1.0000
  H   H573      1.0  0.43614  0.95347  0.97889  1.0000
  C   C471      1.0  0.37476  0.70208  0.77768  1.0000
  C   C472      1.0  0.44726  0.57335  0.00003  1.0000
  H   H574      1.0  0.40905  0.94958  0.88655  1.0000
  H   H575      1.0  0.41029  0.97862  0.85674  1.0000
  C   C473      1.0  0.35765  0.98931  0.91901  1.0000
  H   H576      1.0  0.31789  0.82283  0.93069  1.0000
  H   H577      1.0  0.33787  0.95195  0.93423  1.0000
  H   H578      1.0  0.46668  0.97474  0.96670  1.0000
  H   H579      1.0  0.29486  0.67499  0.78235  1.0000
  N   N33       1.0  0.27798  0.80528  0.94230  1.0000
  H   H580      1.0  0.22919  0.56356  0.92974  1.0000
  C   C474      1.0  0.26927  0.83139  0.00783  1.0000
  C   C475      1.0  0.20207  0.61141  0.85180  1.0000
  C   C476      1.0  0.23424  0.78206  0.96058  1.0000
  C   C477      1.0  0.37813  0.98940  0.88523  1.0000
  C   C478      1.0  0.28088  0.83167  0.94849  1.0000
  C   C479      1.0  0.48982  0.86089  0.95693  1.0000
  Fe  Fe60      1.0  0.23186  0.61759  0.77991  1.0000
  H   H581      1.0  0.24777  0.79936  0.91925  1.0000
  C   C480      1.0  0.36914  0.96170  0.88599  1.0000
  H   H582      1.0  0.30455  0.78854  0.93576  1.0000
  H   H583      1.0  0.17679  0.54498  0.82442  1.0000
  H   H584      1.0  0.23834  0.61501  0.82585  1.0000
  C   C481      1.0  0.35070  0.92572  0.86033  1.0000
  C   C482      1.0  0.35281  0.65316  0.79716  1.0000
  H   H585      1.0  0.37966  0.91992  0.89106  1.0000
  H   H586      1.0  0.14679  0.53650  0.85517  1.0000
  C   C483      1.0  0.26716  0.76750  0.96804  1.0000
  H   H587      1.0  0.18768  0.56246  0.91739  1.0000
  C   C484      1.0  0.24823  0.68358  0.78583  1.0000
  C   C485      1.0  0.48064  0.91365  0.99527  1.0000
  H   H588      1.0  0.38991  0.00123  0.87236  1.0000
  C   C486      1.0  0.39088  0.93455  0.87879  1.0000
  S   S123      1.0  0.40833  0.61981  0.76909  1.0000
  C   C487      1.0  0.49432  0.67755  0.85366  1.0000
  H   H589      1.0  0.28872  0.83699  0.96493  1.0000
  C   C488      1.0  0.45036  0.97448  0.97658  1.0000
  C   C489      1.0  0.20613  0.52129  0.85912  1.0000
  H   H590      1.0  0.33835  0.93406  0.85314  1.0000
  H   H591      1.0  0.48611  0.97036  0.00093  1.0000
  H   H592      1.0  0.21085  0.73118  0.99524  1.0000
  S   S124      1.0  0.19725  0.57757  0.78226  1.0000
  H   H593      1.0  0.47272  0.84418  0.94938  1.0000
  S   S125      1.0  0.48523  0.65771  0.76337  1.0000
  H   H594      1.0  0.20293  0.62176  0.83665  1.0000
  H   H595      1.0  0.33852  0.91143  0.87247  1.0000
  H   H596      1.0  0.19930  0.62076  0.98128  1.0000
  C   C490      1.0  0.26006  0.78511  0.95715  1.0000
  H   H597      1.0  0.26115  0.61242  0.84355  1.0000
  C   C491      1.0  0.25199  0.60257  0.88644  1.0000
  H   H598      1.0  0.39671  0.92377  0.86666  1.0000
  N   N34       1.0  0.46022  0.98839  0.99716  1.0000
  C   C492      1.0  0.35507  0.60174  0.76979  1.0000
  C   C493      1.0  0.26573  0.70690  0.79612  1.0000
  H   H599      1.0  0.31293  0.58630  0.76932  1.0000
  C   C494      1.0  0.21682  0.76290  0.97424  1.0000
  H   H600      1.0  0.18899  0.59017  0.84872  1.0000
  C   C495      1.0  0.07446  0.57509  0.99613  1.0000
  H   H601      1.0  0.34444  0.63388  0.80431  1.0000
  N   N35       1.0  0.22857  0.61575  0.85881  1.0000
  H   H602      1.0  0.31423  0.81209  0.95765  1.0000
  C   C496      1.0  0.43252  0.77488  0.77881  1.0000
  C   C497      1.0  0.33129  0.60090  0.76300  1.0000
  C   C498      1.0  0.24484  0.64446  0.86193  1.0000
  C   C499      1.0  0.35422  0.94857  0.90406  1.0000
  H   H603      1.0  0.25519  0.73500  0.98970  1.0000
  H   H604      1.0  0.23716  0.65205  0.87522  1.0000
  H   H605      1.0  0.27298  0.70614  0.81181  1.0000
  Fe  Fe61      1.0  0.44592  0.65770  0.76713  1.0000
  H   H606      1.0  0.51708  0.83425  0.96317  1.0000
  H   H607      1.0  0.18617  0.58505  0.88569  1.0000
  H   H608      1.0  0.35494  0.58756  0.78112  1.0000
  C   C500      1.0  0.22910  0.57454  0.91583  1.0000
  H   H609      1.0  0.26562  0.64958  0.86560  1.0000
  H   H610      1.0  0.28671  0.74926  0.79452  1.0000
  C   C501      1.0  0.34869  0.96225  0.92030  1.0000
  H   H611      1.0  0.48141  0.60637  0.98764  1.0000
  H   H612      1.0  0.40865  0.99090  0.93594  1.0000
  C   C502      1.0  0.39078  0.96319  0.85136  1.0000
  C   C503      1.0  0.25223  0.58894  0.90470  1.0000
  C   C504      1.0  0.33655  0.66192  0.78689  1.0000
  H   H613      1.0  0.24511  0.65554  0.84734  1.0000
  C   C505      1.0  0.34713  0.68669  0.77666  1.0000
  S   S126      1.0  0.17436  0.52594  0.95709  1.0000
  H   H614      1.0  0.49418  0.92026  0.98210  1.0000
  C   C506      1.0  0.27364  0.73132  0.78630  1.0000
  H   H615      1.0  0.44616  0.56035  0.98699  1.0000
  Fe  Fe62      1.0  0.46989  0.71643  0.77417  1.0000
  H   H616      1.0  0.39252  0.66120  0.80460  1.0000
  C   C507      1.0  0.20189  0.53165  0.84015  1.0000
  C   C508      1.0  0.49053  0.67737  0.87578  1.0000
  H   H617      1.0  0.31587  0.64858  0.78668  1.0000
  H   H618      1.0  0.39472  0.95116  0.83905  1.0000
  C   C509      1.0  0.44282  0.75870  0.77017  1.0000
  C   C510      1.0  0.20518  0.58719  0.89046  1.0000
  H   H619      1.0  0.21438  0.56923  0.98634  1.0000
  C   C511      1.0  0.41440  0.78003  0.76722  1.0000
  H   H620      1.0  0.27042  0.61337  0.87831  1.0000
  S   S127      1.0  0.26136  0.60393  0.78952  1.0000
  Fe  Fe63      1.0  0.22707  0.56359  0.79017  1.0000
  H   H621      1.0  0.26213  0.83303  0.94784  1.0000
  Fe  Fe64      1.0  0.49748  0.68545  0.79160  1.0000
  S   S128      1.0  0.23751  0.65349  0.79914  1.0000
  C   C512      1.0  0.45396  0.90620  0.99181  1.0000
  S   S129      1.0  0.45754  0.68274  0.79669  1.0000
  Fe  Fe65      1.0  0.35964  0.83264  0.78344  1.0000
  S   S130      1.0  0.37981  0.85266  0.81457  1.0000
  S   S131      1.0  0.34210  0.78867  0.77816  1.0000
  Fe  Fe66      1.0  0.35534  0.88859  0.93242  1.0000
  S   S132      1.0  0.33256  0.89837  0.95744  1.0000
  S   S133      1.0  0.33273  0.87109  0.90171  1.0000
  Fe  Fe67      1.0  0.40131  0.90159  0.96274  1.0000
  S   S134      1.0  0.38136  0.91105  0.98974  1.0000
  S   S135      1.0  0.44276  0.90665  0.96584  1.0000
  Fe  Fe68      1.0  0.34470  0.87505  0.97954  1.0000
  S   S136      1.0  0.12641  0.53587  0.00058  1.0000
  Fe  Fe69      1.0  0.37134  0.93357  0.96522  1.0000
  S   S137      1.0  0.37802  0.97479  0.97542  1.0000
  S   S138      1.0  0.36596  0.86404  0.95415  1.0000
  S   S139      1.0  0.39292  0.92560  0.93851  1.0000
  C   C513      1.0  0.37992  0.66853  0.79737  1.0000
  C   C514      1.0  0.18209  0.61064  0.99105  1.0000
  H   H622      1.0  0.27039  0.58924  0.91008  1.0000
  H   H623      1.0  0.50730  0.82471  0.98984  1.0000
  C   C515      1.0  0.16710  0.58325  0.98907  1.0000
  N   N36       1.0  0.37534  0.94677  0.86933  1.0000
  H   H624      1.0  0.22731  0.79454  0.95282  1.0000
  H   H625      1.0  0.43827  0.78313  0.79461  1.0000
  H   H626      1.0  0.17257  0.57235  0.97764  1.0000
  C   C516      1.0  0.26702  0.79899  0.92049  1.0000
  C   C517      1.0  0.24940  0.74811  0.98138  1.0000
  H   H627      1.0  0.28034  0.81344  0.90876  1.0000
  C   C518      1.0  0.22837  0.60182  0.87856  1.0000
  H   H628      1.0  0.35465  0.91385  0.84789  1.0000
  H   H629      1.0  0.29465  0.84720  0.93776  1.0000
  C   C519      1.0  0.22433  0.74586  0.98451  1.0000
  C   C520      1.0  0.20573  0.57394  0.90885  1.0000
  C   C521      1.0  0.36568  0.85586  0.83893  1.0000
  C   C522      1.0  0.38183  0.86505  0.85703  1.0000
  C   C523      1.0  0.37184  0.86893  0.87655  1.0000
  C   C524      1.0  0.34564  0.86414  0.87807  1.0000
  C   C525      1.0  0.32939  0.85474  0.86003  1.0000
  C   C526      1.0  0.33931  0.85052  0.84057  1.0000
  H   H630      1.0  0.40223  0.86914  0.85593  1.0000
  H   H631      1.0  0.38455  0.87594  0.89031  1.0000
  H   H632      1.0  0.30907  0.85092  0.86101  1.0000
  H   H633      1.0  0.32667  0.84347  0.82677  1.0000
  H   H634      1.0  0.47159  0.67400  0.88195  1.0000
  H   H635      1.0  0.47820  0.67388  0.84299  1.0000
  C   C527      1.0  0.39086  0.69302  0.78776  1.0000
  H   H636      1.0  0.41199  0.70490  0.78782  1.0000
  H   H637      1.0  0.26404  0.77907  0.91533  1.0000
  C   C528      1.0  0.44988  0.84493  0.98862  1.0000
  H   H638      1.0  0.51802  0.89385  0.98858  1.0000
  C   C529      1.0  0.47512  0.84736  0.99387  1.0000
  C   C530      1.0  0.39939  0.00592  0.96456  1.0000
  H   H639      1.0  0.02158  0.62396  0.00342  1.0000
  C   C531      1.0  0.50927  0.77881  0.84133  1.0000
  C   C532      1.0  0.18921  0.51659  0.87667  1.0000
  Fe  Fe70      1.0  0.56190  0.37687  0.24190  1.0000
  H   H640      1.0  0.66077  0.35775  0.21657  1.0000
  Fe  Fe71      1.0  0.83415  0.49142  0.23771  1.0000
  C   C533      1.0  0.66868  0.11394  0.19863  1.0000
  C   C534      1.0  0.72255  0.35679  0.22319  1.0000
  C   C535      1.0  0.75867  0.50496  0.17791  1.0000
  H   H641      1.0  0.55176  0.33882  0.21172  1.0000
  S   S140      1.0  0.81173  0.45120  0.22361  1.0000
  N   N37       1.0  0.55749  0.30759  0.19690  1.0000
  S   S141      1.0  0.70877  0.27110  0.24051  1.0000
  H   H642      1.0  0.67275  0.11892  0.21534  1.0000
  H   H643      1.0  0.84591  0.47726  0.14818  1.0000
  N   N38       1.0  0.78025  0.51141  0.19350  1.0000
  Fe  Fe72      1.0  0.68665  0.22724  0.23892  1.0000
  S   S142      1.0  0.66746  0.20888  0.20717  1.0000
  H   H644      1.0  0.86330  0.42970  0.04117  1.0000
  Fe  Fe73      1.0  0.66930  0.18186  0.05419  1.0000
  S   S143      1.0  0.67663  0.15308  0.03423  1.0000
  S   S144      1.0  0.64732  0.20319  0.04151  1.0000
  Fe  Fe74      1.0  0.70201  0.17865  0.09123  1.0000
  S   S145      1.0  0.71163  0.14939  0.07360  1.0000
  S   S146      1.0  0.72218  0.19356  0.12318  1.0000
  Fe  Fe75      1.0  0.71845  0.17601  0.04539  1.0000
  S   S147      1.0  0.75259  0.18697  0.02218  1.0000
  Fe  Fe76      1.0  0.66880  0.12921  0.06409  1.0000
  S   S148      1.0  0.63536  0.08702  0.06607  1.0000
  S   S149      1.0  0.71143  0.20612  0.06362  1.0000
  S   S150      1.0  0.65905  0.15726  0.08355  1.0000
  H   H645      1.0  0.75613  0.29092  0.21638  1.0000
  S   S151      1.0  0.57663  0.41183  0.05338  1.0000
  H   H646      1.0  0.69614  0.29600  0.20115  1.0000
  H   H647      1.0  0.90439  0.46604  0.17653  1.0000
  H   H648      1.0  0.85585  0.23855  0.01679  1.0000
  C   C536      1.0  0.58540  0.43260  0.03112  1.0000
  C   C537      1.0  0.61333  0.20054  0.00988  1.0000
  H   H649      1.0  0.97505  0.45259  0.03453  1.0000
  S   S152      1.0  0.73909  0.42941  0.23062  1.0000
  C   C538      1.0  0.89317  0.46845  0.03325  1.0000
  C   C539      1.0  0.87795  0.44136  0.02967  1.0000
  H   H650      1.0  0.89033  0.47761  0.04752  1.0000
  C   C540      1.0  0.70400  0.33173  0.21693  1.0000
  C   C541      1.0  0.60555  0.03309  0.06665  1.0000
  C   C542      1.0  0.63119  0.05393  0.06585  1.0000
  C   C543      1.0  0.65236  0.04787  0.06582  1.0000
  H   H651      1.0  0.59178  0.38928  0.01710  1.0000
  H   H652      1.0  0.58897  0.03742  0.06681  1.0000
  H   H653      1.0  0.67220  0.06354  0.06528  1.0000
  H   H654      1.0  0.79329  0.48492  0.17883  1.0000
  H   H655      1.0  0.76717  0.30719  0.15868  1.0000
  C   C544      1.0  0.91619  0.50974  0.23327  1.0000
  H   H656      1.0  0.78359  0.31861  0.20585  1.0000
  C   C545      1.0  0.53174  0.37589  0.14823  1.0000
  H   H657      1.0  0.87779  0.45462  0.20500  1.0000
  H   H658      1.0  0.68495  0.12992  0.12043  1.0000
  H   H659      1.0  0.72326  0.21732  0.01382  1.0000
  H   H660      1.0  0.72177  0.48625  0.25053  1.0000
  C   C546      1.0  0.52129  0.50185  0.02474  1.0000
  C   C547      1.0  0.70707  0.19920  0.14606  1.0000
  C   C548      1.0  0.68072  0.19417  0.14602  1.0000
  C   C549      1.0  0.66902  0.19745  0.16483  1.0000
  C   C550      1.0  0.68354  0.20615  0.18379  1.0000
  C   C551      1.0  0.71005  0.21174  0.18372  1.0000
  C   C552      1.0  0.72169  0.20817  0.16496  1.0000
  H   H661      1.0  0.66923  0.18735  0.13162  1.0000
  H   H662      1.0  0.64850  0.19308  0.16475  1.0000
  H   H663      1.0  0.72141  0.21825  0.19824  1.0000
  H   H664      1.0  0.74205  0.21199  0.16520  1.0000
  H   H665      1.0  0.54562  0.27219  0.21527  1.0000
  H   H666      1.0  0.77056  0.24562  0.02265  1.0000
  C   C553      1.0  0.58686  0.14576  0.06032  1.0000
  H   H667      1.0  0.74155  0.48568  0.18102  1.0000
  C   C554      1.0  0.54761  0.38739  0.16624  1.0000
  H   H668      1.0  0.62750  0.15072  0.02322  1.0000
  H   H669      1.0  0.56595  0.40504  0.16447  1.0000
  C   C555      1.0  0.74013  0.50089  0.24407  1.0000
  C   C556      1.0  0.60147  0.34783  0.19700  1.0000
  H   H670      1.0  0.68401  0.40602  0.22341  1.0000
  H   H671      1.0  0.87019  0.48045  0.21384  1.0000
  H   H672      1.0  0.54374  0.08228  0.05003  1.0000
  H   H673      1.0  0.64680  0.40105  0.24617  1.0000
  H   H674      1.0  0.77947  0.33801  0.17236  1.0000
  S   S153      1.0  0.56082  0.39185  0.20852  1.0000
  H   H675      1.0  0.58051  0.17922  0.05549  1.0000
  C   C557      1.0  0.57134  0.15797  0.05481  1.0000
  C   C558      1.0  0.91690  0.50297  0.19426  1.0000
  C   C559      1.0  0.57061  0.50312  0.02107  1.0000
  H   H676      1.0  0.59281  0.35953  0.19037  1.0000
  C   C560      1.0  0.83730  0.35985  0.24351  1.0000
  C   C561      1.0  0.78255  0.24090  0.01181  1.0000
  H   H677      1.0  0.96590  0.40883  0.01675  1.0000
  C   C562      1.0  0.85056  0.49825  0.17783  1.0000
  H   H678      1.0  0.92322  0.46068  0.20751  1.0000
  N   N39       1.0  0.80098  0.22056  0.07658  1.0000
  C   C563      1.0  0.79322  0.19221  0.07268  1.0000
  C   C564      1.0  0.81209  0.22721  0.09834  1.0000
  C   C565      1.0  0.77675  0.22398  0.07573  1.0000
  C   C566      1.0  0.82029  0.23821  0.06107  1.0000
  C   C567      1.0  0.82907  0.26584  0.06237  1.0000
  C   C568      1.0  0.83072  0.22882  0.04431  1.0000
  C   C569      1.0  0.84682  0.28289  0.04765  1.0000
  C   C570      1.0  0.84870  0.24612  0.02986  1.0000
  C   C571      1.0  0.85658  0.27303  0.03141  1.0000
  H   H679      1.0  0.81032  0.18788  0.07387  1.0000
  H   H680      1.0  0.77842  0.17946  0.08440  1.0000
  H   H681      1.0  0.78400  0.18568  0.05673  1.0000
  H   H682      1.0  0.83071  0.22549  0.09952  1.0000
  H   H683      1.0  0.79817  0.21395  0.11037  1.0000
  H   H684      1.0  0.81643  0.24757  0.10324  1.0000
  H   H685      1.0  0.76873  0.22064  0.05928  1.0000
  H   H686      1.0  0.76118  0.20999  0.08635  1.0000
  H   H687      1.0  0.78004  0.24396  0.08082  1.0000
  H   H688      1.0  0.82196  0.27444  0.07458  1.0000
  H   H689      1.0  0.82484  0.20817  0.04160  1.0000
  H   H690      1.0  0.85273  0.30384  0.04855  1.0000
  S   S154      1.0  0.84377  0.40996  0.24409  1.0000
  C   C572      1.0  0.55743  0.33978  0.02428  1.0000
  N   N40       1.0  0.65150  0.09518  0.13201  1.0000
  Fe  Fe77      1.0  0.53378  0.38584  0.06039  1.0000
  C   C573      1.0  0.63303  0.10546  0.12529  1.0000
  C   C574      1.0  0.67591  0.10808  0.11933  1.0000
  C   C575      1.0  0.65767  0.10111  0.15487  1.0000
  C   C576      1.0  0.66971  0.12758  0.16230  1.0000
  C   C577      1.0  0.65159  0.08124  0.17037  1.0000
  S   S155      1.0  0.71739  0.22130  0.25684  1.0000
  H   H691      1.0  0.83343  0.32053  0.24308  1.0000
  C   C578      1.0  0.55127  0.10342  0.05157  1.0000
  H   H692      1.0  0.56984  0.33016  0.02875  1.0000
  H   H693      1.0  0.67215  0.10290  0.10213  1.0000
  H   H694      1.0  0.61483  0.09700  0.13502  1.0000
  C   C579      1.0  0.55099  0.48387  0.03332  1.0000
  C   C580      1.0  0.91231  0.48717  0.17563  1.0000
  H   H695      1.0  0.62010  0.05570  0.13494  1.0000
  H   H696      1.0  0.97573  0.47856  0.01820  1.0000
  H   H697      1.0  0.67500  0.14371  0.15146  1.0000
  H   H698      1.0  0.64252  0.06055  0.16631  1.0000
  H   H699      1.0  0.87828  0.46167  0.23248  1.0000
  Fe  Fe78      1.0  0.77931  0.44792  0.24526  1.0000
  H   H700      1.0  0.94650  0.44854  0.01992  1.0000
  H   H701      1.0  0.77763  0.35580  0.20453  1.0000
  H   H702      1.0  0.65241  0.05767  0.13065  1.0000
  C   C581      1.0  0.75683  0.34857  0.20730  1.0000
  H   H703      1.0  0.62713  0.10057  0.10834  1.0000
  C   C582      1.0  0.61203  0.44868  0.02686  1.0000
  N   N41       1.0  0.91118  0.49066  0.21547  1.0000
  H   H704      1.0  0.83053  0.49957  0.02572  1.0000
  H   H705      1.0  0.81178  0.46756  0.01445  1.0000
  H   H706      1.0  0.84464  0.47725  0.02452  1.0000
  C   C583      1.0  0.53998  0.37631  0.18646  1.0000
  C   C584      1.0  0.71158  0.31519  0.20535  1.0000
  H   H707      1.0  0.77215  0.28712  0.19314  1.0000
  H   H708      1.0  0.56405  0.30941  0.16312  1.0000
  H   H709      1.0  0.71489  0.26820  0.19518  1.0000
  C   C585      1.0  0.91733  0.49825  0.15541  1.0000
  C   C586      1.0  0.67499  0.13383  0.18384  1.0000
  C   C587      1.0  0.68764  0.41432  0.23930  1.0000
  H   H710      1.0  0.63486  0.06290  0.10941  1.0000
  H   H711      1.0  0.86970  0.28614  0.01958  1.0000
  H   H712      1.0  0.73574  0.47906  0.21557  1.0000
  H   H713      1.0  0.91131  0.49981  0.24895  1.0000
  C   C588      1.0  0.78666  0.48901  0.19447  1.0000
  H   H714      1.0  0.54871  0.19095  0.06203  1.0000
  H   H715      1.0  0.54587  0.42063  0.02034  1.0000
  C   C589      1.0  0.77771  0.21450  0.00896  1.0000
  H   H716      1.0  0.65226  0.07230  0.20351  1.0000
  H   H717      1.0  0.92430  0.46811  0.23513  1.0000
  C   C590      1.0  0.53540  0.11538  0.04628  1.0000
  C   C591      1.0  0.96829  0.45691  0.01917  1.0000
  C   C592      1.0  0.65711  0.08772  0.19191  1.0000
  H   H718      1.0  0.68832  0.20512  0.01520  1.0000
  C   C593      1.0  0.61891  0.16134  0.01482  1.0000
  H   H719      1.0  0.61825  0.22067  0.01421  1.0000
  C   C594      1.0  0.54116  0.17261  0.02242  1.0000
  C   C595      1.0  0.92765  0.47706  0.21906  1.0000
  C   C596      1.0  0.79706  0.32085  0.25160  1.0000
  H   H720      1.0  0.85780  0.36864  0.23910  1.0000
  C   C597      1.0  0.54556  0.27847  0.19856  1.0000
  C   C598      1.0  0.62821  0.36084  0.20208  1.0000
  H   H721      1.0  0.83989  0.48056  0.18678  1.0000
  C   C599      1.0  0.56641  0.43251  0.01711  1.0000
  H   H722      1.0  0.58859  0.28777  0.21739  1.0000
  H   H723      1.0  0.69087  0.10195  0.12469  1.0000
  H   H724      1.0  0.64171  0.12724  0.12681  1.0000
  C   C600      1.0  0.88321  0.47104  0.21663  1.0000
  H   H725      1.0  0.80272  0.49325  0.20610  1.0000
  C   C601      1.0  0.76119  0.31983  0.16867  1.0000
  H   H726      1.0  0.55981  0.35463  0.03688  1.0000
  H   H727      1.0  0.52254  0.30822  0.20935  1.0000
  H   H728      1.0  0.74845  0.32554  0.15882  1.0000
  N   N42       1.0  0.74726  0.30610  0.18812  1.0000
  Fe  Fe79      1.0  0.82632  0.43742  0.25126  1.0000
  C   C602      1.0  0.83199  0.48403  0.01566  1.0000
  H   H729      1.0  0.54705  0.31233  0.22883  1.0000
  H   H730      1.0  0.63469  0.31088  0.22570  1.0000
  C   C603      1.0  0.54406  0.31713  0.21231  1.0000
  H   H731      1.0  0.91275  0.48578  0.14134  1.0000
  C   C604      1.0  0.73838  0.32311  0.20023  1.0000
  H   H732      1.0  0.58936  0.10929  0.06229  1.0000
  C   C605      1.0  0.88191  0.42921  0.01146  1.0000
  H   H733      1.0  0.55641  0.33476  0.17344  1.0000
  H   H734      1.0  0.73281  0.26821  0.17213  1.0000
  H   H735      1.0  0.71109  0.28296  0.17103  1.0000
  H   H736      1.0  0.55607  0.27022  0.18837  1.0000
  H   H737      1.0  0.76334  0.38464  0.22352  1.0000
  S   S156      1.0  0.59428  0.36550  0.24715  1.0000
  C   C606      1.0  0.76560  0.30054  0.20133  1.0000
  C   C607      1.0  0.82493  0.37579  0.24719  1.0000
  C   C608      1.0  0.72552  0.28039  0.18135  1.0000
  H   H738      1.0  0.68363  0.32489  0.22138  1.0000
  H   H739      1.0  0.76502  0.50345  0.16141  1.0000
  C   C609      1.0  0.57695  0.11857  0.05856  1.0000
  C   C610      1.0  0.64024  0.34747  0.21213  1.0000
  C   C611      1.0  0.74892  0.36519  0.21840  1.0000
  H   H740      1.0  0.58898  0.50202  0.02001  1.0000
  N   N43       1.0  0.52924  0.15670  0.04149  1.0000
  C   C612      1.0  0.82349  0.33259  0.24577  1.0000
  H   H741      1.0  0.60704  0.15761  0.06530  1.0000
  C   C613      1.0  0.54501  0.14317  0.04780  1.0000
  H   H742      1.0  0.62686  0.44889  0.03762  1.0000
  C   C614      1.0  0.58602  0.32076  0.20158  1.0000
  H   H743      1.0  0.68389  0.15424  0.18912  1.0000
  H   H744      1.0  0.52962  0.18260  0.01659  1.0000
  C   C615      1.0  0.55217  0.31381  0.17510  1.0000
  H   H745      1.0  0.71654  0.36969  0.23189  1.0000
  C   C616      1.0  0.85390  0.49642  0.15583  1.0000
  H   H746      1.0  0.94888  0.49097  0.21767  1.0000
  H   H747      1.0  0.70854  0.23896  0.01012  1.0000
  C   C617      1.0  0.64787  0.02134  0.06645  1.0000
  C   C618      1.0  0.91253  0.48339  0.01868  1.0000
  C   C619      1.0  0.63921  0.06660  0.12671  1.0000
  H   H748      1.0  0.76961  0.47055  0.19957  1.0000
  S   S157      1.0  0.78108  0.28640  0.25387  1.0000
  C   C620      1.0  0.59888  0.30785  0.21213  1.0000
  C   C621      1.0  0.62526  0.18729  0.02057  1.0000
  H   H749      1.0  0.63940  0.38165  0.19886  1.0000
  C   C622      1.0  0.62559  0.32106  0.21715  1.0000
  C   C623      1.0  0.66651  0.41143  0.25222  1.0000
  C   C624      1.0  0.52641  0.48322  0.03516  1.0000
  H   H750      1.0  0.52455  0.26892  0.19363  1.0000
  S   S158      1.0  0.52019  0.34411  0.07096  1.0000
  C   C625      1.0  0.71339  0.42770  0.24688  1.0000
  C   C626      1.0  0.74817  0.49718  0.22386  1.0000
  H   H751      1.0  0.53109  0.30246  0.17063  1.0000
  H   H752      1.0  0.55483  0.46915  0.04128  1.0000
  C   C627      1.0  0.79832  0.36420  0.25293  1.0000
  H   H753      1.0  0.53657  0.32457  0.02495  1.0000
  H   H754      1.0  0.56129  0.18837  0.02558  1.0000
  S   S159      1.0  0.87258  0.51485  0.11621  1.0000
  C   C628      1.0  0.52896  0.17451  0.05880  1.0000
  H   H755      1.0  0.53792  0.38467  0.13279  1.0000
  C   C629      1.0  0.78428  0.33661  0.25502  1.0000
  H   H756      1.0  0.54236  0.16008  0.00918  1.0000
  H   H757      1.0  0.60613  0.36837  0.01020  1.0000
  H   H758      1.0  0.52149  0.16358  0.07384  1.0000
  H   H759      1.0  0.66440  0.01691  0.06634  1.0000
  S   S160      1.0  0.80034  0.48924  0.25780  1.0000
  C   C630      1.0  0.61964  0.46439  0.00862  1.0000
  H   H760      1.0  0.78864  0.37642  0.25580  1.0000
  H   H761      1.0  0.54771  0.37848  0.00861  1.0000
  Fe  Fe80      1.0  0.60413  0.39018  0.27677  1.0000
  S   S161      1.0  0.57767  0.35716  0.29764  1.0000
  S   S162      1.0  0.64454  0.41725  0.28966  1.0000
  Fe  Fe81      1.0  0.54676  0.36961  0.28937  1.0000
  H   H762      1.0  0.55136  0.25887  0.46289  1.0000
  C   C631      1.0  0.58533  0.02475  0.48611  1.0000
  S   S163      1.0  0.79178  0.43015  0.27165  1.0000
  H   H763      1.0  0.65108  0.13378  0.40348  1.0000
  Fe  Fe82      1.0  0.88624  0.51041  0.45948  1.0000
  C   C632      1.0  0.83018  0.49288  0.50283  1.0000
  Fe  Fe83      1.0  0.81558  0.47200  0.28329  1.0000
  Fe  Fe84      1.0  0.69590  0.22237  0.28675  1.0000
  S   S164      1.0  0.69398  0.19340  0.31231  1.0000
  C   C633      1.0  0.67097  0.42210  0.27276  1.0000
  S   S165      1.0  0.71893  0.26612  0.29136  1.0000
  Fe  Fe85      1.0  0.67883  0.17455  0.43792  1.0000
  S   S166      1.0  0.71080  0.16217  0.43660  1.0000
  S   S167      1.0  0.66733  0.19331  0.41070  1.0000
  Fe  Fe86      1.0  0.66746  0.15869  0.48457  1.0000
  S   S168      1.0  0.69920  0.14560  0.48637  1.0000
  H   H764      1.0  0.62322  0.06247  0.39477  1.0000
  Fe  Fe87      1.0  0.72381  0.18320  0.46853  1.0000
  S   S169      1.0  0.76632  0.21624  0.47153  1.0000
  Fe  Fe88      1.0  0.68297  0.12605  0.45469  1.0000
  S   S170      1.0  0.66882  0.08412  0.44126  1.0000
  S   S171      1.0  0.69266  0.19699  0.46877  1.0000
  S   S172      1.0  0.65026  0.13768  0.45403  1.0000
  C   C634      1.0  0.64223  0.32130  0.27304  1.0000
  H   H765      1.0  0.67142  0.09513  0.39667  1.0000
  C   C635      1.0  0.82759  0.49060  0.35997  1.0000
  C   C636      1.0  0.59553  0.29532  0.26696  1.0000
  C   C637      1.0  0.78356  0.23758  0.49334  1.0000
  H   H766      1.0  0.65874  0.34025  0.27579  1.0000
  C   C638      1.0  0.63764  0.03041  0.44078  1.0000
  H   H767      1.0  0.77492  0.45894  0.47364  1.0000
  H   H768      1.0  0.58264  0.25377  0.26210  1.0000
  H   H769      1.0  0.68280  0.12409  0.38076  1.0000
  C   C639      1.0  0.65466  0.05231  0.45305  1.0000
  H   H770      1.0  0.61665  0.11034  0.40333  1.0000
  C   C640      1.0  0.66072  0.04810  0.47374  1.0000
  H   H771      1.0  0.64901  0.09286  0.33955  1.0000
  H   H772      1.0  0.67408  0.06462  0.48329  1.0000
  H   H773      1.0  0.61458  0.33720  0.27241  1.0000
  C   C641      1.0  0.60384  0.15877  0.49208  1.0000
  C   C642      1.0  0.57931  0.15883  0.49068  1.0000
  H   H774      1.0  0.61582  0.16194  0.47804  1.0000
  H   H775      1.0  0.57245  0.16201  0.47550  1.0000
  S   S173      1.0  0.66285  0.22453  0.26847  1.0000
  H   H776      1.0  0.81038  0.47306  0.36463  1.0000
  H   H777      1.0  0.81082  0.26774  0.47295  1.0000
  H   H778      1.0  0.52856  0.18515  0.47094  1.0000
  H   H779      1.0  0.73829  0.35875  0.32430  1.0000
  C   C643      1.0  0.68841  0.19546  0.33985  1.0000
  C   C644      1.0  0.69455  0.18014  0.35405  1.0000
  C   C645      1.0  0.68916  0.18010  0.37591  1.0000
  C   C646      1.0  0.67686  0.19479  0.38370  1.0000
  C   C647      1.0  0.67111  0.21043  0.36959  1.0000
  C   C648      1.0  0.67712  0.21101  0.34780  1.0000
  H   H780      1.0  0.70331  0.16808  0.34802  1.0000
  H   H781      1.0  0.69409  0.16841  0.38668  1.0000
  H   H782      1.0  0.66168  0.22194  0.37548  1.0000
  H   H783      1.0  0.67228  0.22286  0.33706  1.0000
  C   C649      1.0  0.53177  0.25718  0.46386  1.0000
  H   H784      1.0  0.70770  0.35752  0.27268  1.0000
  S   S174      1.0  0.81024  0.47448  0.31907  1.0000
  H   H785      1.0  0.54471  0.21629  0.45850  1.0000
  H   H786      1.0  0.63296  0.03326  0.42470  1.0000
  C   C650      1.0  0.87544  0.45657  0.49164  1.0000
  C   C651      1.0  0.65031  0.02228  0.48181  1.0000
  H   H787      1.0  0.63176  0.15125  0.31181  1.0000
  H   H788      1.0  0.56636  0.40777  0.43082  1.0000
  H   H789      1.0  0.75592  0.37253  0.30033  1.0000
  C   C652      1.0  0.63695  0.11254  0.40178  1.0000
  C   C653      1.0  0.62632  0.14713  0.34561  1.0000
  C   C654      1.0  0.59772  0.46489  0.49643  1.0000
  C   C655      1.0  0.69687  0.43625  0.28015  1.0000
  H   H790      1.0  0.60657  0.47508  0.48195  1.0000
  S   S175      1.0  0.55664  0.43282  0.47107  1.0000
  C   C656      1.0  0.83282  0.49610  0.33825  1.0000
  H   H791      1.0  0.52265  0.33125  0.33171  1.0000
  H   H792      1.0  0.70050  0.44483  0.29596  1.0000
  H   H793      1.0  0.79469  0.49387  0.47670  1.0000
  C   C657      1.0  0.52772  0.27774  0.45558  1.0000
  H   H794      1.0  0.73800  0.44944  0.27318  1.0000
  H   H795      1.0  0.62454  0.14142  0.37870  1.0000
  H   H796      1.0  0.59652  0.45195  0.41811  1.0000
  H   H797      1.0  0.64005  0.10239  0.41567  1.0000
  H   H798      1.0  0.62419  0.06286  0.36639  1.0000
  Fe  Fe89      1.0  0.56545  0.33350  0.26736  1.0000
  C   C658      1.0  0.64273  0.10797  0.34187  1.0000
  H   H799      1.0  0.72735  0.34169  0.29901  1.0000
  C   C659      1.0  0.57314  0.44272  0.49563  1.0000
  H   H800      1.0  0.78069  0.31360  0.36065  1.0000
  H   H801      1.0  0.67110  0.09216  0.36860  1.0000
  H   H802      1.0  0.62070  0.16289  0.34703  1.0000
  S   S176      1.0  0.67780  0.30206  0.27627  1.0000
  C   C660      1.0  0.94865  0.51334  0.47974  1.0000
  N   N44       1.0  0.60713  0.41870  0.35176  1.0000
  C   C661      1.0  0.62194  0.40303  0.35003  1.0000
  C   C662      1.0  0.58557  0.40853  0.33592  1.0000
  C   C663      1.0  0.62528  0.44617  0.34585  1.0000
  C   C664      1.0  0.59607  0.41625  0.37342  1.0000
  C   C665      1.0  0.60236  0.43823  0.38728  1.0000
  C   C666      1.0  0.57846  0.39116  0.38131  1.0000
  C   C667      1.0  0.59166  0.43503  0.40772  1.0000
  C   C668      1.0  0.56812  0.38822  0.40183  1.0000
  C   C669      1.0  0.57462  0.41011  0.41497  1.0000
  H   H803      1.0  0.63145  0.40535  0.33419  1.0000
  H   H804      1.0  0.63761  0.40923  0.36234  1.0000
  H   H805      1.0  0.60909  0.38161  0.35187  1.0000
  H   H806      1.0  0.57291  0.38706  0.33740  1.0000
  H   H807      1.0  0.59308  0.41160  0.31931  1.0000
  H   H808      1.0  0.57262  0.41833  0.33766  1.0000
  H   H809      1.0  0.64256  0.45488  0.35668  1.0000
  H   H810      1.0  0.63322  0.44714  0.32947  1.0000
  H   H811      1.0  0.61508  0.45883  0.34590  1.0000
  H   H812      1.0  0.61541  0.45810  0.38274  1.0000
  H   H813      1.0  0.57231  0.37357  0.37161  1.0000
  H   H814      1.0  0.58546  0.08117  0.46630  1.0000
  H   H815      1.0  0.55470  0.36885  0.40752  1.0000
  H   H816      1.0  0.62724  0.25673  0.26672  1.0000
  N   N45       1.0  0.76248  0.24781  0.41161  1.0000
  C   C670      1.0  0.77740  0.23219  0.41170  1.0000
  C   C671      1.0  0.77458  0.26918  0.42777  1.0000
  C   C672      1.0  0.73520  0.23077  0.41849  1.0000
  C   C673      1.0  0.76228  0.25740  0.38987  1.0000
  C   C674      1.0  0.77287  0.28458  0.38494  1.0000
  C   C675      1.0  0.75139  0.23924  0.37274  1.0000
  C   C676      1.0  0.77248  0.29281  0.36413  1.0000
  C   C677      1.0  0.75109  0.24767  0.35203  1.0000
  C   C678      1.0  0.76161  0.27439  0.34773  1.0000
  H   H817      1.0  0.76794  0.21404  0.40176  1.0000
  H   H818      1.0  0.79772  0.24393  0.40572  1.0000
  H   H819      1.0  0.77887  0.22550  0.42798  1.0000
  H   H820      1.0  0.77425  0.26114  0.44391  1.0000
  H   H821      1.0  0.76365  0.28110  0.42915  1.0000
  H   H822      1.0  0.79553  0.28227  0.42413  1.0000
  H   H823      1.0  0.72561  0.21249  0.40877  1.0000
  H   H824      1.0  0.73445  0.22438  0.43524  1.0000
  H   H825      1.0  0.72270  0.24110  0.41733  1.0000
  H   H826      1.0  0.78155  0.29990  0.39684  1.0000
  H   H827      1.0  0.74291  0.21829  0.37524  1.0000
  S   S177      1.0  0.57419  0.40442  0.27027  1.0000
  N   N46       1.0  0.64078  0.10133  0.38141  1.0000
  C   C679      1.0  0.53200  0.47758  0.50703  1.0000
  H   H828      1.0  0.82846  0.51155  0.50376  1.0000
  C   C680      1.0  0.80973  0.44661  0.49493  1.0000
  C   C681      1.0  0.62450  0.27430  0.26772  1.0000
  H   H829      1.0  0.56609  0.08506  0.48737  1.0000
  H   H830      1.0  0.76130  0.28078  0.33161  1.0000
  C   C682      1.0  0.63742  0.11474  0.36249  1.0000
  H   H831      1.0  0.70474  0.38708  0.27644  1.0000
  C   C683      1.0  0.57633  0.04285  0.49375  1.0000
  C   C684      1.0  0.64056  0.12094  0.32384  1.0000
  H   H832      1.0  0.84518  0.49569  0.49048  1.0000
  H   H833      1.0  0.86714  0.41750  0.48095  1.0000
  C   C685      1.0  0.58584  0.08704  0.48327  1.0000
  Fe  Fe90      1.0  0.52026  0.39379  0.46892  1.0000
  H   H834      1.0  0.64570  0.11624  0.30833  1.0000
  S   S178      1.0  0.87603  0.46785  0.46564  1.0000
  H   H835      1.0  0.65563  0.01926  0.49764  1.0000
  H   H836      1.0  0.74255  0.23340  0.33919  1.0000
  C   C686      1.0  0.64599  0.29869  0.27189  1.0000
  C   C687      1.0  0.54906  0.03251  0.49805  1.0000
  H   H837      1.0  0.80799  0.47487  0.46371  1.0000
  H   H838      1.0  0.83998  0.50324  0.39239  1.0000
  H   H839      1.0  0.59959  0.10841  0.48463  1.0000
  C   C688      1.0  0.62873  0.13454  0.36379  1.0000
  H   H840      1.0  0.60555  0.03073  0.48208  1.0000
  S   S179      1.0  0.52335  0.37888  0.31457  1.0000
  C   C689      1.0  0.66762  0.10329  0.38180  1.0000
  C   C690      1.0  0.52553  0.20197  0.46504  1.0000
  C   C691      1.0  0.62204  0.07873  0.49251  1.0000
  H   H841      1.0  0.73649  0.38871  0.27286  1.0000
  H   H842      1.0  0.60102  0.07077  0.38005  1.0000
  N   N47       1.0  0.71941  0.37506  0.30371  1.0000
  C   C692      1.0  0.73587  0.36134  0.30710  1.0000
  C   C693      1.0  0.71705  0.37729  0.28046  1.0000
  C   C694      1.0  0.73357  0.40189  0.31317  1.0000
  C   C695      1.0  0.69276  0.36125  0.31296  1.0000
  C   C696      1.0  0.67530  0.37276  0.31212  1.0000
  C   C697      1.0  0.68275  0.33566  0.32173  1.0000
  C   C698      1.0  0.64926  0.35916  0.31881  1.0000
  C   C699      1.0  0.65670  0.32230  0.32854  1.0000
  C   C700      1.0  0.63993  0.33391  0.32692  1.0000
  C   C701      1.0  0.62146  0.07314  0.38059  1.0000
  C   C702      1.0  0.80545  0.26190  0.48921  1.0000
  C   C703      1.0  0.71809  0.43888  0.26729  1.0000
  C   C704      1.0  0.87034  0.43034  0.49460  1.0000
  C   C705      1.0  0.53624  0.22437  0.49902  1.0000
  C   C706      1.0  0.63249  0.14056  0.32572  1.0000
  H   H843      1.0  0.73368  0.40115  0.33082  1.0000
  H   H844      1.0  0.75443  0.41211  0.30795  1.0000
  H   H845      1.0  0.72483  0.41498  0.30856  1.0000
  H   H846      1.0  0.68124  0.39186  0.30529  1.0000
  H   H847      1.0  0.69419  0.32493  0.32251  1.0000
  H   H848      1.0  0.63599  0.36782  0.31676  1.0000
  H   H849      1.0  0.64919  0.30233  0.33424  1.0000
  H   H850      1.0  0.61948  0.32301  0.33135  1.0000
  H   H851      1.0  0.89107  0.25635  0.50840  1.0000
  C   C707      1.0  0.79509  0.47455  0.47715  1.0000
  C   C708      1.0  0.61712  0.31961  0.27092  1.0000
  Fe  Fe91      1.0  0.68767  0.26836  0.27098  1.0000
  S   S180      1.0  0.85143  0.47803  0.26444  1.0000
  S   S181      1.0  0.53301  0.15496  0.50649  1.0000
  H   H852      1.0  0.55556  0.23895  0.49292  1.0000
  H   H853      1.0  0.53976  0.20863  0.50654  1.0000
  H   H854      1.0  0.54070  0.04511  0.50364  1.0000
  H   H855      1.0  0.62973  0.06784  0.50259  1.0000
  H   H856      1.0  0.54385  0.29463  0.44859  1.0000
  C   C709      1.0  0.59927  0.27265  0.26518  1.0000
  S   S182      1.0  0.52349  0.35655  0.46308  1.0000
  H   H857      1.0  0.92975  0.46461  0.48737  1.0000
  H   H858      1.0  0.82317  0.44907  0.48134  1.0000
  H   H859      1.0  0.52935  0.45786  0.50327  1.0000
  C   C710      1.0  0.84436  0.50767  0.37578  1.0000
  H   H860      1.0  0.62501  0.07524  0.47550  1.0000
  H   H861      1.0  0.92696  0.50271  0.48130  1.0000
  N   N48       1.0  0.80478  0.46993  0.49778  1.0000
  H   H862      1.0  0.79127  0.42849  0.49148  1.0000
  N   N49       1.0  0.59402  0.07122  0.49718  1.0000
  H   H863      1.0  0.95507  0.50239  0.46829  1.0000
  H   H864      1.0  0.63486  0.10007  0.49569  1.0000
  S   S183      1.0  0.56407  0.29344  0.26377  1.0000
  H   H865      1.0  0.83715  0.29734  0.50238  1.0000
  H   H866      1.0  0.76376  0.32759  0.25940  1.0000
  H   H867      1.0  0.92413  0.28149  0.50617  1.0000
  C   C711      1.0  0.94032  0.46700  0.50208  1.0000
  C   C712      1.0  0.82057  0.27874  0.50593  1.0000
  H   H868      1.0  0.92254  0.42489  0.50576  1.0000
  S   S184      1.0  0.53187  0.34297  0.26043  1.0000
  H   H869      1.0  0.88344  0.49321  0.50726  1.0000
  Fe  Fe92      1.0  0.73783  0.26525  0.26041  1.0000
  Fe  Fe93      1.0  0.67753  0.48354  0.73600  1.0000
  C   C713      1.0  0.54778  0.21117  0.65032  1.0000
  S   S185      1.0  0.70359  0.46354  0.73769  1.0000
  H   H870      1.0  0.54625  0.15138  0.63050  1.0000
  S   S186      1.0  0.56989  0.25887  0.72826  1.0000
  S   S187      1.0  0.69144  0.51054  0.56649  1.0000
  H   H871      1.0  0.78161  0.42957  0.52794  1.0000
  C   C714      1.0  0.67534  0.50509  0.68307  1.0000
  C   C715      1.0  0.77576  0.44512  0.52888  1.0000
  Fe  Fe94      1.0  0.80256  0.35266  0.73527  1.0000
  S   S188      1.0  0.80075  0.33196  0.70384  1.0000
  H   H872      1.0  0.75032  0.42620  0.55529  1.0000
  S   S189      1.0  0.77870  0.37487  0.73882  1.0000
  Fe  Fe95      1.0  0.86560  0.33188  0.55829  1.0000
  S   S190      1.0  0.85280  0.35460  0.58130  1.0000
  S   S191      1.0  0.83455  0.28996  0.54901  1.0000
  Fe  Fe96      1.0  0.92384  0.37442  0.56024  1.0000
  S   S192      1.0  0.91452  0.39938  0.58306  1.0000
  S   S193      1.0  0.96451  0.39036  0.54471  1.0000
  Fe  Fe97      1.0  0.88881  0.36210  0.60009  1.0000
  S   S194      1.0  0.89297  0.36565  0.63613  1.0000
  Fe  Fe98      1.0  0.87934  0.39018  0.56271  1.0000
  S   S195      1.0  0.87083  0.42498  0.55875  1.0000
  S   S196      1.0  0.90053  0.33721  0.57862  1.0000
  S   S197      1.0  0.88978  0.36737  0.53830  1.0000
  H   H873      1.0  0.62117  0.43091  0.58694  1.0000
  S   S198      1.0  0.65793  0.48755  0.70572  1.0000
  C   C716      1.0  0.59949  0.46110  0.53471  1.0000
  H   H874      1.0  0.54293  0.41238  0.51393  1.0000
  H   H875      1.0  0.53697  0.13102  0.60727  1.0000
  H   H876      1.0  0.53024  0.23424  0.51175  1.0000
  C   C717      1.0  0.77711  0.48637  0.51821  1.0000
  C   C718      1.0  0.99637  0.40595  0.55667  1.0000
  H   H877      1.0  0.91422  0.28216  0.57770  1.0000
  H   H878      1.0  0.72608  0.37527  0.74844  1.0000
  H   H879      1.0  0.98428  0.38923  0.58761  1.0000
  S   S199      1.0  0.64256  0.15262  0.51380  1.0000
  C   C719      1.0  0.61272  0.15447  0.51162  1.0000
  C   C720      1.0  0.87309  0.43696  0.53283  1.0000
  H   H880      1.0  0.73510  0.37881  0.70870  1.0000
  H   H881      1.0  0.78780  0.24057  0.54747  1.0000
  H   H882      1.0  0.95434  0.30946  0.59682  1.0000
  C   C721      1.0  0.85668  0.30971  0.70774  1.0000
  H   H883      1.0  0.54788  0.14626  0.66626  1.0000
  H   H884      1.0  0.67509  0.47560  0.63619  1.0000
  C   C722      1.0  0.57273  0.15088  0.52839  1.0000
  Fe  Fe99      1.0  0.53516  0.21923  0.73146  1.0000
  H   H885      1.0  0.56091  0.14798  0.54246  1.0000
  H   H886      1.0  0.60396  0.14728  0.54491  1.0000
  Fe  Fe100     1.0  0.65291  0.51061  0.55993  1.0000
  C   C723      1.0  0.55476  0.49547  0.51752  1.0000
  H   H887      1.0  0.69097  0.41091  0.71960  1.0000
  H   H888      1.0  0.73539  0.46061  0.55965  1.0000
  C   C724      1.0  0.70761  0.37659  0.74498  1.0000
  C   C725      1.0  0.82622  0.34310  0.68474  1.0000
  C   C726      1.0  0.82103  0.33166  0.66431  1.0000
  C   C727      1.0  0.84107  0.33902  0.64900  1.0000
  C   C728      1.0  0.86665  0.35751  0.65418  1.0000
  C   C729      1.0  0.87177  0.36924  0.67452  1.0000
  C   C730      1.0  0.85159  0.36234  0.68966  1.0000
  H   H889      1.0  0.80145  0.31676  0.66037  1.0000
  H   H890      1.0  0.83688  0.32975  0.63344  1.0000
  H   H891      1.0  0.89151  0.38353  0.67867  1.0000
  H   H892      1.0  0.85579  0.37145  0.70524  1.0000
  C   C731      1.0  0.54108  0.21172  0.67180  1.0000
  H   H893      1.0  0.56798  0.22231  0.64541  1.0000
  H   H894      1.0  0.55607  0.22316  0.68330  1.0000
  H   H895      1.0  0.68173  0.45329  0.62012  1.0000
  C   C732      1.0  0.67183  0.46620  0.62023  1.0000
  H   H896      1.0  0.65100  0.42756  0.59113  1.0000
  H   H897      1.0  0.68242  0.48256  0.60896  1.0000
  H   H898      1.0  0.94429  0.42692  0.53995  1.0000
  C   C733      1.0  0.69376  0.33872  0.72208  1.0000
  C   C734      1.0  0.59250  0.07859  0.51965  1.0000
  H   H899      1.0  0.89323  0.31577  0.66348  1.0000
  C   C735      1.0  0.87800  0.46314  0.52989  1.0000
  H   H900      1.0  0.97451  0.46969  0.55582  1.0000
  H   H901      1.0  0.68065  0.32634  0.73480  1.0000
  S   S200      1.0  0.63161  0.24749  0.74039  1.0000
  H   H902      1.0  0.61035  0.45891  0.61032  1.0000
  N   N50       1.0  0.90371  0.28471  0.53414  1.0000
  N   N51       1.0  0.69718  0.36611  0.72354  1.0000
  C   C736      1.0  0.81456  0.27113  0.52712  1.0000
  C   C737      1.0  0.71712  0.38172  0.70751  1.0000
  C   C738      1.0  0.67244  0.36805  0.72011  1.0000
  C   C739      1.0  0.67283  0.39303  0.71827  1.0000
  C   C740      1.0  0.64736  0.34566  0.71945  1.0000
  C   C741      1.0  0.64973  0.39551  0.71571  1.0000
  C   C742      1.0  0.62436  0.34835  0.71697  1.0000
  C   C743      1.0  0.62554  0.37320  0.71512  1.0000
  C   C744      1.0  0.52937  0.13496  0.62249  1.0000
  H   H903      1.0  0.63250  0.47850  0.63081  1.0000
  H   H904      1.0  0.70915  0.37603  0.69112  1.0000
  C   C745      1.0  0.90907  0.26891  0.51773  1.0000
  H   H905      1.0  0.72403  0.40324  0.70955  1.0000
  H   H906      1.0  0.64479  0.32583  0.72139  1.0000
  C   C746      1.0  0.56372  0.15493  0.50883  1.0000
  H   H907      1.0  0.60540  0.33108  0.71733  1.0000
  H   H908      1.0  0.60758  0.37517  0.71406  1.0000
  C   C747      1.0  0.61642  0.40311  0.62498  1.0000
  C   C748      1.0  0.63096  0.43678  0.65253  1.0000
  C   C749      1.0  0.60426  0.38394  0.64045  1.0000
  C   C750      1.0  0.61873  0.41750  0.66782  1.0000
  C   C751      1.0  0.60543  0.39111  0.66180  1.0000
  H   H909      1.0  0.54185  0.09425  0.62455  1.0000
  H   H910      1.0  0.59377  0.36336  0.63584  1.0000
  H   H911      1.0  0.61957  0.42327  0.68442  1.0000
  C   C752      1.0  0.56187  0.42952  0.51440  1.0000
  H   H912      1.0  0.57282  0.07668  0.52389  1.0000
  C   C753      1.0  0.63144  0.46933  0.61497  1.0000
  H   H913      1.0  0.59587  0.37619  0.67368  1.0000
  C   C754      1.0  0.81347  0.46546  0.75185  1.0000
  H   H914      1.0  0.71275  0.50791  0.69239  1.0000
  C   C755      1.0  0.95046  0.32002  0.53653  1.0000
  C   C756      1.0  0.70197  0.51216  0.68018  1.0000
  C   C757      1.0  0.88874  0.31740  0.68003  1.0000
  C   C758      1.0  0.79272  0.24682  0.53122  1.0000
  C   C759      1.0  0.00073  0.40148  0.57776  1.0000
  C   C760      1.0  0.53621  0.10091  0.63957  1.0000
  H   H915      1.0  0.98253  0.51074  0.53830  1.0000
  S   S201      1.0  0.53808  0.19598  0.60845  1.0000
  C   C761      1.0  0.61097  0.47390  0.51587  1.0000
  H   H916      1.0  0.72527  0.30469  0.75220  1.0000
  H   H917      1.0  0.99238  0.34406  0.57844  1.0000
  H   H918      1.0  0.92909  0.33970  0.68911  1.0000
  C   C762      1.0  0.97340  0.33536  0.54795  1.0000
  C   C763      1.0  0.94811  0.44492  0.53183  1.0000
  C   C764      1.0  0.87676  0.32422  0.72277  1.0000
  C   C765      1.0  0.78575  0.46686  0.51486  1.0000
  H   H919      1.0  0.56870  0.48830  0.52158  1.0000
  C   C766      1.0  0.93018  0.29657  0.56863  1.0000
  H   H920      1.0  0.60656  0.09951  0.52307  1.0000
  N   N52       1.0  0.86673  0.42712  0.63130  1.0000
  C   C767      1.0  0.86693  0.44966  0.61958  1.0000
  C   C768      1.0  0.89422  0.43187  0.63477  1.0000
  C   C769      1.0  0.85386  0.40351  0.61733  1.0000
  C   C770      1.0  0.85357  0.42443  0.65209  1.0000
  C   C771      1.0  0.83137  0.40100  0.65832  1.0000
  C   C772      1.0  0.86327  0.44559  0.66705  1.0000
  C   C773      1.0  0.81971  0.39910  0.67822  1.0000
  C   C774      1.0  0.85148  0.44341  0.68694  1.0000
  C   C775      1.0  0.82977  0.42021  0.69250  1.0000
  H   H921      1.0  0.87566  0.45140  0.60343  1.0000
  H   H922      1.0  0.84663  0.44727  0.61742  1.0000
  H   H923      1.0  0.87859  0.46878  0.62781  1.0000
  H   H924      1.0  0.90623  0.45083  0.64310  1.0000
  H   H925      1.0  0.90433  0.43228  0.61951  1.0000
  H   H926      1.0  0.89489  0.41602  0.64453  1.0000
  H   H927      1.0  0.83320  0.39897  0.61364  1.0000
  H   H928      1.0  0.86410  0.40634  0.60181  1.0000
  H   H929      1.0  0.85427  0.38598  0.62449  1.0000
  H   H930      1.0  0.82290  0.38360  0.64833  1.0000
  H   H931      1.0  0.88024  0.46389  0.66357  1.0000
  H   H932      1.0  0.80311  0.38086  0.68280  1.0000
  H   H933      1.0  0.85926  0.45968  0.69827  1.0000
  H   H934      1.0  0.82092  0.41853  0.70802  1.0000
  C   C776      1.0  0.52859  0.19621  0.63523  1.0000
  H   H935      1.0  0.91940  0.34502  0.72618  1.0000
  H   H936      1.0  0.84781  0.50276  0.74922  1.0000
  C   C777      1.0  0.92796  0.30036  0.54656  1.0000
  H   H937      1.0  0.76056  0.21173  0.51810  1.0000
  C   C778      1.0  0.90309  0.33425  0.71559  1.0000
  C   C779      1.0  0.96961  0.49244  0.53053  1.0000
  N   N53       1.0  0.87114  0.32912  0.74493  1.0000
  C   C780      1.0  0.97474  0.33158  0.56960  1.0000
  C   C781      1.0  0.77234  0.46792  0.75708  1.0000
  H   H938      1.0  0.95039  0.32416  0.51985  1.0000
  H   H939      1.0  0.56597  0.42874  0.54841  1.0000
  H   H940      1.0  0.83603  0.30145  0.71151  1.0000
  H   H941      1.0  0.88086  0.47585  0.54355  1.0000
  C   C782      1.0  0.74934  0.46230  0.54733  1.0000
  C   C783      1.0  0.88144  0.26632  0.54727  1.0000
  H   H942      1.0  0.87995  0.36905  0.73773  1.0000
  C   C784      1.0  0.87946  0.47300  0.50934  1.0000
  C   C785      1.0  0.63032  0.43023  0.63062  1.0000
  H   H943      1.0  0.65058  0.41489  0.71493  1.0000
  H   H944      1.0  0.53446  0.15806  0.69990  1.0000
  C   C786      1.0  0.86275  0.30642  0.68673  1.0000
  H   H945      1.0  0.64114  0.50567  0.66921  1.0000
  N   N54       1.0  0.64356  0.45115  0.61480  1.0000
  H   H946      1.0  0.64131  0.48573  0.60361  1.0000
  H   H947      1.0  0.88565  0.25099  0.55463  1.0000
  H   H948      1.0  0.86525  0.40029  0.51727  1.0000
  H   H949      1.0  0.63002  0.49076  0.51619  1.0000
  Fe  Fe101     1.0  0.81376  0.40479  0.75622  1.0000
  C   C787      1.0  0.57497  0.43880  0.53391  1.0000
  S   S202      1.0  0.55755  0.20192  0.74930  1.0000
  H   H950      1.0  0.84710  0.29617  0.67533  1.0000
  H   H951      1.0  0.75262  0.49917  0.53606  1.0000
  C   C788      1.0  0.64187  0.44108  0.59268  1.0000
  C   C789      1.0  0.90889  0.33110  0.69447  1.0000
  C   C790      1.0  0.96506  0.46913  0.54077  1.0000
  C   C791      1.0  0.82676  0.49292  0.75145  1.0000
  H   H952      1.0  0.71189  0.39756  0.74701  1.0000
  H   H953      1.0  0.65222  0.45737  0.58131  1.0000
  H   H954      1.0  0.61456  0.39620  0.60874  1.0000
  C   C792      1.0  0.59711  0.15052  0.52975  1.0000
  S   S203      1.0  0.61486  0.47305  0.55949  1.0000
  H   H955      1.0  0.83802  0.49051  0.51838  1.0000
  H   H956      1.0  0.64089  0.45695  0.65810  1.0000
  C   C793      1.0  0.95324  0.31214  0.57990  1.0000
  C   C794      1.0  0.75905  0.48400  0.53407  1.0000
  H   H957      1.0  0.59238  0.51438  0.55041  1.0000
  C   C795      1.0  0.66169  0.51083  0.66702  1.0000
  C   C796      1.0  0.68396  0.27914  0.74721  1.0000
  Fe  Fe102     1.0  0.59114  0.24254  0.74862  1.0000
  C   C797      1.0  0.75776  0.44296  0.54481  1.0000
  H   H958      1.0  0.90924  0.31535  0.51156  1.0000
  C   C798      1.0  0.78617  0.45284  0.75467  1.0000
  H   H959      1.0  0.71269  0.33779  0.72422  1.0000
  H   H960      1.0  0.68724  0.26759  0.73486  1.0000
  H   H961      1.0  0.89177  0.31543  0.53517  1.0000
  C   C799      1.0  0.93590  0.44385  0.51251  1.0000
  H   H962      1.0  0.87646  0.27705  0.56002  1.0000
  H   H963      1.0  0.55475  0.11610  0.64667  1.0000
  C   C800      1.0  0.65824  0.27343  0.75310  1.0000
  C   C801      1.0  0.89496  0.30247  0.52343  1.0000
  C   C802      1.0  0.95736  0.49211  0.51084  1.0000
  H   H964      1.0  0.83424  0.32937  0.73841  1.0000
  C   C803      1.0  0.88469  0.35777  0.74984  1.0000
  H   H965      1.0  0.87602  0.29129  0.51485  1.0000
  C   C804      1.0  0.52728  0.13640  0.67027  1.0000
  H   H966      1.0  0.98997  0.35101  0.54013  1.0000
  H   H967      1.0  0.83137  0.29813  0.74725  1.0000
  H   H968      1.0  0.86312  0.25575  0.53772  1.0000
  H   H969      1.0  0.77578  0.43160  0.75508  1.0000
  C   C805      1.0  0.77713  0.23036  0.51453  1.0000
  H   H970      1.0  0.59723  0.06620  0.53066  1.0000
  H   H971      1.0  0.68546  0.32943  0.70644  1.0000
  C   C806      1.0  0.86933  0.42059  0.51513  1.0000
  H   H972      1.0  0.01513  0.42521  0.52774  1.0000
  C   C807      1.0  0.84274  0.31983  0.74917  1.0000
  H   H973      1.0  0.90636  0.36576  0.75043  1.0000
  C   C808      1.0  0.70548  0.30006  0.75704  1.0000
  H   H974      1.0  0.87120  0.29383  0.75653  1.0000
  S   S204      1.0  0.83861  0.38407  0.75053  1.0000
  C   C809      1.0  0.78597  0.49552  0.75731  1.0000
  H   H975      1.0  0.91635  0.25576  0.52510  1.0000
  H   H976      1.0  0.52105  0.31799  0.57737  1.0000
  H   H977      1.0  0.52806  0.08391  0.65054  1.0000
  C   C810      1.0  0.01818  0.42179  0.54412  1.0000
  C   C811      1.0  0.81313  0.50787  0.75436  1.0000
  S   S205      1.0  0.83214  0.44804  0.74948  1.0000
  C   C812      1.0  0.51987  0.14321  0.68965  1.0000
  H   H978      1.0  0.69331  0.36536  0.75754  1.0000
  H   H979      1.0  0.78442  0.50377  0.50863  1.0000
  H   H980      1.0  0.81951  0.44336  0.50909  1.0000
  C   C813      1.0  0.84852  0.43623  0.95230  1.0000
  S   S206      1.0  0.70449  0.47244  0.78989  1.0000
  H   H981      1.0  0.81129  0.44589  0.85182  1.0000
  C   C814      1.0  0.52587  0.18198  0.87101  1.0000
  Fe  Fe103     1.0  0.67813  0.49119  0.78478  1.0000
  C   C815      1.0  0.67618  0.45561  0.87313  1.0000
  Fe  Fe104     1.0  0.54542  0.21558  0.77919  1.0000
  H   H982      1.0  0.62230  0.37553  0.84106  1.0000
  S   S207      1.0  0.58063  0.25497  0.77969  1.0000
  N   N55       1.0  0.80745  0.46137  0.82151  1.0000
  Fe  Fe105     1.0  0.76732  0.35539  0.77052  1.0000
  S   S208      1.0  0.80061  0.38746  0.78838  1.0000
  H   H983      1.0  0.71358  0.18043  0.98881  1.0000
  Fe  Fe106     1.0  0.82215  0.36376  0.78149  1.0000
  S   S209      1.0  0.84853  0.35674  0.80491  1.0000
  H   H984      1.0  0.79842  0.46938  0.85312  1.0000
  H   H985      1.0  0.58576  0.40023  0.83108  1.0000
  Fe  Fe107     1.0  0.87232  0.37657  0.97904  1.0000
  S   S210      1.0  0.89692  0.35533  0.98271  1.0000
  C   C816      1.0  0.58526  0.33383  0.97544  1.0000
  Fe  Fe108     1.0  0.86090  0.36166  0.93181  1.0000
  S   S211      1.0  0.88444  0.33889  0.93213  1.0000
  S   S212      1.0  0.83774  0.36856  0.90515  1.0000
  Fe  Fe109     1.0  0.86441  0.32311  0.96380  1.0000
  S   S213      1.0  0.84671  0.27941  0.97233  1.0000
  Fe  Fe110     1.0  0.91477  0.37308  0.95120  1.0000
  S   S214      1.0  0.95783  0.40059  0.94283  1.0000
  S   S215      1.0  0.83910  0.34361  0.96196  1.0000
  S   S216      1.0  0.89184  0.39651  0.94907  1.0000
  C   C817      1.0  0.67558  0.30886  0.77920  1.0000
  S   S217      1.0  0.56331  0.14391  0.96966  1.0000
  H   H986      1.0  0.61875  0.18467  0.82402  1.0000
  H   H987      1.0  0.67644  0.46649  0.88749  1.0000
  N   N56       1.0  0.84299  0.49412  0.99438  1.0000
  H   H988      1.0  0.83404  0.51476  0.96945  1.0000
  C   C818      1.0  0.82608  0.45325  0.81116  1.0000
  C   C819      1.0  0.99012  0.40528  0.94913  1.0000
  C   C820      1.0  0.83889  0.42918  0.97278  1.0000
  H   H989      1.0  0.97877  0.36725  0.96277  1.0000
  C   C821      1.0  0.65199  0.42784  0.84273  1.0000
  H   H990      1.0  0.86412  0.46731  0.92965  1.0000
  S   S218      1.0  0.72729  0.34220  0.78476  1.0000
  H   H991      1.0  0.76625  0.29729  0.96461  1.0000
  C   C822      1.0  0.85463  0.48054  0.95927  1.0000
  H   H992      1.0  0.58845  0.18672  0.82793  1.0000
  C   C823      1.0  0.53408  0.19599  0.83402  1.0000
  H   H993      1.0  0.86106  0.50020  0.95333  1.0000
  H   H994      1.0  0.54507  0.05946  0.00165  1.0000
  H   H995      1.0  0.61235  0.41675  0.79967  1.0000
  H   H996      1.0  0.84677  0.46878  0.81234  1.0000
  C   C824      1.0  0.60060  0.46379  0.99442  1.0000
  C   C825      1.0  0.60897  0.23916  0.82252  1.0000
  C   C826      1.0  0.81936  0.25554  0.98662  1.0000
  S   S219      1.0  0.86322  0.39515  0.00772  1.0000
  S   S220      1.0  0.78779  0.33022  0.76571  1.0000
  C   C827      1.0  0.84533  0.35999  0.83278  1.0000
  C   C828      1.0  0.82639  0.36668  0.84118  1.0000
  C   C829      1.0  0.82439  0.36919  0.86333  1.0000
  C   C830      1.0  0.84119  0.36497  0.87738  1.0000
  C   C831      1.0  0.86011  0.35823  0.86900  1.0000
  C   C832      1.0  0.86216  0.35578  0.84681  1.0000
  H   H997      1.0  0.81317  0.36976  0.83064  1.0000
  H   H998      1.0  0.80962  0.37427  0.86965  1.0000
  H   H999      1.0  0.87317  0.35493  0.87961  1.0000
  H   H1000     1.0  0.87685  0.35057  0.84052  1.0000
  C   C833      1.0  0.01161  0.42930  0.94381  1.0000
  H   H1001     1.0  0.54234  0.23621  0.82856  1.0000
  H   H1002     1.0  0.90235  0.32251  0.75853  1.0000
  C   C834      1.0  0.76932  0.24047  0.95324  1.0000
  C   C835      1.0  0.81270  0.46425  0.84469  1.0000
  C   C836      1.0  0.62321  0.38586  0.82598  1.0000
  C   C837      1.0  0.65274  0.44171  0.86187  1.0000
  C   C838      1.0  0.58305  0.31402  0.96100  1.0000
  C   C839      1.0  0.69949  0.45644  0.86563  1.0000
  H   H1003     1.0  0.63566  0.44263  0.86835  1.0000
  C   C840      1.0  0.74603  0.22251  0.96277  1.0000
  N   N57       1.0  0.70427  0.21271  0.98359  1.0000
  H   H1004     1.0  0.83917  0.32447  0.76576  1.0000
  H   H1005     1.0  0.78249  0.23371  0.94599  1.0000
  C   C841      1.0  0.67619  0.42928  0.83547  1.0000
  H   H1006     1.0  0.53784  0.24577  0.86659  1.0000
  Fe  Fe111     1.0  0.67933  0.44250  0.76584  1.0000
  C   C842      1.0  0.54618  0.36265  0.99735  1.0000
  C   C843      1.0  0.70624  0.21887  0.00664  1.0000
  S   S221      1.0  0.53453  0.18738  0.80700  1.0000
  S   S222      1.0  0.66051  0.50304  0.81285  1.0000
  H   H1007     1.0  0.61257  0.24409  0.83970  1.0000
  H   H1008     1.0  0.64041  0.50856  0.85353  1.0000
  H   H1009     1.0  0.90331  0.43520  0.98230  1.0000
  C   C844      1.0  0.69952  0.44333  0.84683  1.0000
  S   S223      1.0  0.77024  0.51532  0.76267  1.0000
  H   H1010     1.0  0.60448  0.35028  0.97716  1.0000
  H   H1011     1.0  0.87664  0.31856  0.77663  1.0000
  C   C845      1.0  0.61014  0.32896  0.77036  1.0000
  H   H1012     1.0  0.72514  0.26655  0.98120  1.0000
  H   H1013     1.0  0.68022  0.21242  0.95725  1.0000
  H   H1014     1.0  0.60074  0.40252  0.85649  1.0000
  C   C846      1.0  0.73620  0.42640  0.80214  1.0000
  C   C847      1.0  0.55898  0.29199  0.95781  1.0000
  H   H1015     1.0  0.60737  0.30905  0.77155  1.0000
  H   H1016     1.0  0.61514  0.20339  0.84582  1.0000
  C   C848      1.0  0.60377  0.41195  0.84067  1.0000
  H   H1017     1.0  0.88312  0.50938  0.00457  1.0000
  C   C849      1.0  0.81422  0.22922  0.98399  1.0000
  H   H1018     1.0  0.76537  0.46587  0.80143  1.0000
  H   H1019     1.0  0.63444  0.44743  0.81198  1.0000
  C   C850      1.0  0.66035  0.51165  0.85593  1.0000
  C   C851      1.0  0.81304  0.48769  0.81322  1.0000
  C   C852      1.0  0.78017  0.44107  0.81750  1.0000
  C   C853      1.0  0.76122  0.44646  0.80684  1.0000
  C   C854      1.0  0.77199  0.41476  0.82401  1.0000
  C   C855      1.0  0.59129  0.37469  0.00497  1.0000
  C   C856      1.0  0.74680  0.39496  0.81946  1.0000
  H   H1020     1.0  0.58730  0.22995  0.82034  1.0000
  H   H1021     1.0  0.81016  0.48694  0.79571  1.0000
  H   H1022     1.0  0.80032  0.49555  0.82075  1.0000
  H   H1023     1.0  0.78525  0.40907  0.83216  1.0000
  H   H1024     1.0  0.72562  0.27793  0.81953  1.0000
  H   H1025     1.0  0.71763  0.46778  0.87425  1.0000
  H   H1026     1.0  0.82564  0.43528  0.81825  1.0000
  H   H1027     1.0  0.00625  0.37163  0.91473  1.0000
  H   H1028     1.0  0.60460  0.37421  0.81704  1.0000
  H   H1029     1.0  0.67735  0.41998  0.82069  1.0000
  C   C857      1.0  0.53699  0.28976  0.96892  1.0000
  S   S224      1.0  0.68617  0.50531  0.95869  1.0000
  N   N58       1.0  0.56473  0.35204  0.00308  1.0000
  H   H1030     1.0  0.74231  0.20218  0.96233  1.0000
  H   H1031     1.0  0.64023  0.47665  0.00542  1.0000
  H   H1032     1.0  0.69659  0.17857  0.96408  1.0000
  H   H1033     1.0  0.82636  0.22432  0.97338  1.0000
  H   H1034     1.0  0.70985  0.38507  0.80409  1.0000
  C   C858      1.0  0.91614  0.47138  0.00026  1.0000
  N   N59       1.0  0.62766  0.41329  0.83014  1.0000
  H   H1035     1.0  0.63452  0.28421  0.77373  1.0000
  H   H1036     1.0  0.00814  0.44442  0.93631  1.0000
  C   C859      1.0  0.68166  0.21565  0.97476  1.0000
  H   H1037     1.0  0.67227  0.32032  0.79161  1.0000
  H   H1038     1.0  0.58794  0.20155  0.79293  1.0000
  H   H1039     1.0  0.59505  0.12820  0.99481  1.0000
  H   H1040     1.0  0.94839  0.44552  0.97839  1.0000
  H   H1041     1.0  0.70458  0.25930  0.78505  1.0000
  H   H1042     1.0  0.58534  0.19786  0.98574  1.0000
  H   H1043     1.0  0.00626  0.41694  0.00086  1.0000
  H   H1044     1.0  0.66268  0.20131  0.98183  1.0000
  N   N60       1.0  0.62011  0.22152  0.81500  1.0000
  H   H1045     1.0  0.83283  0.47992  0.84833  1.0000
  C   C860      1.0  0.60979  0.21221  0.79326  1.0000
  C   C861      1.0  0.64914  0.23584  0.81602  1.0000
  C   C862      1.0  0.66538  0.24059  0.79780  1.0000
  C   C863      1.0  0.66197  0.24642  0.83566  1.0000
  C   C864      1.0  0.69263  0.25545  0.79923  1.0000
  C   C865      1.0  0.68925  0.26130  0.83688  1.0000
  C   C866      1.0  0.70452  0.26596  0.81866  1.0000
  H   H1046     1.0  0.61757  0.25799  0.81365  1.0000
  H   H1047     1.0  0.82144  0.44898  0.79396  1.0000
  C   C867      1.0  0.88079  0.31542  0.75977  1.0000
  H   H1048     1.0  0.61552  0.22893  0.78217  1.0000
  C   C868      1.0  0.57399  0.44786  0.99874  1.0000
  H   H1049     1.0  0.61687  0.19835  0.78670  1.0000
  H   H1050     1.0  0.65757  0.23356  0.78210  1.0000
  H   H1051     1.0  0.65092  0.24363  0.85017  1.0000
  C   C869      1.0  0.90073  0.44435  0.99661  1.0000
  H   H1052     1.0  0.69863  0.26955  0.85197  1.0000
  S   S225      1.0  0.60928  0.48266  0.97118  1.0000
  C   C870      1.0  0.85645  0.46190  0.94557  1.0000
  C   C871      1.0  0.82588  0.50432  0.98452  1.0000
  H   H1053     1.0  0.93079  0.48299  0.98877  1.0000
  C   C872      1.0  0.99502  0.38588  0.95867  1.0000
  H   H1054     1.0  0.52569  0.15722  0.84476  1.0000
  H   H1055     1.0  0.83017  0.44086  0.00247  1.0000
  C   C873      1.0  0.63941  0.37583  0.77067  1.0000
  C   C874      1.0  0.72891  0.23104  0.97303  1.0000
  S   S226      1.0  0.52257  0.21349  0.90363  1.0000
  Fe  Fe112     1.0  0.55675  0.26830  0.75945  1.0000
  C   C875      1.0  0.72904  0.40069  0.80830  1.0000
  Fe  Fe113     1.0  0.72633  0.49501  0.76158  1.0000
  H   H1056     1.0  0.67933  0.17130  0.98874  1.0000
  C   C876      1.0  0.58872  0.33391  0.76651  1.0000
  H   H1057     1.0  0.83310  0.40924  0.97804  1.0000
  H   H1058     1.0  0.68296  0.23539  0.97809  1.0000
  H   H1059     1.0  0.63886  0.38490  0.81601  1.0000
  H   H1060     1.0  0.74128  0.37480  0.82393  1.0000
  C   C877      1.0  0.00730  0.41910  0.88226  1.0000
  C   C878      1.0  0.63041  0.42655  0.80957  1.0000
  C   C879      1.0  0.70121  0.31500  0.77297  1.0000
  H   H1061     1.0  0.80598  0.48810  0.98108  1.0000
  H   H1062     1.0  0.96570  0.40690  0.98805  1.0000
  C   C880      1.0  0.99724  0.39706  0.89517  1.0000
  C   C881      1.0  0.96162  0.41669  0.00197  1.0000
  H   H1063     1.0  0.97640  0.38708  0.89868  1.0000
  S   S227      1.0  0.65106  0.45947  0.76241  1.0000
  C   C882      1.0  0.73682  0.25854  0.97333  1.0000
  C   C883      1.0  0.76029  0.27632  0.96390  1.0000
  C   C884      1.0  0.60031  0.14850  0.99882  1.0000
  C   C885      1.0  0.96998  0.45444  0.98089  1.0000
  C   C886      1.0  0.61029  0.19811  0.82881  1.0000
  C   C887      1.0  0.80330  0.26140  0.00058  1.0000
  H   H1064     1.0  0.72240  0.43070  0.79328  1.0000
  H   H1065     1.0  0.01536  0.49705  0.00192  1.0000
  H   H1066     1.0  0.60012  0.31567  0.95229  1.0000
  H   H1067     1.0  0.79504  0.28114  0.94706  1.0000
  H   H1068     1.0  0.71776  0.44437  0.84083  1.0000
  C   C888      1.0  0.77650  0.26729  0.95388  1.0000
  C   C889      1.0  0.53802  0.22113  0.84033  1.0000
  H   H1069     1.0  0.97820  0.44840  0.96700  1.0000
  H   H1070     1.0  0.97756  0.47611  0.98024  1.0000
  H   H1071     1.0  0.52140  0.30682  0.99160  1.0000
  H   H1072     1.0  0.94004  0.41019  0.00161  1.0000
  C   C890      1.0  0.59469  0.18767  0.99381  1.0000
  C   C891      1.0  0.52860  0.17667  0.84949  1.0000
  H   H1073     1.0  0.64680  0.42661  0.80002  1.0000
  C   C892      1.0  0.67475  0.50928  0.83860  1.0000
  H   H1074     1.0  0.59763  0.38557  0.98978  1.0000
  C   C893      1.0  0.84484  0.47400  0.98026  1.0000
  S   S228      1.0  0.55699  0.30774  0.76394  1.0000
  C   C894      1.0  0.01409  0.38835  0.90420  1.0000
  H   H1075     1.0  0.99406  0.42595  0.87554  1.0000
  C   C895      1.0  0.52881  0.20678  0.87724  1.0000
  C   C896      1.0  0.63532  0.34986  0.77278  1.0000
  H   H1076     1.0  0.87890  0.36245  0.76568  1.0000
  H   H1077     1.0  0.55918  0.44752  0.98789  1.0000
  C   C897      1.0  0.58782  0.16144  0.98854  1.0000
  H   H1078     1.0  0.55013  0.37105  0.98112  1.0000
  S   S229      1.0  0.53446  0.19699  0.96103  1.0000
  C   C898      1.0  0.56316  0.33200  0.98717  1.0000
  C   C899      1.0  0.83721  0.44769  0.98670  1.0000
  H   H1079     1.0  0.83373  0.50246  0.81619  1.0000
  H   H1080     1.0  0.60484  0.43189  0.84265  1.0000
  C   C900      1.0  0.69830  0.18458  0.98111  1.0000
  H   H1081     1.0  0.84997  0.42175  0.94170  1.0000
  H   H1082     1.0  0.53175  0.08863  0.98172  1.0000
  H   H1083     1.0  0.52531  0.34747  0.99793  1.0000
  Fe  Fe114     1.0  0.65165  0.51247  0.96708  1.0000
  Fe  Fe115     1.0  0.53244  0.15679  0.96142  1.0000
  C   C901      1.0  0.70049  0.51327  0.84195  1.0000
  C   C902      1.0  0.53541  0.22647  0.86187  1.0000
  H   H1084     1.0  0.71163  0.51082  0.82897  1.0000
  H   H1085     1.0  0.55731  0.27655  0.94674  1.0000
  S   S230      1.0  0.67132  0.40130  0.77399  1.0000
  C   C903      1.0  0.52490  0.05206  0.99630  1.0000
  C   C904      1.0  0.79372  0.20905  0.99493  1.0000
  C   C905      1.0  0.65414  0.28833  0.76913  1.0000
  H   H1086     1.0  0.65168  0.34581  0.77603  1.0000
  C   C906      1.0  0.59269  0.35997  0.76473  1.0000
  C   C907      1.0  0.61809  0.38093  0.76654  1.0000
  H   H1087     1.0  0.79037  0.18893  0.99252  1.0000
  H   H1088     1.0  0.80706  0.28164  0.00287  1.0000
  C   C908      1.0  0.53897  0.30944  0.98332  1.0000
  H   H1089     1.0  0.57616  0.36386  0.76159  1.0000
  S   S231      1.0  0.52013  0.22975  0.76148  1.0000
  C   C909      1.0  0.00570  0.45532  0.00185  1.0000
  N   N61       1.0  0.97689  0.44580  0.00102  1.0000
  H   H1090     1.0  0.52077  0.16667  0.88266  1.0000
  H   H1091     1.0  0.62113  0.40090  0.76458  1.0000
  H   H1092     1.0  0.75132  0.45826  0.75935  1.0000
  C   C910      1.0  0.01755  0.43807  0.00165  1.0000
  H   H1093     1.0  0.54376  0.83197  0.22501  1.0000
  C   C911      1.0  0.01335  0.61272  0.01820  1.0000
  H   H1094     1.0  0.57585  0.80822  0.06796  1.0000
  Fe  Fe116     1.0  0.89345  0.54235  0.08871  1.0000
  S   S232      1.0  0.89747  0.58255  0.08032  1.0000
  H   H1095     1.0  0.55154  0.72167  0.05035  1.0000
  Fe  Fe117     1.0  0.91737  0.53675  0.04680  1.0000
  S   S233      1.0  0.92264  0.57584  0.03573  1.0000
  Fe  Fe118     1.0  0.93798  0.59038  0.06843  1.0000
  S   S234      1.0  0.97527  0.62973  0.06906  1.0000
  Fe  Fe119     1.0  0.88195  0.56455  0.04797  1.0000
  S   S235      1.0  0.85674  0.57283  0.02363  1.0000
  S   S236      1.0  0.93489  0.55155  0.07899  1.0000
  C   C912      1.0  0.82743  0.63517  0.01515  1.0000
  Fe  Fe120     1.0  0.55437  0.87212  0.04638  1.0000
  H   H1096     1.0  0.84606  0.61981  0.03681  1.0000
  C   C913      1.0  0.78197  0.60742  0.03879  1.0000
  Fe  Fe121     1.0  0.58050  0.92755  0.06782  1.0000
  S   S237      1.0  0.54730  0.91777  0.09108  1.0000
  S   S238      1.0  0.61784  0.96732  0.06799  1.0000
  Fe  Fe122     1.0  0.54786  0.87873  0.09459  1.0000
  Fe  Fe123     1.0  0.52157  0.89942  0.06249  1.0000
  C   C914      1.0  0.53566  0.79993  0.07254  1.0000
  S   S239      1.0  0.58309  0.88931  0.07343  1.0000
  S   S240      1.0  0.55442  0.91099  0.03896  1.0000
  S   S241      1.0  0.73328  0.53164  0.00937  1.0000
  H   H1097     1.0  0.80685  0.55302  0.22280  1.0000
  C   C915      1.0  0.80386  0.54355  0.03419  1.0000
  C   C916      1.0  0.53860  0.72013  0.03670  1.0000
  H   H1098     1.0  0.59675  0.83825  0.03136  1.0000
  C   C917      1.0  0.99663  0.57071  0.03554  1.0000
  H   H1099     1.0  0.90378  0.52016  0.23184  1.0000
  C   C918      1.0  0.59317  0.85846  0.15546  1.0000
  H   H1100     1.0  0.74421  0.62413  0.04762  1.0000
  H   H1101     1.0  0.61349  0.80628  0.02085  1.0000
  C   C919      1.0  0.53883  0.88133  0.15732  1.0000
  C   C920      1.0  0.52294  0.75039  0.05297  1.0000
  C   C921      1.0  0.82226  0.56038  0.01975  1.0000
  H   H1102     1.0  0.61898  0.54981  0.01762  1.0000
  C   C922      1.0  0.59435  0.80322  0.01545  1.0000
  C   C923      1.0  0.76768  0.54272  0.01260  1.0000
  C   C924      1.0  0.62222  0.00045  0.06708  1.0000
  N   N62       1.0  0.75531  0.62160  0.01516  1.0000
  H   H1103     1.0  0.58124  0.99084  0.06775  1.0000
  H   H1104     1.0  0.01208  0.57788  0.04798  1.0000
  H   H1105     1.0  0.82137  0.53923  0.19517  1.0000
  N   N63       1.0  0.56486  0.81185  0.21202  1.0000
  C   C925      1.0  0.74739  0.63460  0.03229  1.0000
  C   C926      1.0  0.55871  0.82554  0.22978  1.0000
  H   H1106     1.0  0.60339  0.82139  0.22392  1.0000
  H   H1107     1.0  0.54381  0.77422  0.19576  1.0000
  H   H1108     1.0  0.56591  0.76639  0.05105  1.0000
  H   H1109     1.0  0.54039  0.90430  0.18532  1.0000
  H   H1110     1.0  0.55042  0.73451  0.02449  1.0000
  H   H1111     1.0  0.93065  0.54418  0.20444  1.0000
  C   C927      1.0  0.87484  0.54553  0.17588  1.0000
  C   C928      1.0  0.87809  0.54370  0.15376  1.0000
  C   C929      1.0  0.80541  0.60694  0.04445  1.0000
  C   C930      1.0  0.57505  0.82832  0.19292  1.0000
  C   C931      1.0  0.01558  0.61611  0.07670  1.0000
  H   H1112     1.0  0.88316  0.56466  0.18360  1.0000
  H   H1113     1.0  0.88888  0.56129  0.14462  1.0000
  H   H1114     1.0  0.76488  0.59609  0.04833  1.0000
  C   C932      1.0  0.78050  0.62167  0.02092  1.0000
  H   H1115     1.0  0.59901  0.86968  0.14093  1.0000
  H   H1116     1.0  0.54055  0.81896  0.07982  1.0000
  S   S242      1.0  0.54737  0.84042  0.02074  1.0000
  C   C933      1.0  0.58070  0.85533  0.19250  1.0000
  H   H1117     1.0  0.72864  0.63520  0.02830  1.0000
  H   H1118     1.0  0.98982  0.54914  0.03369  1.0000
  C   C934      1.0  0.86130  0.52280  0.18809  1.0000
  C   C935      1.0  0.58833  0.83223  0.15545  1.0000
  H   H1119     1.0  0.53258  0.70037  0.02935  1.0000
  C   C936      1.0  0.55553  0.79375  0.06600  1.0000
  C   C937      1.0  0.58463  0.80387  0.21985  1.0000
  H   H1120     1.0  0.54784  0.89821  0.14711  1.0000
  H   H1121     1.0  0.57627  0.79715  0.17311  1.0000
  H   H1122     1.0  0.00053  0.59748  0.08224  1.0000
  H   H1123     1.0  0.59296  0.89034  0.17378  1.0000
  C   C938      1.0  0.92742  0.52533  0.15314  1.0000
  H   H1124     1.0  0.57758  0.86545  0.20600  1.0000
  H   H1125     1.0  0.75165  0.52029  0.17814  1.0000
  S   S243      1.0  0.87582  0.52417  0.05685  1.0000
  C   C939      1.0  0.77978  0.54152  0.24813  1.0000
  C   C940      1.0  0.54944  0.76946  0.05625  1.0000
  H   H1126     1.0  0.93955  0.56246  0.16914  1.0000
  C   C941      1.0  0.57968  0.81739  0.17392  1.0000
  H   H1127     1.0  0.76273  0.52208  0.04204  1.0000
  C   C942      1.0  0.53471  0.88472  0.17901  1.0000
  C   C943      1.0  0.93243  0.54146  0.17106  1.0000
  H   H1128     1.0  0.72956  0.58298  0.02762  1.0000
  C   C944      1.0  0.58968  0.87005  0.17400  1.0000
  H   H1129     1.0  0.97979  0.57354  0.04184  1.0000
  H   H1130     1.0  0.58875  0.57376  0.01847  1.0000
  H   H1131     1.0  0.80914  0.53066  0.16899  1.0000
  H   H1132     1.0  0.55070  0.81253  0.24374  1.0000
  H   H1133     1.0  0.57649  0.84300  0.23564  1.0000
  C   C945      1.0  0.78788  0.53818  0.22780  1.0000
  H   H1134     1.0  0.58911  0.79198  0.20789  1.0000
  N   N64       1.0  0.00625  0.58441  0.01513  1.0000
  H   H1135     1.0  0.57762  0.79163  0.23441  1.0000
  C   C946      1.0  0.82809  0.62079  0.03267  1.0000
  H   H1136     1.0  0.80031  0.55219  0.18447  1.0000
  H   H1137     1.0  0.93717  0.52457  0.23407  1.0000
  H   H1138     1.0  0.59084  0.82330  0.14087  1.0000
  C   C947      1.0  0.80369  0.53446  0.18523  1.0000
  H   H1139     1.0  0.99610  0.61578  0.02308  1.0000
  H   H1140     1.0  0.81048  0.53751  0.04823  1.0000
  C   C948      1.0  0.58485  0.82136  0.02151  1.0000
  H   H1141     1.0  0.80589  0.59520  0.05771  1.0000
  C   C949      1.0  0.77678  0.53488  0.03065  1.0000
  C   C950      1.0  0.00856  0.63531  0.06979  1.0000
  C   C951      1.0  0.86789  0.51903  0.14366  1.0000
  S   S244      1.0  0.85813  0.52591  0.21600  1.0000
  C   C952      1.0  0.56019  0.81778  0.01454  1.0000
  C   C953      1.0  0.92714  0.53058  0.19136  1.0000
  C   C954      1.0  0.54038  0.78777  0.20670  1.0000
  C   C955      1.0  0.60107  0.00657  0.06720  1.0000
  C   C956      1.0  0.73457  0.59415  0.01258  1.0000
  C   C957      1.0  0.52048  0.83443  0.16262  1.0000
  H   H1142     1.0  0.76269  0.65520  0.03499  1.0000
  S   S245      1.0  0.53902  0.85083  0.12252  1.0000
  H   H1143     1.0  0.53102  0.77603  0.22107  1.0000
  C   C958      1.0  0.53203  0.85615  0.14909  1.0000
  H   H1144     1.0  0.93048  0.53374  0.13740  1.0000
  C   C959      1.0  0.77207  0.51596  0.21489  1.0000
  H   H1145     1.0  0.52575  0.79284  0.19909  1.0000
  C   C960      1.0  0.54070  0.52107  0.01230  1.0000
  C   C961      1.0  0.56618  0.52263  0.01041  1.0000
  C   C962      1.0  0.52345  0.86300  0.19257  1.0000
  C   C963      1.0  0.75593  0.52298  0.25621  1.0000
  C   C964      1.0  0.80407  0.63573  0.00928  1.0000
  S   S246      1.0  0.93273  0.51701  0.02322  1.0000
  H   H1146     1.0  0.79233  0.55837  0.25785  1.0000
  H   H1147     1.0  0.86900  0.53153  0.00869  1.0000
  C   C965      1.0  0.00497  0.60616  0.46359  1.0000
  H   H1148     1.0  0.52803  0.79761  0.47431  1.0000
  C   C966      1.0  0.62679  0.00468  0.44900  1.0000
  Fe  Fe124     1.0  0.88952  0.54816  0.42493  1.0000
  S   S247      1.0  0.90490  0.58310  0.44782  1.0000
  H   H1149     1.0  0.56383  0.73723  0.45014  1.0000
  H   H1150     1.0  0.59325  0.88818  0.50678  1.0000
  S   S248      1.0  0.90129  0.54201  0.48431  1.0000
  Fe  Fe125     1.0  0.87354  0.55574  0.47011  1.0000
  H   H1151     1.0  0.80492  0.54482  0.46833  1.0000
  Fe  Fe126     1.0  0.93152  0.56675  0.46031  1.0000
  S   S249      1.0  0.97316  0.58765  0.47476  1.0000
  H   H1152     1.0  0.75535  0.65807  0.48874  1.0000
  S   S250      1.0  0.91803  0.53364  0.43630  1.0000
  Fe  Fe127     1.0  0.55461  0.87138  0.48093  1.0000
  H   H1153     1.0  0.56839  0.73557  0.50360  1.0000
  H   H1154     1.0  0.57444  0.77786  0.43097  1.0000
  Fe  Fe128     1.0  0.58783  0.92984  0.46702  1.0000
  S   S251      1.0  0.56042  0.92575  0.44011  1.0000
  S   S252      1.0  0.62095  0.96815  0.48038  1.0000
  C   C967      1.0  0.76707  0.62241  0.50652  1.0000
  Fe  Fe129     1.0  0.55914  0.88605  0.43392  1.0000
  H   H1155     1.0  0.61386  0.98811  0.43928  1.0000
  S   S253      1.0  0.55540  0.90987  0.49059  1.0000
  S   S254      1.0  0.58938  0.89153  0.45930  1.0000
  H   H1156     1.0  0.80177  0.60142  0.47311  1.0000
  S   S255      1.0  0.52252  0.83182  0.27294  1.0000
  Fe  Fe130     1.0  0.52834  0.90386  0.46354  1.0000
  S   S256      1.0  0.85173  0.56710  0.49582  1.0000
  C   C968      1.0  0.55715  0.71820  0.49311  1.0000
  H   H1157     1.0  0.73826  0.62797  0.47389  1.0000
  C   C969      1.0  0.79914  0.54807  0.48404  1.0000
  H   H1158     1.0  0.99237  0.60224  0.43103  1.0000
  C   C970      1.0  0.77278  0.54233  0.48818  1.0000
  N   N65       1.0  0.96192  0.51711  0.50066  1.0000
  C   C971      1.0  0.63331  0.00037  0.46951  1.0000
  H   H1159     1.0  0.75964  0.60256  0.47556  1.0000
  C   C972      1.0  0.53910  0.74306  0.47402  1.0000
  C   C973      1.0  0.81580  0.62044  0.50326  1.0000
  H   H1160     1.0  0.57040  0.71861  0.48004  1.0000
  H   H1161     1.0  0.85936  0.52354  0.31588  1.0000
  C   C974      1.0  0.53547  0.78404  0.46905  1.0000
  S   S257      1.0  0.56230  0.86876  0.40184  1.0000
  S   S258      1.0  0.88720  0.55392  0.38926  1.0000
  C   C975      1.0  0.77344  0.61126  0.48846  1.0000
  H   H1162     1.0  0.88855  0.55408  0.34367  1.0000
  S   S259      1.0  0.52468  0.86394  0.45519  1.0000
  C   C976      1.0  0.53201  0.00574  0.49514  1.0000
  C   C977      1.0  0.54443  0.85013  0.36154  1.0000
  C   C978      1.0  0.56169  0.77298  0.44472  1.0000
  C   C979      1.0  0.86638  0.53076  0.37003  1.0000
  C   C980      1.0  0.99043  0.53366  0.49715  1.0000
  C   C981      1.0  0.79750  0.61047  0.48687  1.0000
  H   H1163     1.0  0.71938  0.58552  0.49181  1.0000
  H   H1164     1.0  0.56218  0.84783  0.36013  1.0000
  H   H1165     1.0  0.99888  0.52287  0.48749  1.0000
  C   C982      1.0  0.73873  0.63787  0.48931  1.0000
  C   C983      1.0  0.85512  0.51893  0.33248  1.0000
  C   C984      1.0  0.53938  0.86022  0.38057  1.0000
  C   C985      1.0  0.87164  0.53623  0.34829  1.0000
  H   H1166     1.0  0.57548  0.98456  0.47748  1.0000
  H   H1167     1.0  0.75839  0.53447  0.47556  1.0000
  H   H1168     1.0  0.83417  0.61916  0.50214  1.0000
  H   H1169     1.0  0.53112  0.83564  0.32966  1.0000
  C   C986      1.0  0.81802  0.55851  0.50015  1.0000
  C   C987      1.0  0.00900  0.61024  0.44175  1.0000
  H   H1170     1.0  0.55295  0.70026  0.50245  1.0000
  C   C988      1.0  0.56814  0.99802  0.48331  1.0000
  S   S260      1.0  0.85651  0.52220  0.44643  1.0000
  H   H1171     1.0  0.95296  0.53242  0.47223  1.0000
  H   H1172     1.0  0.72014  0.63974  0.49016  1.0000
  H   H1173     1.0  0.53861  0.72253  0.26488  1.0000
  N   N66       1.0  0.53268  0.71825  0.48534  1.0000
  H   H1174     1.0  0.52829  0.96779  0.48548  1.0000
  C   C989      1.0  0.55551  0.74980  0.45583  1.0000
  H   H1175     1.0  0.74989  0.52547  0.27207  1.0000
  C   C990      1.0  0.55167  0.79006  0.45132  1.0000
  H   H1176     1.0  0.61640  0.92228  0.50571  1.0000
  H   H1177     1.0  0.60201  0.55521  0.50220  1.0000
  H   H1178     1.0  0.55662  0.80814  0.44278  1.0000
  C   C991      1.0  0.52686  0.84320  0.34422  1.0000
  C   C992      1.0  0.52934  0.76104  0.48040  1.0000
  H   H1179     1.0  0.99424  0.55210  0.48864  1.0000
  H   H1180     1.0  0.59265  0.83585  0.49773  1.0000
  S   S261      1.0  0.52311  0.76320  0.26501  1.0000
  C   C993      1.0  0.54155  0.98853  0.48782  1.0000
  H   H1181     1.0  0.53183  0.69555  0.45725  1.0000
  S   S262      1.0  0.54372  0.83977  0.50655  1.0000
  C   C994      1.0  0.71990  0.59604  0.50692  1.0000
  H   H1182     1.0  0.95395  0.55009  0.50734  1.0000
  N   N67       1.0  0.74151  0.62322  0.50765  1.0000
  C   C995      1.0  0.76493  0.54689  0.50842  1.0000
  C   C996      1.0  0.60131  0.88068  0.54740  1.0000
  C   C997      1.0  0.58578  0.91399  0.53992  1.0000
  Fe  Fe131     1.0  0.69760  0.54340  0.58949  1.0000
  S   S263      1.0  0.71753  0.57531  0.56515  1.0000
  C   C998      1.0  0.63198  0.92640  0.54675  1.0000
  C   C999      1.0  0.81009  0.63119  0.52134  1.0000
  S   S264      1.0  0.66912  0.53933  0.53360  1.0000
  Fe  Fe132     1.0  0.70863  0.54200  0.54184  1.0000
  C   C1000     1.0  0.58261  0.63779  0.64762  1.0000
  Fe  Fe133     1.0  0.67664  0.57049  0.55853  1.0000
  S   S265      1.0  0.66617  0.60199  0.54574  1.0000
  Fe  Fe134     1.0  0.53331  0.66737  0.54360  1.0000
  S   S266      1.0  0.65764  0.54129  0.58462  1.0000
  H   H1183     1.0  0.61806  0.87578  0.54611  1.0000
  S   S267      1.0  0.57410  0.71048  0.59076  1.0000
  H   H1184     1.0  0.96260  0.53743  0.53012  1.0000
  H   H1185     1.0  0.61961  0.54611  0.54700  1.0000
  S   S268      1.0  0.57698  0.69166  0.54213  1.0000
  Fe  Fe135     1.0  0.57774  0.67642  0.57469  1.0000
  S   S269      1.0  0.60302  0.65857  0.58897  1.0000
  Fe  Fe136     1.0  0.56904  0.72326  0.55772  1.0000
  S   S270      1.0  0.58962  0.76379  0.54207  1.0000
  H   H1186     1.0  0.57322  0.96674  0.53137  1.0000
  C   C1001     1.0  0.55780  0.65336  0.66995  1.0000
  H   H1187     1.0  0.62893  0.93095  0.56347  1.0000
  C   C1002     1.0  0.55110  0.78084  0.53744  1.0000
  C   C1003     1.0  0.57585  0.78371  0.53139  1.0000
  H   H1188     1.0  0.52270  0.79592  0.53472  1.0000
  C   C1004     1.0  0.78377  0.55711  0.52456  1.0000
  C   C1005     1.0  0.54934  0.64608  0.63122  1.0000
  C   C1006     1.0  0.53918  0.52852  0.51589  1.0000
  C   C1007     1.0  0.64721  0.61614  0.55793  1.0000
  C   C1008     1.0  0.63792  0.63048  0.54537  1.0000
  C   C1009     1.0  0.62358  0.64280  0.55442  1.0000
  C   C1010     1.0  0.61879  0.64139  0.57629  1.0000
  C   C1011     1.0  0.62779  0.62674  0.58880  1.0000
  C   C1012     1.0  0.64166  0.61396  0.57967  1.0000
  H   H1189     1.0  0.64215  0.63243  0.52855  1.0000
  H   H1190     1.0  0.61696  0.65410  0.54461  1.0000
  H   H1191     1.0  0.62436  0.62560  0.60574  1.0000
  H   H1192     1.0  0.64875  0.60314  0.58959  1.0000
  C   C1013     1.0  0.59067  0.80371  0.51698  1.0000
  H   H1193     1.0  0.56606  0.56396  0.54801  1.0000
  H   H1194     1.0  0.59090  0.63791  0.63154  1.0000
  H   H1195     1.0  0.52901  0.93481  0.54350  1.0000
  H   H1196     1.0  0.64764  0.91984  0.54673  1.0000
  C   C1014     1.0  0.67436  0.52303  0.64809  1.0000
  H   H1197     1.0  0.77812  0.56080  0.54017  1.0000
  Fe  Fe137     1.0  0.53053  0.68441  0.58942  1.0000
  C   C1015     1.0  0.56420  0.66120  0.70845  1.0000
  H   H1198     1.0  0.73867  0.62539  0.54176  1.0000
  H   H1199     1.0  0.59625  0.68440  0.62751  1.0000
  C   C1016     1.0  0.56002  0.89606  0.54644  1.0000
  H   H1200     1.0  0.62739  0.89806  0.51140  1.0000
  C   C1017     1.0  0.57438  0.66196  0.68810  1.0000
  H   H1201     1.0  0.54772  0.71062  0.63922  1.0000
  H   H1202     1.0  0.55593  0.72107  0.67782  1.0000
  H   H1203     1.0  0.53449  0.62523  0.63299  1.0000
  C   C1018     1.0  0.57716  0.55274  0.55169  1.0000
  H   H1204     1.0  0.82374  0.52913  0.75441  1.0000
  C   C1019     1.0  0.53637  0.70792  0.67230  1.0000
  H   H1205     1.0  0.82457  0.57107  0.53297  1.0000
  H   H1206     1.0  0.60985  0.80618  0.51220  1.0000
  C   C1020     1.0  0.58862  0.68228  0.64406  1.0000
  C   C1021     1.0  0.54162  0.79803  0.52952  1.0000
  C   C1022     1.0  0.60177  0.53081  0.53899  1.0000
  H   H1207     1.0  0.59665  0.88088  0.56455  1.0000
  H   H1208     1.0  0.61674  0.57787  0.52388  1.0000
  S   S271      1.0  0.71713  0.54301  0.62083  1.0000
  H   H1209     1.0  0.93075  0.51944  0.51832  1.0000
  N   N68       1.0  0.60713  0.90618  0.53728  1.0000
  S   S272      1.0  0.52299  0.70451  0.71451  1.0000
  H   H1210     1.0  0.55852  0.64739  0.61540  1.0000
  S   S273      1.0  0.70217  0.51692  0.75813  1.0000
  S   S274      1.0  0.53432  0.64992  0.57500  1.0000
  H   H1211     1.0  0.53959  0.76584  0.54870  1.0000
  C   C1023     1.0  0.54484  0.92926  0.54287  1.0000
  C   C1024     1.0  0.78614  0.63226  0.52306  1.0000
  H   H1212     1.0  0.60834  0.95395  0.52801  1.0000
  C   C1025     1.0  0.53186  0.70181  0.65046  1.0000
  H   H1213     1.0  0.55453  0.87571  0.54982  1.0000
  C   C1026     1.0  0.54002  0.90377  0.54798  1.0000
  H   H1214     1.0  0.60605  0.68941  0.65464  1.0000
  C   C1027     1.0  0.56974  0.94723  0.53616  1.0000
  C   C1028     1.0  0.55644  0.81804  0.51516  1.0000
  C   C1029     1.0  0.71463  0.52433  0.66124  1.0000
  N   N69       1.0  0.56917  0.65479  0.64854  1.0000
  C   C1030     1.0  0.58989  0.93974  0.53454  1.0000
  H   H1215     1.0  0.71873  0.63643  0.52764  1.0000
  H   H1216     1.0  0.64033  0.94507  0.53773  1.0000
  H   H1217     1.0  0.52948  0.65183  0.72704  1.0000
  H   H1218     1.0  0.59525  0.56693  0.56016  1.0000
  H   H1219     1.0  0.73517  0.52944  0.65905  1.0000
  C   C1031     1.0  0.53037  0.64345  0.67351  1.0000
  C   C1032     1.0  0.70083  0.52951  0.64499  1.0000
  H   H1220     1.0  0.82423  0.63840  0.53423  1.0000
  H   H1221     1.0  0.59540  0.66976  0.68666  1.0000
  H   H1222     1.0  0.58460  0.86393  0.53951  1.0000
  H   H1223     1.0  0.57971  0.69595  0.64605  1.0000
  H   H1224     1.0  0.59929  0.64434  0.65896  1.0000
  H   H1225     1.0  0.57722  0.66865  0.72204  1.0000
  H   H1226     1.0  0.78296  0.64059  0.53761  1.0000
  N   N70       1.0  0.58351  0.54149  0.53240  1.0000
  C   C1033     1.0  0.55911  0.52161  0.52223  1.0000
  H   H1227     1.0  0.60891  0.52362  0.52510  1.0000
  C   C1034     1.0  0.53728  0.65152  0.71137  1.0000
  H   H1228     1.0  0.75341  0.65693  0.52869  1.0000
  H   H1229     1.0  0.56875  0.61705  0.65135  1.0000
  S   S275      1.0  0.52524  0.69938  0.55757  1.0000
  H   H1230     1.0  0.52042  0.88963  0.55260  1.0000
  H   H1231     1.0  0.66366  0.52738  0.63588  1.0000
  C   C1035     1.0  0.61131  0.90363  0.51433  1.0000
  H   H1232     1.0  0.56530  0.53698  0.56303  1.0000
  C   C1036     1.0  0.73813  0.63613  0.52728  1.0000
  C   C1037     1.0  0.59769  0.56300  0.51723  1.0000
  H   H1233     1.0  0.54122  0.54812  0.51863  1.0000
  H   H1234     1.0  0.58635  0.57385  0.51309  1.0000
  C   C1038     1.0  0.95193  0.53161  0.51475  1.0000
  C   C1039     1.0  0.81012  0.56290  0.52040  1.0000
  S   S276      1.0  0.73146  0.53950  0.51254  1.0000
  H   H1235     1.0  0.72223  0.58413  0.51980  1.0000
  H   H1236     1.0  0.53907  0.65865  0.63049  1.0000
  H   H1237     1.0  0.00168  0.54004  0.51224  1.0000
  H   H1238     1.0  0.52489  0.72976  0.51629  1.0000
  C   C1040     1.0  0.52041  0.64244  0.69398  1.0000
  C   C1041     1.0  0.58098  0.82064  0.50877  1.0000
  H   H1239     1.0  0.70029  0.59556  0.50889  1.0000
  H   H1240     1.0  0.74513  0.60960  0.78138  1.0000
  C   C1042     1.0  0.53928  0.68626  0.85964  1.0000
  H   H1241     1.0  0.57024  0.57097  0.99452  1.0000
  C   C1043     1.0  0.57060  0.75310  0.87061  1.0000
  Fe  Fe138     1.0  0.69596  0.53826  0.93554  1.0000
  S   S277      1.0  0.72077  0.57006  0.95912  1.0000
  C   C1044     1.0  0.55934  0.74902  0.89073  1.0000
  H   H1242     1.0  0.96714  0.57665  0.00539  1.0000
  S   S278      1.0  0.67316  0.54132  0.99295  1.0000
  C   C1045     1.0  0.69807  0.52427  0.87931  1.0000
  Fe  Fe139     1.0  0.68309  0.57183  0.96774  1.0000
  S   S279      1.0  0.68089  0.60919  0.97871  1.0000
  Fe  Fe140     1.0  0.70902  0.53725  0.98263  1.0000
  H   H1243     1.0  0.74700  0.59195  0.84016  1.0000
  S   S280      1.0  0.65956  0.54311  0.94213  1.0000
  C   C1046     1.0  0.73837  0.60811  0.79815  1.0000
  H   H1244     1.0  0.73810  0.56336  0.78462  1.0000
  S   S281      1.0  0.57543  0.70232  0.94858  1.0000
  S   S282      1.0  0.56626  0.68198  0.99803  1.0000
  C   C1047     1.0  0.73013  0.56285  0.80087  1.0000
  S   S283      1.0  0.71447  0.53601  0.90390  1.0000
  Fe  Fe141     1.0  0.56872  0.71743  0.98045  1.0000
  C   C1048     1.0  0.81316  0.56800  0.00160  1.0000
  Fe  Fe142     1.0  0.56921  0.66525  0.96602  1.0000
  S   S284      1.0  0.58635  0.63666  0.95727  1.0000
  C   C1049     1.0  0.71843  0.58749  0.86345  1.0000
  C   C1050     1.0  0.61321  0.54576  0.00060  1.0000
  H   H1245     1.0  0.51990  0.76574  0.80342  1.0000
  C   C1051     1.0  0.98407  0.57353  0.99976  1.0000
  Fe  Fe143     1.0  0.52298  0.66470  0.99155  1.0000
  C   C1052     1.0  0.86949  0.51632  0.99767  1.0000
  H   H1246     1.0  0.74664  0.56739  0.81204  1.0000
  C   C1053     1.0  0.61331  0.63012  0.96337  1.0000
  C   C1054     1.0  0.63209  0.64419  0.97890  1.0000
  C   C1055     1.0  0.65275  0.63772  0.98329  1.0000
  C   C1056     1.0  0.65484  0.61705  0.97233  1.0000
  C   C1057     1.0  0.63608  0.60300  0.95681  1.0000
  C   C1058     1.0  0.61550  0.60950  0.95239  1.0000
  H   H1247     1.0  0.97618  0.55186  0.99775  1.0000
  H   H1248     1.0  0.71589  0.59330  0.00652  1.0000
  H   H1249     1.0  0.63755  0.58728  0.94803  1.0000
  H   H1250     1.0  0.60120  0.59859  0.94025  1.0000
  C   C1059     1.0  0.68237  0.57450  0.83013  1.0000
  H   H1251     1.0  0.82335  0.51884  0.99511  1.0000
  H   H1252     1.0  0.62827  0.56215  0.99125  1.0000
  C   C1060     1.0  0.69246  0.58165  0.86770  1.0000
  H   H1253     1.0  0.75613  0.61446  0.80830  1.0000
  C   C1061     1.0  0.53173  0.76375  0.81672  1.0000
  C   C1062     1.0  0.53457  0.74766  0.89338  1.0000
  H   H1254     1.0  0.74101  0.58312  0.00125  1.0000
  H   H1255     1.0  0.55834  0.69005  0.85348  1.0000
  H   H1256     1.0  0.59425  0.55039  0.96360  1.0000
  C   C1063     1.0  0.53529  0.68537  0.88181  1.0000
  H   H1257     1.0  0.55120  0.68850  0.89255  1.0000
  H   H1258     1.0  0.61496  0.52792  0.99533  1.0000
  H   H1259     1.0  0.66718  0.64884  0.99526  1.0000
  H   H1260     1.0  0.52859  0.87188  0.00028  1.0000
  S   S285      1.0  0.59181  0.75850  0.99558  1.0000
  H   H1261     1.0  0.71527  0.54226  0.80377  1.0000
  H   H1262     1.0  0.82719  0.58107  0.99033  1.0000
  H   H1263     1.0  0.73699  0.63437  0.99085  1.0000
  N   N71       1.0  0.71821  0.58111  0.80314  1.0000
  H   H1264     1.0  0.54315  0.76126  0.98509  1.0000
  H   H1265     1.0  0.76195  0.62626  0.98139  1.0000
  Fe  Fe144     1.0  0.53139  0.68328  0.94527  1.0000
  C   C1064     1.0  0.57933  0.78124  0.00243  1.0000
  S   S286      1.0  0.52564  0.68638  0.81770  1.0000
  H   H1266     1.0  0.65414  0.57003  0.85455  1.0000
  H   H1267     1.0  0.63075  0.66013  0.98745  1.0000
  C   C1065     1.0  0.55474  0.77776  0.99541  1.0000
  H   H1268     1.0  0.53673  0.74768  0.81178  1.0000
  H   H1269     1.0  0.73208  0.59160  0.87655  1.0000
  H   H1270     1.0  0.68141  0.55288  0.78955  1.0000
  C   C1066     1.0  0.57957  0.53571  0.97437  1.0000
  H   H1271     1.0  0.56011  0.53441  0.97020  1.0000
  C   C1067     1.0  0.69709  0.57327  0.78689  1.0000
  H   H1272     1.0  0.68609  0.58135  0.88398  1.0000
  S   S287      1.0  0.52537  0.70082  0.97587  1.0000
  H   H1273     1.0  0.68799  0.58691  0.78686  1.0000
  C   C1068     1.0  0.67449  0.57521  0.85109  1.0000
  H   H1274     1.0  0.77041  0.65669  0.99609  1.0000
  H   H1275     1.0  0.66719  0.56858  0.81818  1.0000
  H   H1276     1.0  0.53704  0.88148  0.97367  1.0000
  C   C1069     1.0  0.55716  0.75589  0.85304  1.0000
  H   H1277     1.0  0.77947  0.56553  0.98409  1.0000
  C   C1070     1.0  0.72662  0.58722  0.84255  1.0000
  H   H1278     1.0  0.58946  0.75312  0.86851  1.0000
  H   H1279     1.0  0.70463  0.57333  0.77054  1.0000
  C   C1071     1.0  0.70884  0.58065  0.82519  1.0000
  H   H1280     1.0  0.73048  0.62261  0.80057  1.0000
  C   C1072     1.0  0.78608  0.55928  0.99802  1.0000
  H   H1281     1.0  0.56665  0.75799  0.83785  1.0000
  H   H1282     1.0  0.52677  0.79769  0.84514  1.0000
  C   C1073     1.0  0.75643  0.63540  0.99501  1.0000
  H   H1283     1.0  0.87838  0.52666  0.98272  1.0000
  H   H1284     1.0  0.01207  0.55596  0.98014  1.0000
  H   H1285     1.0  0.60468  0.58537  0.99358  1.0000
  N   N72       1.0  0.58636  0.54298  0.99698  1.0000
  H   H1286     1.0  0.55011  0.78252  0.81789  1.0000
  C   C1074     1.0  0.54530  0.79590  0.00138  1.0000
  C   C1075     1.0  0.53193  0.75492  0.85524  1.0000
  H   H1287     1.0  0.98996  0.58302  0.98400  1.0000
  C   C1076     1.0  0.58739  0.56920  0.00116  1.0000
  H   H1288     1.0  0.73242  0.52512  0.86437  1.0000
  C   C1077     1.0  0.71221  0.52119  0.86210  1.0000
  H   H1289     1.0  0.80497  0.64706  0.99543  1.0000
  H   H1290     1.0  0.84511  0.64557  0.00588  1.0000
  H   H1291     1.0  0.66074  0.52110  0.88940  1.0000
  S   S288      1.0  0.52524  0.64563  0.96084  1.0000
  H   H1292     1.0  0.52537  0.74312  0.90890  1.0000
  H   H1293     1.0  0.52632  0.79295  0.99570  1.0000
  H   H1294     1.0  0.56932  0.74579  0.90417  1.0000
  C   C1078     1.0  0.67184  0.51881  0.87628  1.0000
  C   C1079     1.0  0.52091  0.87614  0.98544  1.0000
  C   C1080     1.0  0.52101  0.75056  0.87597  1.0000
  H   H1295     1.0  0.53553  0.53456  0.00400  1.0000
  H   H1296     1.0  0.57895  0.51624  0.97056  1.0000
