data_image0
_chemical_formula_structural       HC2H2CHC2SH5FeH2CH2SHFeSFeS2CHC2HC3HC2HC4H5CHNHCH3SCHFeSFeS4CFeSHC2H4SFeCH4FeS2FeSHFeSFeHS2HCH3C6SH3CH2C4H2C4H2C6H5CH3C6HC3NC4H2CH4C2H2CS2H2C2HCHSH3C2HCSHC2H2C2H3CHCHC3H5CSFeNCFeHFeHCFeH2NC4HCHC2HNH2CH4CH5CH3CH3C3SCH3C3SHCHNHCHCSCHSCFeSCSFeSCSCFeS2FeS2FeSFeHS2CH3CHC3HC2SHFeC2SH2C3H3C6H5CH2NSHCHCH7CNCHC2HC2HC3H8NC2HCHC2HCH2C2HCH2FeHC2HC3H6S2CHCH4CHCHCH3C3H2C2HCH2SNSH2FeSHS2FeSC2HCH2C3HFeC3H2C3H2C2HNHFeCNH2C2HCHCH2CH2CH5SH2CH2C2H2C2HCSCH2CHC4H4CHSHCHCHCHSC2H2C2HC2HC2H3NCSH2CFeSCS2HFeS2FeSHFeSFeHS2H3CH5C3NH2C6H4SCH3C2HCHCHFeHNCHSC4HCNHC2H3CH2SH3C2H3CH4CHCH3NC2HC3H4C3H2C6SH6CHCH3C3SC2HSCFeSFeSFeSHFeS2FeSFeCS3H4CH8C7H4NC2HSC3HCHNC4HC3H5C2H5CH3CHC2H3C2H3C6H2SC5SC2HC3H4NHC3H3CHFeH2CH2FeC3S3CFeSFeH3CH2C8HC3H4C2H2C2HC2HFeSH2CH2C2FeHCH2C2H5SCH4CHCHC2H2C2HNH2CHSHSNSH3CH7SCH2SHC2HCS3Fe2SCSFeS2NFeS2FeHCFeCFeS3H2CH4CSH3SH2CHCFeCH2C5HCH3C6H4C3H3NC9H4CH6CHNH3C2H2C2HCNCH2FeSCHCHSHCHCH7CH3C2SH2CHNH5SHC2H2C5H2CHC2HC6H3NHC2HC2HCH3SC2H2FeH3NCS2C3H2SFeHFeCHFeSNSFeSCFeS2FeSFeS3HFeNHCSH2CH2C6H2CHCSCH3C2HC2HSH3C9H5SCH2C3HC2H3CH2C3HC2HC4HNCH5CHNH5CH3CH2CH5CHCHCSCHFeCH2C3H2SHCHC2HFeCHCH2SFeC2HFeH3C2HC2H2CSHC2HSCH4C2HCHC2H3CHC2H4S3HCHCHNC2HC3SCHSFeSFeSNHCHCH2C2H4CHC2H2C2HCH2SHCH2CH4FeH3FeCH2CH2FeSCH2C3SHNCH4CHCHCHCH2C
_chemical_formula_sum              "H648 C540 S144 Fe72 N36"
_cell_length_a       59.1884
_cell_length_b       59.2748
_cell_length_c       29.4512
_cell_angle_alpha    89.8367
_cell_angle_beta     90.215
_cell_angle_gamma    120.089

_space_group_name_H-M_alt    "P 1"
_space_group_IT_number       1

loop_
  _space_group_symop_operation_xyz
  'x, y, z'

loop_
  _atom_site_type_symbol
  _atom_site_label
  _atom_site_symmetry_multiplicity
  _atom_site_fract_x
  _atom_site_fract_y
  _atom_site_fract_z
  _atom_site_occupancy
  H   H1        1.0  0.43912  0.31239  0.19458  1.0000
  C   C1        1.0  0.48326  0.03998  0.43484  1.0000
  C   C2        1.0  0.46012  0.01976  0.45307  1.0000
  H   H2        1.0  0.45297  0.25435  0.46327  1.0000
  H   H3        1.0  0.13506  0.33102  0.48716  1.0000
  C   C3        1.0  0.44230  0.33157  0.27691  1.0000
  H   H4        1.0  0.40036  0.31131  0.22077  1.0000
  C   C4        1.0  0.45986  0.00798  0.49528  1.0000
  C   C5        1.0  0.46104  0.25095  0.49380  1.0000
  S   S1        1.0  0.45618  0.31706  0.38669  1.0000
  H   H5        1.0  0.43353  0.31004  0.27442  1.0000
  H   H6        1.0  0.41156  0.00322  0.48960  1.0000
  H   H7        1.0  0.48296  0.04889  0.40278  1.0000
  H   H8        1.0  0.44307  0.20941  0.48263  1.0000
  H   H9        1.0  0.44232  0.01359  0.43406  1.0000
  Fe  Fe1       1.0  0.47980  0.32764  0.45156  1.0000
  H   H10       1.0  0.48412  0.19274  0.47394  1.0000
  H   H11       1.0  0.49836  0.18514  0.42710  1.0000
  C   C6        1.0  0.45547  0.22540  0.50491  1.0000
  H   H12       1.0  0.47791  0.06849  0.74760  1.0000
  H   H13       1.0  0.42312  0.05811  0.82583  1.0000
  S   S2        1.0  0.45919  0.14296  0.66560  1.0000
  H   H14       1.0  0.48900  0.11416  0.74987  1.0000
  Fe  Fe2       1.0  0.47370  0.11782  0.63405  1.0000
  S   S3        1.0  0.45896  0.07394  0.64479  1.0000
  Fe  Fe3       1.0  0.47587  0.16982  0.60435  1.0000
  S   S4        1.0  0.45737  0.18741  0.55733  1.0000
  S   S5        1.0  0.48692  0.14246  0.57032  1.0000
  C   C7        1.0  0.46557  0.22031  0.54462  1.0000
  H   H15       1.0  0.48613  0.01011  0.55031  1.0000
  C   C8        1.0  0.46846  0.09410  0.87489  1.0000
  C   C9        1.0  0.48676  0.26680  0.56225  1.0000
  H   H16       1.0  0.36802  0.00959  0.59899  1.0000
  C   C10       1.0  0.40745  0.03810  0.61880  1.0000
  C   C11       1.0  0.43106  0.04219  0.63719  1.0000
  C   C12       1.0  0.47652  0.27187  0.52270  1.0000
  H   H17       1.0  0.40559  0.05465  0.60863  1.0000
  C   C13       1.0  0.46842  0.10660  0.76026  1.0000
  C   C14       1.0  0.48576  0.10188  0.91175  1.0000
  H   H18       1.0  0.47964  0.10460  0.94496  1.0000
  C   C15       1.0  0.48155  0.24133  0.57297  1.0000
  C   C16       1.0  0.43286  0.02025  0.65035  1.0000
  C   C17       1.0  0.47630  0.09101  0.83080  1.0000
  C   C18       1.0  0.38611  0.01246  0.61343  1.0000
  H   H19       1.0  0.44411  0.05435  0.73778  1.0000
  H   H20       1.0  0.42529  0.01374  0.54515  1.0000
  H   H21       1.0  0.45657  0.10178  0.72856  1.0000
  H   H22       1.0  0.45092  0.02307  0.66483  1.0000
  H   H23       1.0  0.46776  0.12301  0.77730  1.0000
  C   C19       1.0  0.43127  0.07499  0.80204  1.0000
  H   H24       1.0  0.44923  0.09104  0.88172  1.0000
  N   N1        1.0  0.45890  0.08370  0.79062  1.0000
  H   H25       1.0  0.45514  0.04561  0.78825  1.0000
  C   C20       1.0  0.45909  0.06213  0.76531  1.0000
  H   H26       1.0  0.42918  0.09105  0.81711  1.0000
  H   H27       1.0  0.41861  0.06873  0.77115  1.0000
  H   H28       1.0  0.48940  0.23788  0.60373  1.0000
  S   S6        1.0  0.48358  0.30459  0.51177  1.0000
  C   C21       1.0  0.48428  0.01766  0.51798  1.0000
  H   H29       1.0  0.49874  0.28270  0.58500  1.0000
  Fe  Fe4       1.0  0.18483  0.60524  0.06762  1.0000
  S   S7        1.0  0.15709  0.60662  0.11927  1.0000
  Fe  Fe5       1.0  0.22765  0.59322  0.04271  1.0000
  S   S8        1.0  0.25574  0.58310  0.07574  1.0000
  S   S9        1.0  0.22845  0.62963  0.06598  1.0000
  S   S10       1.0  0.18430  0.56806  0.05077  1.0000
  S   S11       1.0  0.38723  0.60142  0.05537  1.0000
  C   C22       1.0  0.44121  0.63234  0.48685  1.0000
  Fe  Fe6       1.0  0.40680  0.57741  0.06253  1.0000
  S   S12       1.0  0.41170  0.56088  0.12963  1.0000
  H   H30       1.0  0.12586  0.54781  0.07840  1.0000
  C   C23       1.0  0.48609  0.41615  0.21560  1.0000
  C   C24       1.0  0.48612  0.49535  0.48113  1.0000
  H   H31       1.0  0.20649  0.62904  0.16917  1.0000
  H   H32       1.0  0.08332  0.38537  0.48411  1.0000
  H   H33       1.0  0.22041  0.48957  0.46427  1.0000
  H   H34       1.0  0.00396  0.63619  0.47524  1.0000
  S   S13       1.0  0.13572  0.63326  0.40216  1.0000
  Fe  Fe7       1.0  0.45134  0.35235  0.39842  1.0000
  C   C25       1.0  0.45145  0.56482  0.46265  1.0000
  H   H35       1.0  0.25322  0.47708  0.44242  1.0000
  H   H36       1.0  0.18095  0.51666  0.48460  1.0000
  H   H37       1.0  0.34837  0.47714  0.11948  1.0000
  H   H38       1.0  0.33293  0.45012  0.18674  1.0000
  Fe  Fe8       1.0  0.33344  0.48373  0.35006  1.0000
  S   S14       1.0  0.31595  0.44270  0.37763  1.0000
  S   S15       1.0  0.32614  0.48967  0.27607  1.0000
  Fe  Fe9       1.0  0.35632  0.50768  0.44195  1.0000
  S   S16       1.0  0.34134  0.46872  0.47497  1.0000
  H   H39       1.0  0.17349  0.36837  0.45159  1.0000
  Fe  Fe10      1.0  0.35513  0.45733  0.41219  1.0000
  S   S17       1.0  0.38554  0.44358  0.41307  1.0000
  Fe  Fe11      1.0  0.30364  0.45797  0.43813  1.0000
  H   H40       1.0  0.49438  0.64645  0.39264  1.0000
  S   S18       1.0  0.37272  0.49773  0.38192  1.0000
  S   S19       1.0  0.31846  0.49758  0.40762  1.0000
  H   H41       1.0  0.00995  0.50866  0.08334  1.0000
  C   C26       1.0  0.03968  0.53691  0.12722  1.0000
  H   H42       1.0  0.10875  0.41699  0.50182  1.0000
  H   H43       1.0  0.46100  0.63812  0.39874  1.0000
  H   H44       1.0  0.46545  0.48784  0.47500  1.0000
  C   C27       1.0  0.40580  0.37795  0.39252  1.0000
  C   C28       1.0  0.38028  0.37312  0.38401  1.0000
  C   C29       1.0  0.37368  0.39282  0.38996  1.0000
  C   C30       1.0  0.39257  0.41779  0.40442  1.0000
  C   C31       1.0  0.41819  0.42272  0.41221  1.0000
  C   C32       1.0  0.42477  0.40301  0.40639  1.0000
  S   S20       1.0  0.44466  0.60868  0.03267  1.0000
  H   H45       1.0  0.35388  0.38856  0.38398  1.0000
  H   H46       1.0  0.43302  0.44191  0.42328  1.0000
  H   H47       1.0  0.44449  0.40718  0.41295  1.0000
  C   C33       1.0  0.37674  0.65841  0.08677  1.0000
  H   H48       1.0  0.14830  0.42025  0.49777  1.0000
  H   H49       1.0  0.22570  0.61637  0.37021  1.0000
  C   C34       1.0  0.35373  0.46047  0.18098  1.0000
  C   C35       1.0  0.36233  0.47600  0.14194  1.0000
  C   C36       1.0  0.20587  0.60854  0.35525  1.0000
  C   C37       1.0  0.44945  0.33406  0.19670  1.0000
  H   H50       1.0  0.15223  0.56876  0.46003  1.0000
  H   H51       1.0  0.46250  0.56236  0.43591  1.0000
  C   C38       1.0  0.39870  0.47540  0.20172  1.0000
  C   C39       1.0  0.01789  0.60195  0.37674  1.0000
  C   C40       1.0  0.03914  0.62185  0.40088  1.0000
  C   C41       1.0  0.03381  0.63390  0.43682  1.0000
  H   H52       1.0  0.02168  0.59256  0.34871  1.0000
  H   H53       1.0  0.04983  0.64929  0.45565  1.0000
  C   C42       1.0  0.38747  0.54322  0.17120  1.0000
  C   C43       1.0  0.36077  0.53153  0.16161  1.0000
  C   C44       1.0  0.34224  0.51558  0.19439  1.0000
  C   C45       1.0  0.35017  0.51156  0.23732  1.0000
  C   C46       1.0  0.37686  0.52402  0.24742  1.0000
  C   C47       1.0  0.39537  0.53947  0.21433  1.0000
  H   H54       1.0  0.35442  0.53417  0.12853  1.0000
  H   H55       1.0  0.32165  0.50609  0.18627  1.0000
  H   H56       1.0  0.38332  0.52151  0.28042  1.0000
  H   H57       1.0  0.41597  0.54844  0.22203  1.0000
  H   H58       1.0  0.46329  0.33982  0.28536  1.0000
  C   C48       1.0  0.29703  0.57551  0.06127  1.0000
  H   H59       1.0  0.15467  0.57195  0.34490  1.0000
  H   H60       1.0  0.29679  0.57267  0.09760  1.0000
  H   H61       1.0  0.44705  0.34127  0.16311  1.0000
  C   C49       1.0  0.16673  0.62062  0.17405  1.0000
  C   C50       1.0  0.14851  0.62277  0.20154  1.0000
  C   C51       1.0  0.15589  0.63532  0.24407  1.0000
  C   C52       1.0  0.18160  0.64584  0.25945  1.0000
  C   C53       1.0  0.19965  0.64317  0.23240  1.0000
  C   C54       1.0  0.19231  0.63067  0.18987  1.0000
  H   H62       1.0  0.12869  0.61510  0.18958  1.0000
  C   C55       1.0  0.47333  0.38912  0.20941  1.0000
  C   C56       1.0  0.15919  0.37136  0.46937  1.0000
  C   C57       1.0  0.36069  0.64021  0.11893  1.0000
  N   N2        1.0  0.18530  0.59736  0.39071  1.0000
  C   C58       1.0  0.15983  0.58871  0.36795  1.0000
  C   C59       1.0  0.18445  0.57521  0.41576  1.0000
  C   C60       1.0  0.20168  0.56557  0.40645  1.0000
  C   C61       1.0  0.16593  0.56256  0.45090  1.0000
  H   H63       1.0  0.49346  0.53367  0.49494  1.0000
  H   H64       1.0  0.02841  0.56329  0.45473  1.0000
  C   C62       1.0  0.07592  0.53854  0.06241  1.0000
  H   H65       1.0  0.19248  0.63617  0.40500  1.0000
  H   H66       1.0  0.14359  0.58255  0.39264  1.0000
  H   H67       1.0  0.16015  0.60468  0.34726  1.0000
  H   H68       1.0  0.30265  0.63394  0.09022  1.0000
  C   C63       1.0  0.04851  0.52207  0.05640  1.0000
  C   C64       1.0  0.24038  0.46758  0.47089  1.0000
  H   H69       1.0  0.10291  0.51386  0.06901  1.0000
  H   H70       1.0  0.14180  0.63725  0.26457  1.0000
  C   C65       1.0  0.32343  0.64155  0.08790  1.0000
  S   S21       1.0  0.48748  0.37963  0.35939  1.0000
  S   S22       1.0  0.07162  0.63064  0.38428  1.0000
  H   H71       1.0  0.40135  0.33648  0.25504  1.0000
  H   H72       1.0  0.39540  0.47297  0.29511  1.0000
  C   C66       1.0  0.38890  0.49128  0.13293  1.0000
  C   C67       1.0  0.11365  0.53325  0.05213  1.0000
  H   H73       1.0  0.11776  0.60034  0.48570  1.0000
  C   C68       1.0  0.47880  0.42682  0.25081  1.0000
  H   H74       1.0  0.36755  0.41287  0.22567  1.0000
  S   S23       1.0  0.47153  0.36037  0.46608  1.0000
  H   H75       1.0  0.26813  0.51331  0.01228  1.0000
  H   H76       1.0  0.20266  0.59389  0.32868  1.0000
  H   H77       1.0  0.36749  0.41344  0.28696  1.0000
  C   C69       1.0  0.19037  0.61862  0.42290  1.0000
  C   C70       1.0  0.44555  0.38352  0.27360  1.0000
  H   H78       1.0  0.32913  0.56869  0.05021  1.0000
  C   C71       1.0  0.37401  0.42589  0.25587  1.0000
  S   S24       1.0  0.26577  0.43852  0.48101  1.0000
  H   H79       1.0  0.20849  0.62469  0.44295  1.0000
  C   C72       1.0  0.06637  0.55327  0.13404  1.0000
  C   C73       1.0  0.45850  0.41052  0.27969  1.0000
  H   H80       1.0  0.39569  0.43642  0.25692  1.0000
  H   H81       1.0  0.45289  0.41873  0.30741  1.0000
  C   C74       1.0  0.18193  0.53280  0.46544  1.0000
  C   C75       1.0  0.03078  0.52136  0.08850  1.0000
  H   H82       1.0  0.39547  0.50417  0.10366  1.0000
  H   H83       1.0  0.17422  0.61277  0.44758  1.0000
  H   H84       1.0  0.20600  0.62515  0.33720  1.0000
  C   C76       1.0  0.41102  0.33282  0.22591  1.0000
  H   H85       1.0  0.04024  0.50953  0.02724  1.0000
  C   C77       1.0  0.27883  0.58100  0.04118  1.0000
  H   H86       1.0  0.41355  0.47639  0.22437  1.0000
  C   C78       1.0  0.45279  0.37190  0.23873  1.0000
  C   C79       1.0  0.37174  0.45959  0.21205  1.0000
  C   C80       1.0  0.31545  0.57338  0.03450  1.0000
  H   H87       1.0  0.41440  0.54124  0.42944  1.0000
  H   H88       1.0  0.48025  0.38224  0.18178  1.0000
  H   H89       1.0  0.36537  0.35386  0.37339  1.0000
  H   H90       1.0  0.21363  0.53760  0.42368  1.0000
  H   H91       1.0  0.48895  0.44775  0.25582  1.0000
  C   C81       1.0  0.08423  0.55412  0.10221  1.0000
  S   S25       1.0  0.41294  0.35217  0.38468  1.0000
  Fe  Fe12      1.0  0.15588  0.65415  0.46596  1.0000
  N   N3        1.0  0.09538  0.53995  0.02930  1.0000
  C   C82       1.0  0.42418  0.55274  0.45904  1.0000
  Fe  Fe13      1.0  0.11482  0.65640  0.40591  1.0000
  H   H92       1.0  0.42770  0.50371  0.15627  1.0000
  Fe  Fe14      1.0  0.42390  0.63089  0.02042  1.0000
  H   H93       1.0  0.47453  0.62245  0.43350  1.0000
  C   C83       1.0  0.16473  0.54168  0.47521  1.0000
  Fe  Fe15      1.0  0.49397  0.34557  0.35220  1.0000
  H   H94       1.0  0.43587  0.61747  0.46127  1.0000
  H   H95       1.0  0.36730  0.45076  0.32660  1.0000
  N   N4        1.0  0.36347  0.44394  0.25438  1.0000
  C   C84       1.0  0.37373  0.46163  0.29393  1.0000
  C   C85       1.0  0.33466  0.42802  0.25965  1.0000
  C   C86       1.0  0.33415  0.63201  0.11979  1.0000
  C   C87       1.0  0.46438  0.58034  0.50038  1.0000
  H   H96       1.0  0.02587  0.53631  0.15199  1.0000
  C   C88       1.0  0.40705  0.49103  0.16279  1.0000
  H   H97       1.0  0.10471  0.56717  0.10905  1.0000
  C   C89       1.0  0.01304  0.56206  0.47804  1.0000
  C   C90       1.0  0.16257  0.39630  0.47236  1.0000
  H   H98       1.0  0.43003  0.37175  0.29701  1.0000
  N   N5        1.0  0.43925  0.34314  0.23424  1.0000
  H   H99       1.0  0.21641  0.57379  0.38037  1.0000
  H   H100      1.0  0.32562  0.44058  0.26191  1.0000
  C   C91       1.0  0.00770  0.62640  0.44785  1.0000
  H   H101      1.0  0.32550  0.41412  0.23102  1.0000
  H   H102      1.0  0.17959  0.41267  0.45705  1.0000
  H   H103      1.0  0.36669  0.47584  0.29311  1.0000
  H   H104      1.0  0.32912  0.41633  0.29158  1.0000
  C   C92       1.0  0.20033  0.54469  0.43111  1.0000
  H   H105      1.0  0.07334  0.56543  0.16414  1.0000
  H   H106      1.0  0.40791  0.34198  0.19526  1.0000
  H   H107      1.0  0.43285  0.33516  0.30643  1.0000
  H   H108      1.0  0.32161  0.61763  0.14457  1.0000
  H   H109      1.0  0.36881  0.63225  0.14293  1.0000
  C   C93       1.0  0.47860  0.64132  0.41794  1.0000
  H   H110      1.0  0.00779  0.57645  0.46501  1.0000
  H   H111      1.0  0.28892  0.63598  0.01846  1.0000
  H   H112      1.0  0.48378  0.45853  0.46785  1.0000
  C   C94       1.0  0.22167  0.47464  0.48343  1.0000
  H   H113      1.0  0.39739  0.66467  0.08606  1.0000
  H   H114      1.0  0.15038  0.53231  0.50191  1.0000
  H   H115      1.0  0.47049  0.34046  0.20187  1.0000
  C   C95       1.0  0.46597  0.65564  0.48774  1.0000
  C   C96       1.0  0.13756  0.35040  0.48956  1.0000
  C   C97       1.0  0.14448  0.40042  0.49583  1.0000
  S   S26       1.0  0.37590  0.54282  0.48782  1.0000
  C   C98       1.0  0.33914  0.65957  0.05373  1.0000
  H   H116      1.0  0.21955  0.65110  0.24419  1.0000
  H   H117      1.0  0.29412  0.66341  0.05291  1.0000
  H   H118      1.0  0.12757  0.53256  0.02755  1.0000
  C   C99       1.0  0.24226  0.44812  0.49484  1.0000
  C   C100      1.0  0.40981  0.55620  0.49311  1.0000
  C   C101      1.0  0.29958  0.65765  0.02066  1.0000
  S   S27       1.0  0.19248  0.66329  0.31118  1.0000
  H   H119      1.0  0.12233  0.58131  0.03771  1.0000
  C   C102      1.0  0.23565  0.51828  0.02926  1.0000
  H   H120      1.0  0.09151  0.55224  0.49390  1.0000
  N   N6        1.0  0.48635  0.66191  0.45303  1.0000
  H   H121      1.0  0.23795  0.51692  0.06554  1.0000
  C   C103      1.0  0.49639  0.47882  0.47716  1.0000
  H   H122      1.0  0.20395  0.52573  0.03661  1.0000
  C   C104      1.0  0.11056  0.56684  0.01103  1.0000
  S   S28       1.0  0.49857  0.59644  0.50290  1.0000
  C   C105      1.0  0.21654  0.52335  0.01285  1.0000
  H   H123      1.0  0.27930  0.46505  0.57030  1.0000
  S   S29       1.0  0.22556  0.59988  0.96821  1.0000
  C   C106      1.0  0.08362  0.52201  0.99005  1.0000
  Fe  Fe16      1.0  0.18211  0.57762  0.97737  1.0000
  S   S30       1.0  0.15166  0.54429  0.93423  1.0000
  C   C107      1.0  0.09343  0.39757  0.51431  1.0000
  S   S31       1.0  0.33700  0.57196  0.95278  1.0000
  Fe  Fe17      1.0  0.42917  0.59044  0.96447  1.0000
  S   S32       1.0  0.45838  0.58835  0.91672  1.0000
  C   C108      1.0  0.20474  0.46275  0.52050  1.0000
  S   S33       1.0  0.41080  0.61479  0.95045  1.0000
  C   C109      1.0  0.29956  0.47695  0.58339  1.0000
  Fe  Fe18      1.0  0.14330  0.49341  0.67582  1.0000
  S   S34       1.0  0.13792  0.45423  0.65550  1.0000
  S   S35       1.0  0.17080  0.51879  0.73272  1.0000
  Fe  Fe19      1.0  0.11647  0.49689  0.58960  1.0000
  S   S36       1.0  0.11009  0.45885  0.56283  1.0000
  S   S37       1.0  0.18143  0.47262  0.53424  1.0000
  Fe  Fe20      1.0  0.09689  0.44449  0.63384  1.0000
  S   S38       1.0  0.05936  0.40462  0.64212  1.0000
  Fe  Fe21      1.0  0.15125  0.47156  0.58547  1.0000
  H   H124      1.0  0.26507  0.58826  0.97823  1.0000
  S   S39       1.0  0.10160  0.48230  0.65985  1.0000
  S   S40       1.0  0.15834  0.51103  0.60668  1.0000
  C   C110      1.0  0.48386  0.38480  0.57898  1.0000
  H   H125      1.0  0.00925  0.35752  0.65215  1.0000
  H   H126      1.0  0.07252  0.50128  0.00119  1.0000
  H   H127      1.0  0.29728  0.55726  0.67997  1.0000
  C   C111      1.0  0.25069  0.51937  0.95250  1.0000
  H   H128      1.0  0.32509  0.54363  0.64312  1.0000
  C   C112      1.0  0.00606  0.47746  0.53701  1.0000
  C   C113      1.0  0.14028  0.56435  0.56857  1.0000
  C   C114      1.0  0.26769  0.50348  0.58798  1.0000
  H   H129      1.0  0.14658  0.55440  0.59171  1.0000
  C   C115      1.0  0.14723  0.60452  0.53357  1.0000
  C   C116      1.0  0.30487  0.53410  0.63271  1.0000
  S   S41       1.0  0.09937  0.51604  0.54621  1.0000
  H   H130      1.0  0.45979  0.59506  0.56440  1.0000
  Fe  Fe22      1.0  0.37563  0.58315  0.98610  1.0000
  C   C117      1.0  0.02093  0.41809  0.62498  1.0000
  C   C118      1.0  0.02649  0.39842  0.63644  1.0000
  S   S42       1.0  0.16694  0.63830  0.52613  1.0000
  H   H131      1.0  0.03681  0.43778  0.61963  1.0000
  H   H132      1.0  0.07061  0.52674  0.96983  1.0000
  C   C119      1.0  0.46446  0.60035  0.86007  1.0000
  C   C120      1.0  0.44810  0.60756  0.83792  1.0000
  C   C121      1.0  0.45330  0.61666  0.79278  1.0000
  H   H133      1.0  0.25051  0.53732  0.65927  1.0000
  H   H134      1.0  0.43118  0.60570  0.85527  1.0000
  H   H135      1.0  0.31765  0.53050  0.51752  1.0000
  C   C122      1.0  0.15590  0.53875  0.87646  1.0000
  C   C123      1.0  0.13714  0.51557  0.85527  1.0000
  C   C124      1.0  0.14068  0.50972  0.81034  1.0000
  C   C125      1.0  0.16319  0.52693  0.78631  1.0000
  C   C126      1.0  0.18167  0.55035  0.80723  1.0000
  C   C127      1.0  0.17790  0.55640  0.85181  1.0000
  H   H136      1.0  0.11997  0.50181  0.87391  1.0000
  H   H137      1.0  0.12641  0.49154  0.79482  1.0000
  H   H138      1.0  0.19903  0.56387  0.78877  1.0000
  H   H139      1.0  0.19214  0.57462  0.86721  1.0000
  H   H140      1.0  0.20051  0.51297  0.83174  1.0000
  C   C128      1.0  0.29727  0.58183  0.96726  1.0000
  H   H141      1.0  0.06961  0.34703  0.53638  1.0000
  H   H142      1.0  0.29726  0.58406  0.93082  1.0000
  N   N7        1.0  0.10423  0.38483  0.54368  1.0000
  S   S43       1.0  0.48061  0.63109  0.71280  1.0000
  H   H143      1.0  0.04632  0.50770  0.53867  1.0000
  C   C129      1.0  0.15517  0.59153  0.56377  1.0000
  H   H144      1.0  0.34826  0.54004  0.58197  1.0000
  C   C130      1.0  0.48619  0.60259  0.83668  1.0000
  H   H145      1.0  0.41369  0.64009  0.58244  1.0000
  H   H146      1.0  0.44038  0.62197  0.77586  1.0000
  H   H147      1.0  0.48906  0.35190  0.63017  1.0000
  H   H148      1.0  0.29192  0.66454  0.99251  1.0000
  H   H149      1.0  0.41170  0.57384  0.55795  1.0000
  H   H150      1.0  0.23363  0.56044  0.84234  1.0000
  H   H151      1.0  0.10318  0.33727  0.52836  1.0000
  C   C131      1.0  0.02167  0.52174  0.51144  1.0000
  N   N8        1.0  0.22936  0.52907  0.88559  1.0000
  C   C132      1.0  0.08173  0.36108  0.56332  1.0000
  H   H152      1.0  0.25492  0.57051  0.89119  1.0000
  C   C133      1.0  0.11740  0.55016  0.54319  1.0000
  C   C134      1.0  0.02651  0.50277  0.52988  1.0000
  H   H153      1.0  0.02172  0.56900  0.51232  1.0000
  C   C135      1.0  0.22505  0.43595  0.53154  1.0000
  C   C136      1.0  0.12236  0.37961  0.51728  1.0000
  H   H154      1.0  0.29920  0.47275  0.62030  1.0000
  C   C137      1.0  0.10922  0.56321  0.51354  1.0000
  C   C138      1.0  0.28905  0.54218  0.65424  1.0000
  C   C139      1.0  0.42252  0.62711  0.52035  1.0000
  H   H155      1.0  0.47609  0.39250  0.60536  1.0000
  H   H156      1.0  0.17300  0.60242  0.58314  1.0000
  H   H157      1.0  0.34045  0.51574  0.62617  1.0000
  H   H158      1.0  0.22109  0.56013  0.89746  1.0000
  H   H159      1.0  0.23158  0.50305  0.60031  1.0000
  H   H160      1.0  0.10549  0.40615  0.60369  1.0000
  H   H161      1.0  0.19703  0.49019  0.87553  1.0000
  H   H162      1.0  0.18755  0.51414  0.88528  1.0000
  N   N9        1.0  0.31051  0.50524  0.57501  1.0000
  C   C140      1.0  0.23500  0.55620  0.87880  1.0000
  C   C141      1.0  0.11867  0.40252  0.58187  1.0000
  H   H163      1.0  0.22612  0.42079  0.55031  1.0000
  C   C142      1.0  0.00533  0.37295  0.64333  1.0000
  H   H164      1.0  0.01001  0.46288  0.55124  1.0000
  C   C143      1.0  0.20253  0.51082  0.86896  1.0000
  C   C144      1.0  0.42273  0.57133  0.53123  1.0000
  H   H165      1.0  0.09884  0.52348  0.96602  1.0000
  C   C145      1.0  0.29456  0.51438  0.59877  1.0000
  H   H166      1.0  0.12798  0.39415  0.60388  1.0000
  H   H167      1.0  0.32604  0.63970  0.97107  1.0000
  C   C146      1.0  0.21434  0.52644  0.96627  1.0000
  C   C147      1.0  0.23140  0.52460  0.93458  1.0000
  H   H168      1.0  0.49894  0.59703  0.85352  1.0000
  C   C148      1.0  0.44999  0.58340  0.53488  1.0000
  H   H169      1.0  0.19381  0.43385  0.57305  1.0000
  H   H170      1.0  0.40393  0.60902  0.51923  1.0000
  Fe  Fe23      1.0  0.22331  0.63469  0.99187  1.0000
  H   H171      1.0  0.26514  0.51844  0.93157  1.0000
  C   C149      1.0  0.33834  0.51876  0.58946  1.0000
  C   C150      1.0  0.47500  0.61889  0.76931  1.0000
  H   H172      1.0  0.12462  0.56835  0.98444  1.0000
  C   C151      1.0  0.31002  0.50953  0.52549  1.0000
  C   C152      1.0  0.25207  0.51170  0.60955  1.0000
  C   C153      1.0  0.20668  0.44337  0.54464  1.0000
  H   H173      1.0  0.34967  0.51136  0.57067  1.0000
  H   H174      1.0  0.25854  0.48852  0.56252  1.0000
  H   H175      1.0  0.31108  0.46937  0.56589  1.0000
  H   H176      1.0  0.19953  0.53092  0.95541  1.0000
  H   H177      1.0  0.08827  0.35123  0.58795  1.0000
  H   H178      1.0  0.26853  0.53965  0.86548  1.0000
  S   S44       1.0  0.17953  0.61318  0.99468  1.0000
  S   S45       1.0  0.39279  0.55691  0.99502  1.0000
  C   C154      1.0  0.49153  0.61192  0.79156  1.0000
  H   H179      1.0  0.13445  0.42189  0.57000  1.0000
  C   C155      1.0  0.31544  0.57633  0.98740  1.0000
  H   H180      1.0  0.06849  0.36593  0.58265  1.0000
  H   H181      1.0  0.48523  0.39478  0.54615  1.0000
  H   H182      1.0  0.09748  0.57318  0.99546  1.0000
  H   H183      1.0  0.24463  0.50528  0.86027  1.0000
  C   C156      1.0  0.12415  0.59038  0.50864  1.0000
  H   H184      1.0  0.46993  0.65389  0.96727  1.0000
  C   C157      1.0  0.24781  0.52538  0.85676  1.0000
  H   H185      1.0  0.46894  0.36388  0.57358  1.0000
  C   C158      1.0  0.26272  0.53100  0.64267  1.0000
  H   H186      1.0  0.24534  0.52833  0.82008  1.0000
  H   H187      1.0  0.48750  0.64348  0.93131  1.0000
  H   H188      1.0  0.46191  0.64758  0.90821  1.0000
  C   C159      1.0  0.42796  0.64457  0.55589  1.0000
  C   C160      1.0  0.47841  0.65598  0.93277  1.0000
  C   C161      1.0  0.27911  0.58433  0.99410  1.0000
  H   H189      1.0  0.29020  0.49811  0.51057  1.0000
  H   H190      1.0  0.07905  0.40104  0.53299  1.0000
  C   C162      1.0  0.25263  0.51626  0.99918  1.0000
  C   C163      1.0  0.33371  0.66113  0.97255  1.0000
  H   H191      1.0  0.41333  0.66291  0.95635  1.0000
  C   C164      1.0  0.11933  0.35431  0.51324  1.0000
  H   H192      1.0  0.03855  0.54085  0.50663  1.0000
  H   H193      1.0  0.32231  0.50342  0.50678  1.0000
  S   S46       1.0  0.13327  0.67492  0.47314  1.0000
  N   N10       1.0  0.36669  0.82657  0.45999  1.0000
  S   S47       1.0  0.40044  0.77356  0.04454  1.0000
  H   H194      1.0  0.26393  0.75332  0.11028  1.0000
  H   H195      1.0  0.24029  0.74236  0.17247  1.0000
  Fe  Fe24      1.0  0.43183  0.81573  0.04184  1.0000
  S   S48       1.0  0.46693  0.83759  0.08885  1.0000
  H   H196      1.0  0.41500  0.81909  0.33988  1.0000
  S   S49       1.0  0.14625  0.69047  0.36548  1.0000
  S   S50       1.0  0.33459  0.76975  0.05902  1.0000
  Fe  Fe25      1.0  0.16661  0.70701  0.43314  1.0000
  S   S51       1.0  0.18610  0.74863  0.46277  1.0000
  C   C165      1.0  0.48912  0.84819  0.17394  1.0000
  C   C166      1.0  0.38846  0.82420  0.44061  1.0000
  H   H197      1.0  0.37869  0.82323  0.36818  1.0000
  C   C167      1.0  0.48224  0.77737  0.17788  1.0000
  H   H198      1.0  0.44636  0.81717  0.39258  1.0000
  H   H199      1.0  0.35733  0.84225  0.40124  1.0000
  C   C168      1.0  0.22032  0.72606  0.16495  1.0000
  C   C169      1.0  0.23862  0.69842  0.15050  1.0000
  C   C170      1.0  0.21918  0.77057  0.47993  1.0000
  H   H200      1.0  0.45290  0.90571  0.45911  1.0000
  Fe  Fe26      1.0  0.16741  0.66764  0.36535  1.0000
  C   C171      1.0  0.46626  0.83296  0.14846  1.0000
  C   C172      1.0  0.44429  0.81064  0.21802  1.0000
  C   C173      1.0  0.44379  0.81423  0.17076  1.0000
  H   H201      1.0  0.42688  0.79590  0.23487  1.0000
  H   H202      1.0  0.42610  0.80231  0.15158  1.0000
  C   C174      1.0  0.36622  0.66808  0.05478  1.0000
  C   C175      1.0  0.43035  0.81908  0.40584  1.0000
  C   C176      1.0  0.34072  0.69759  0.01909  1.0000
  H   H203      1.0  0.47561  0.71761  0.16341  1.0000
  H   H204      1.0  0.45127  0.72428  0.05421  1.0000
  C   C177      1.0  0.48957  0.84470  0.22126  1.0000
  C   C178      1.0  0.46715  0.82580  0.24349  1.0000
  H   H205      1.0  0.19882  0.68522  0.04747  1.0000
  N   N11       1.0  0.32828  0.66874  0.01739  1.0000
  H   H206      1.0  0.25871  0.68219  0.04994  1.0000
  Fe  Fe27      1.0  0.37348  0.78815  0.02385  1.0000
  C   C179      1.0  0.47512  0.75347  0.15787  1.0000
  N   N12       1.0  0.22029  0.70660  0.13315  1.0000
  H   H207      1.0  0.37308  0.88376  0.03240  1.0000
  H   H208      1.0  0.47743  0.79076  0.16110  1.0000
  C   C180      1.0  0.19353  0.68348  0.13369  1.0000
  C   C181      1.0  0.22883  0.71802  0.08728  1.0000
  H   H209      1.0  0.36155  0.85497  0.49736  1.0000
  C   C182      1.0  0.25186  0.74263  0.08168  1.0000
  H   H210      1.0  0.33815  0.70423  0.05304  1.0000
  C   C183      1.0  0.46904  0.88274  0.48484  1.0000
  H   H211      1.0  0.23325  0.69009  0.18535  1.0000
  H   H212      1.0  0.34479  0.78569  0.47631  1.0000
  C   C184      1.0  0.44636  0.90114  0.02949  1.0000
  H   H213      1.0  0.21192  0.71725  0.19866  1.0000
  H   H214      1.0  0.47439  0.88825  0.08991  1.0000
  C   C185      1.0  0.35184  0.80500  0.49266  1.0000
  H   H215      1.0  0.39582  0.88506  0.10382  1.0000
  H   H216      1.0  0.46479  0.74832  0.12570  1.0000
  H   H217      1.0  0.23868  0.68330  0.12819  1.0000
  H   H218      1.0  0.17905  0.68803  0.11840  1.0000
  H   H219      1.0  0.20862  0.73448  0.15102  1.0000
  S   S52       1.0  0.18959  0.68659  0.42948  1.0000
  H   H220      1.0  0.33870  0.80695  0.40625  1.0000
  H   H221      1.0  0.36205  0.70762  0.01202  1.0000
  C   C186      1.0  0.29275  0.72030  0.05394  1.0000
  H   H222      1.0  0.43644  0.95746  0.47365  1.0000
  H   H223      1.0  0.49850  0.72846  0.23574  1.0000
  C   C187      1.0  0.34785  0.82563  0.42545  1.0000
  C   C188      1.0  0.45446  0.89533  0.48814  1.0000
  H   H224      1.0  0.27871  0.77192  0.03520  1.0000
  H   H225      1.0  0.37941  0.68193  0.03023  1.0000
  C   C189      1.0  0.26060  0.75349  0.03865  1.0000
  C   C190      1.0  0.49443  0.74275  0.22105  1.0000
  H   H226      1.0  0.47830  0.88318  0.45326  1.0000
  C   C191      1.0  0.43328  0.69179  0.00816  1.0000
  S   S53       1.0  0.46688  0.81976  0.30257  1.0000
  C   C192      1.0  0.39177  0.82258  0.39309  1.0000
  H   H227      1.0  0.29383  0.72018  0.09059  1.0000
  H   H228      1.0  0.23657  0.75230  0.44184  1.0000
  C   C193      1.0  0.31090  0.74226  0.02964  1.0000
  H   H229      1.0  0.40475  0.94802  0.49572  1.0000
  C   C194      1.0  0.40734  0.82355  0.46970  1.0000
  C   C195      1.0  0.21572  0.70455  0.04697  1.0000
  C   C196      1.0  0.41253  0.82014  0.37621  1.0000
  C   C197      1.0  0.40630  0.88971  0.07190  1.0000
  H   H230      1.0  0.43500  0.75013  0.01346  1.0000
  H   H231      1.0  0.47470  0.68506  0.41396  1.0000
  H   H232      1.0  0.33154  0.82708  0.44142  1.0000
  H   H233      1.0  0.25904  0.71502  0.15210  1.0000
  C   C198      1.0  0.39343  0.88896  0.03173  1.0000
  H   H234      1.0  0.39000  0.86848  0.46176  1.0000
  S   S54       1.0  0.44478  0.67376  0.03768  1.0000
  H   H235      1.0  0.47952  0.76335  0.32186  1.0000
  C   C199      1.0  0.27299  0.69865  0.03092  1.0000
  H   H236      1.0  0.44184  0.82008  0.47528  1.0000
  C   C200      1.0  0.42286  0.96479  0.48155  1.0000
  H   H237      1.0  0.28195  0.78379  0.46630  1.0000
  C   C201      1.0  0.42771  0.82068  0.45243  1.0000
  H   H238      1.0  0.48912  0.94781  0.02192  1.0000
  S   S55       1.0  0.40424  0.83058  0.02713  1.0000
  C   C202      1.0  0.37736  0.85175  0.48430  1.0000
  C   C203      1.0  0.24018  0.76795  0.46487  1.0000
  H   H239      1.0  0.44085  0.89522  0.10334  1.0000
  H   H240      1.0  0.18681  0.67644  0.16889  1.0000
  C   C204      1.0  0.43953  0.71654  0.02392  1.0000
  C   C205      1.0  0.48540  0.90725  0.07179  1.0000
  H   H241      1.0  0.46123  0.86617  0.01496  1.0000
  C   C206      1.0  0.49536  0.78407  0.21954  1.0000
  C   C207      1.0  0.48124  0.73621  0.17931  1.0000
  H   H242      1.0  0.19252  0.66657  0.11543  1.0000
  C   C208      1.0  0.26599  0.78595  0.47879  1.0000
  C   C209      1.0  0.43236  0.89565  0.07107  1.0000
  H   H243      1.0  0.41712  0.97010  0.44909  1.0000
  H   H244      1.0  0.49871  0.79750  0.31027  1.0000
  H   H245      1.0  0.48615  0.92286  0.09371  1.0000
  N   N13       1.0  0.47359  0.90641  0.02675  1.0000
  C   C210      1.0  0.49253  0.68655  0.42967  1.0000
  S   S56       1.0  0.49764  0.81837  0.41660  1.0000
  H   H246      1.0  0.33449  0.80537  0.50618  1.0000
  H   H247      1.0  0.40666  0.82551  0.50608  1.0000
  C   C211      1.0  0.41156  0.99465  0.64488  1.0000
  Fe  Fe28      1.0  0.41065  0.82609  0.95306  1.0000
  S   S57       1.0  0.42219  0.85827  0.90031  1.0000
  C   C212      1.0  0.43803  0.97636  0.55803  1.0000
  S   S58       1.0  0.40325  0.73868  0.93215  1.0000
  S   S59       1.0  0.37750  0.78493  0.94881  1.0000
  H   H248      1.0  0.15944  0.70931  0.56264  1.0000
  Fe  Fe29      1.0  0.35901  0.87319  0.66644  1.0000
  S   S60       1.0  0.32626  0.87893  0.64011  1.0000
  S   S61       1.0  0.35057  0.84818  0.73030  1.0000
  Fe  Fe30      1.0  0.39076  0.89620  0.58018  1.0000
  S   S62       1.0  0.35996  0.90245  0.54865  1.0000
  H   H249      1.0  0.42564  0.78711  0.74208  1.0000
  Fe  Fe31      1.0  0.35899  0.91875  0.61703  1.0000
  S   S63       1.0  0.36090  0.95852  0.61627  1.0000
  Fe  Fe32      1.0  0.33058  0.86233  0.57370  1.0000
  H   H250      1.0  0.47977  0.70086  0.96234  1.0000
  S   S64       1.0  0.39107  0.91386  0.64774  1.0000
  S   S65       1.0  0.36212  0.85530  0.60116  1.0000
  H   H251      1.0  0.39788  0.98154  0.53643  1.0000
  H   H252      1.0  0.18395  0.69203  0.53080  1.0000
  H   H253      1.0  0.25443  0.74805  0.96660  1.0000
  C   C213      1.0  0.24029  0.77155  0.67145  1.0000
  H   H254      1.0  0.41333  0.97809  0.65530  1.0000
  H   H255      1.0  0.37163  0.74330  0.86392  1.0000
  H   H256      1.0  0.48468  0.93189  0.96813  1.0000
  H   H257      1.0  0.35495  0.67092  0.96516  1.0000
  H   H258      1.0  0.40732  0.75126  0.82187  1.0000
  C   C214      1.0  0.38803  0.99051  0.62604  1.0000
  C   C215      1.0  0.45860  0.86850  0.56283  1.0000
  C   C216      1.0  0.44332  0.88047  0.56579  1.0000
  N   N14       1.0  0.43496  0.98686  0.51403  1.0000
  H   H259      1.0  0.46048  0.85839  0.59197  1.0000
  H   H260      1.0  0.43346  0.87965  0.59716  1.0000
  C   C217      1.0  0.40174  0.85616  0.85435  1.0000
  C   C218      1.0  0.41223  0.87425  0.81852  1.0000
  C   C219      1.0  0.39685  0.87236  0.78038  1.0000
  C   C220      1.0  0.37073  0.85246  0.77803  1.0000
  C   C221      1.0  0.36019  0.83469  0.81427  1.0000
  C   C222      1.0  0.37561  0.83635  0.85204  1.0000
  H   H261      1.0  0.43243  0.88965  0.81996  1.0000
  H   H262      1.0  0.40519  0.88622  0.75282  1.0000
  H   H263      1.0  0.33992  0.81947  0.81305  1.0000
  H   H264      1.0  0.36724  0.82230  0.87933  1.0000
  S   S66       1.0  0.24649  0.67235  0.95367  1.0000
  C   C223      1.0  0.40964  0.69674  0.94510  1.0000
  H   H265      1.0  0.32566  0.72410  0.87986  1.0000
  H   H266      1.0  0.32259  0.75969  0.96340  1.0000
  H   H267      1.0  0.39816  0.68902  0.91447  1.0000
  C   C224      1.0  0.41555  0.77258  0.82690  1.0000
  C   C225      1.0  0.47415  0.88564  0.99967  1.0000
  H   H268      1.0  0.33220  0.70506  0.99341  1.0000
  C   C226      1.0  0.40467  0.77874  0.75110  1.0000
  H   H269      1.0  0.39648  0.89320  0.95907  1.0000
  C   C227      1.0  0.31904  0.74690  0.83037  1.0000
  H   H270      1.0  0.21635  0.70177  0.54889  1.0000
  Fe  Fe33      1.0  0.40663  0.77322  0.96963  1.0000
  H   H271      1.0  0.20110  0.68913  0.62884  1.0000
  N   N15       1.0  0.19687  0.71733  0.58921  1.0000
  C   C228      1.0  0.17674  0.72482  0.58104  1.0000
  H   H272      1.0  0.40583  0.82091  0.78771  1.0000
  S   S67       1.0  0.42467  0.91129  0.53193  1.0000
  C   C229      1.0  0.22035  0.73966  0.60959  1.0000
  C   C230      1.0  0.24508  0.75235  0.58770  1.0000
  C   C231      1.0  0.41670  0.99679  0.52148  1.0000
  C   C232      1.0  0.26657  0.77398  0.60731  1.0000
  H   H273      1.0  0.20856  0.79365  0.52158  1.0000
  C   C233      1.0  0.26418  0.78363  0.64896  1.0000
  N   N16       1.0  0.49766  0.68348  0.92226  1.0000
  H   H274      1.0  0.21501  0.70459  0.97373  1.0000
  C   C234      1.0  0.18609  0.69458  0.62040  1.0000
  C   C235      1.0  0.35690  0.77765  0.78739  1.0000
  H   H275      1.0  0.31843  0.77259  0.77929  1.0000
  H   H276      1.0  0.45638  0.68106  0.58565  1.0000
  H   H277      1.0  0.48566  0.67684  0.76494  1.0000
  C   C236      1.0  0.27130  0.69889  0.98356  1.0000
  H   H278      1.0  0.46739  0.88485  0.96411  1.0000
  H   H279      1.0  0.16944  0.72875  0.61298  1.0000
  S   S68       1.0  0.44045  0.81406  0.96772  1.0000
  H   H280      1.0  0.28508  0.78380  0.58953  1.0000
  H   H281      1.0  0.23849  0.77929  0.70369  1.0000
  H   H282      1.0  0.44185  0.90407  0.95641  1.0000
  C   C237      1.0  0.37314  0.77010  0.81064  1.0000
  C   C238      1.0  0.20203  0.70860  0.54522  1.0000
  H   H283      1.0  0.41497  0.77632  0.86381  1.0000
  H   H284      1.0  0.36472  0.79289  0.76196  1.0000
  H   H285      1.0  0.43536  0.82137  0.80215  1.0000
  C   C239      1.0  0.41399  0.81109  0.80883  1.0000
  H   H286      1.0  0.29845  0.73820  0.83821  1.0000
  H   H287      1.0  0.24826  0.74637  0.55490  1.0000
  H   H288      1.0  0.25390  0.82475  0.54709  1.0000
  H   H289      1.0  0.28782  0.72135  0.92283  1.0000
  C   C240      1.0  0.33437  0.73897  0.85375  1.0000
  H   H290      1.0  0.20044  0.74149  0.67051  1.0000
  C   C241      1.0  0.36099  0.75026  0.84414  1.0000
  H   H291      1.0  0.47030  0.67477  0.84236  1.0000
  H   H292      1.0  0.32470  0.66642  0.94428  1.0000
  H   H293      1.0  0.28085  0.80071  0.66350  1.0000
  N   N17       1.0  0.40133  0.78273  0.79977  1.0000
  C   C242      1.0  0.41826  0.68190  0.96879  1.0000
  C   C243      1.0  0.21866  0.74990  0.65217  1.0000
  H   H294      1.0  0.43660  0.78222  0.81772  1.0000
  C   C244      1.0  0.43272  0.90058  0.98938  1.0000
  C   C245      1.0  0.48470  0.69934  0.92644  1.0000
  C   C246      1.0  0.33028  0.76616  0.79717  1.0000
  H   H295      1.0  0.45062  0.96745  0.55461  1.0000
  H   H296      1.0  0.41138  0.81462  0.84503  1.0000
  H   H297      1.0  0.39690  0.78826  0.72829  1.0000
  H   H298      1.0  0.39436  0.75758  0.74263  1.0000
  C   C247      1.0  0.44172  0.89432  0.52864  1.0000
  C   C248      1.0  0.28944  0.72087  0.95934  1.0000
  C   C249      1.0  0.41540  0.72121  0.96139  1.0000
  H   H299      1.0  0.18471  0.74279  0.55985  1.0000
  H   H300      1.0  0.17890  0.69827  0.65272  1.0000
  C   C250      1.0  0.40663  0.89439  0.99054  1.0000
  C   C251      1.0  0.22451  0.79127  0.50970  1.0000
  C   C252      1.0  0.30926  0.74248  0.98227  1.0000
  C   C253      1.0  0.47168  0.86983  0.52243  1.0000
  C   C254      1.0  0.25029  0.80902  0.52426  1.0000
  C   C255      1.0  0.49050  0.68021  0.83772  1.0000
  S   S69       1.0  0.30456  0.82875  0.52442  1.0000
  H   H301      1.0  0.44635  0.99174  0.58459  1.0000
  H   H302      1.0  0.41889  0.96070  0.57136  1.0000
  H   H303      1.0  0.48897  0.69130  0.52715  1.0000
  H   H304      1.0  0.49747  0.71950  0.91353  1.0000
  H   H305      1.0  0.36364  0.80614  0.52290  1.0000
  H   H306      1.0  0.16922  0.67705  0.60480  1.0000
  C   C256      1.0  0.45193  0.66762  0.55761  1.0000
  H   H307      1.0  0.20905  0.72419  0.51916  1.0000
  C   C257      1.0  0.49033  0.93189  0.00418  1.0000
  H   H308      1.0  0.49408  0.88819  0.99800  1.0000
  H   H309      1.0  0.46579  0.69068  0.90792  1.0000
  H   H310      1.0  0.38940  0.85286  0.51414  1.0000
  C   C258      1.0  0.27131  0.80666  0.50854  1.0000
  C   C259      1.0  0.24703  0.74001  0.99995  1.0000
  C   C260      1.0  0.47058  0.67325  0.52392  1.0000
  S   S70       1.0  0.49185  0.85602  0.52028  1.0000
  C   C261      1.0  0.22475  0.71555  0.00409  1.0000
  C   C262      1.0  0.43033  0.73114  0.00089  1.0000
  H   H311      1.0  0.67887  0.25919  0.07268  1.0000
  S   S71       1.0  0.63196  0.21156  0.09069  1.0000
  C   C263      1.0  0.52111  0.25629  0.37537  1.0000
  Fe  Fe34      1.0  0.60486  0.22011  0.05080  1.0000
  S   S72       1.0  0.59784  0.25068  0.08201  1.0000
  Fe  Fe35      1.0  0.60300  0.16960  0.07802  1.0000
  S   S73       1.0  0.59031  0.14141  0.13802  1.0000
  Fe  Fe36      1.0  0.61975  0.11121  0.43870  1.0000
  S   S74       1.0  0.62163  0.16807  0.01248  1.0000
  H   H312      1.0  0.65570  0.01657  0.26784  1.0000
  Fe  Fe37      1.0  0.65746  0.12637  0.35988  1.0000
  S   S75       1.0  0.68700  0.12198  0.40232  1.0000
  S   S76       1.0  0.66795  0.13831  0.28584  1.0000
  Fe  Fe38      1.0  0.65187  0.08472  0.42757  1.0000
  S   S77       1.0  0.65011  0.04556  0.44014  1.0000
  Fe  Fe39      1.0  0.67894  0.14373  0.45697  1.0000
  C   C264      1.0  0.61016  0.02029  0.27000  1.0000
  S   S78       1.0  0.62336  0.08803  0.38182  1.0000
  S   S79       1.0  0.65122  0.15005  0.41281  1.0000
  S   S80       1.0  0.69175  0.23026  0.00941  1.0000
  H   H313      1.0  0.73666  0.26619  0.13405  1.0000
  H   H314      1.0  0.74705  0.23745  0.20717  1.0000
  H   H315      1.0  0.65294  0.06301  0.34982  1.0000
  H   H316      1.0  0.71477  0.22222  0.09727  1.0000
  C   C265      1.0  0.62718  0.01364  0.42019  1.0000
  H   H317      1.0  0.64080  0.08614  0.25252  1.0000
  H   H318      1.0  0.70625  0.30198  0.10945  1.0000
  H   H319      1.0  0.74924  0.23304  0.14787  1.0000
  H   H320      1.0  0.60563  0.02521  0.37623  1.0000
  H   H321      1.0  0.56404  0.04131  0.45492  1.0000
  H   H322      1.0  0.66995  0.05425  0.21273  1.0000
  H   H323      1.0  0.56692  0.23154  0.45811  1.0000
  H   H324      1.0  0.68516  0.22023  0.11319  1.0000
  C   C266      1.0  0.75124  0.30286  0.03692  1.0000
  C   C267      1.0  0.61241  0.14185  0.17946  1.0000
  C   C268      1.0  0.63874  0.15133  0.16946  1.0000
  C   C269      1.0  0.65544  0.14997  0.20227  1.0000
  C   C270      1.0  0.64615  0.13967  0.24575  1.0000
  C   C271      1.0  0.61989  0.13047  0.25599  1.0000
  C   C272      1.0  0.60307  0.13129  0.22280  1.0000
  H   H325      1.0  0.64598  0.15906  0.13600  1.0000
  H   H326      1.0  0.67567  0.15700  0.19398  1.0000
  H   H327      1.0  0.61246  0.12245  0.28925  1.0000
  H   H328      1.0  0.58269  0.12379  0.23075  1.0000
  N   N18       1.0  0.65838  0.05358  0.28207  1.0000
  C   C273      1.0  0.50730  0.03797  0.49944  1.0000
  C   C274      1.0  0.60768  0.00910  0.38840  1.0000
  H   H329      1.0  0.52224  0.22105  0.37942  1.0000
  S   S81       1.0  0.57405  0.17797  0.04230  1.0000
  C   C275      1.0  0.52123  0.27673  0.39880  1.0000
  C   C276      1.0  0.71447  0.29556  0.08319  1.0000
  C   C277      1.0  0.69899  0.27122  0.06267  1.0000
  H   H330      1.0  0.51921  0.25543  0.33868  1.0000
  C   C278      1.0  0.52336  0.27781  0.44593  1.0000
  H   H331      1.0  0.66776  0.09053  0.31234  1.0000
  N   N19       1.0  0.71271  0.22965  0.16878  1.0000
  C   C279      1.0  0.73550  0.22610  0.17716  1.0000
  C   C280      1.0  0.70041  0.21605  0.12558  1.0000
  C   C281      1.0  0.72261  0.25791  0.16283  1.0000
  C   C282      1.0  0.69329  0.21963  0.20602  1.0000
  H   H332      1.0  0.66463  0.22619  0.17059  1.0000
  C   C283      1.0  0.69777  0.21075  0.24822  1.0000
  C   C284      1.0  0.73598  0.27802  0.01759  1.0000
  C   C285      1.0  0.67887  0.20132  0.28244  1.0000
  H   H333      1.0  0.68163  0.03705  0.30577  1.0000
  H   H334      1.0  0.72918  0.20513  0.18247  1.0000
  H   H335      1.0  0.70658  0.26197  0.15540  1.0000
  H   H336      1.0  0.64006  0.19179  0.30156  1.0000
  H   H337      1.0  0.69120  0.19454  0.12935  1.0000
  C   C286      1.0  0.52296  0.23677  0.39904  1.0000
  C   C287      1.0  0.65501  0.20013  0.27564  1.0000
  H   H338      1.0  0.59674  0.07510  0.23107  1.0000
  H   H339      1.0  0.54998  0.19772  0.47390  1.0000
  H   H340      1.0  0.73264  0.26902  0.19404  1.0000
  H   H341      1.0  0.60971  0.15530  0.46549  1.0000
  H   H342      1.0  0.71540  0.21026  0.25548  1.0000
  C   C288      1.0  0.58005  0.03404  0.24383  1.0000
  H   H343      1.0  0.58037  0.28668  0.09977  1.0000
  H   H344      1.0  0.52294  0.29350  0.46411  1.0000
  H   H345      1.0  0.69672  0.07153  0.25184  1.0000
  C   C289      1.0  0.52506  0.23718  0.44714  1.0000
  H   H346      1.0  0.52852  0.32418  0.20855  1.0000
  C   C290      1.0  0.66917  0.21912  0.20107  1.0000
  C   C291      1.0  0.58021  0.30408  0.03550  1.0000
  H   H347      1.0  0.67768  0.08561  0.23453  1.0000
  H   H348      1.0  0.57305  0.31610  0.04969  1.0000
  H   H349      1.0  0.77147  0.31496  0.02715  1.0000
  C   C292      1.0  0.66676  0.07179  0.32105  1.0000
  C   C293      1.0  0.54807  0.21291  0.45452  1.0000
  H   H350      1.0  0.63146  0.20785  0.22951  1.0000
  H   H351      1.0  0.68231  0.19380  0.31377  1.0000
  H   H352      1.0  0.68647  0.07682  0.33386  1.0000
  C   C294      1.0  0.58408  0.28723  0.06371  1.0000
  C   C295      1.0  0.67642  0.06676  0.24360  1.0000
  C   C296      1.0  0.50124  0.19098  0.46338  1.0000
  C   C297      1.0  0.56024  0.02226  0.46613  1.0000
  C   C298      1.0  0.58489  0.01436  0.25782  1.0000
  C   C299      1.0  0.74060  0.31136  0.07049  1.0000
  H   H353      1.0  0.61242  0.00409  0.28078  1.0000
  H   H354      1.0  0.64903  0.02089  0.32621  1.0000
  S   S82       1.0  0.57950  0.09865  0.46556  1.0000
  C   C300      1.0  0.65019  0.20910  0.23507  1.0000
  C   C301      1.0  0.62573  0.06587  0.25423  1.0000
  C   C302      1.0  0.66118  0.03095  0.29588  1.0000
  C   C303      1.0  0.63141  0.04638  0.26875  1.0000
  C   C304      1.0  0.59241  0.27085  0.04541  1.0000
  S   S83       1.0  0.64642  0.10595  0.48597  1.0000
  C   C305      1.0  0.60046  0.05974  0.24194  1.0000
  C   C306      1.0  0.52520  0.25838  0.46998  1.0000
  H   H355      1.0  0.80095  0.22079  0.49319  1.0000
  C   C307      1.0  0.57472  0.12251  0.49185  1.0000
  C   C308      1.0  0.50678  0.04909  0.45802  1.0000
  C   C309      1.0  0.59278  0.14908  0.48683  1.0000
  H   H356      1.0  0.75545  0.18713  0.47288  1.0000
  H   H357      1.0  0.51932  0.29162  0.38047  1.0000
  H   H358      1.0  0.56046  0.02941  0.23451  1.0000
  H   H359      1.0  0.54574  0.20693  0.41835  1.0000
  N   N20       1.0  0.52600  0.21573  0.47143  1.0000
  H   H360      1.0  0.68454  0.30636  0.01342  1.0000
  C   C310      1.0  0.70990  0.26210  0.03071  1.0000
  C   C311      1.0  0.53522  0.00064  0.46281  1.0000
  C   C312      1.0  0.58054  0.01934  0.48346  1.0000
  H   H361      1.0  0.51953  0.00293  0.44879  1.0000
  H   H362      1.0  0.63574  0.32754  0.02940  1.0000
  H   H363      1.0  0.64396  0.32266  0.08507  1.0000
  C   C313      1.0  0.75884  0.20196  0.49761  1.0000
  H   H364      1.0  0.52465  0.06499  0.44405  1.0000
  Fe  Fe40      1.0  0.64860  0.21094  0.02297  1.0000
  H   H365      1.0  0.60012  0.03615  0.48523  1.0000
  H   H366      1.0  0.65794  0.29451  0.05267  1.0000
  C   C314      1.0  0.66755  0.30829  0.02385  1.0000
  H   H367      1.0  0.50046  0.17451  0.48300  1.0000
  H   H368      1.0  0.60287  0.18822  0.50567  1.0000
  Fe  Fe41      1.0  0.52519  0.16657  0.60569  1.0000
  C   C315      1.0  0.66833  0.19445  0.65546  1.0000
  C   C316      1.0  0.61821  0.13722  0.58533  1.0000
  C   C317      1.0  0.55071  0.28266  0.84970  1.0000
  S   S84       1.0  0.57969  0.16249  0.90731  1.0000
  S   S85       1.0  0.62407  0.22318  0.98381  1.0000
  S   S86       1.0  0.87253  0.31169  0.65447  1.0000
  C   C318      1.0  0.56731  0.24675  0.80493  1.0000
  Fe  Fe42      1.0  0.84292  0.30226  0.59754  1.0000
  S   S87       1.0  0.82325  0.26413  0.55558  1.0000
  Fe  Fe43      1.0  0.49973  0.16621  0.69552  1.0000
  H   H369      1.0  0.88666  0.31405  0.76849  1.0000
  H   H370      1.0  0.53705  0.28983  0.85799  1.0000
  H   H371      1.0  0.56868  0.29437  0.87047  1.0000
  C   C319      1.0  0.74267  0.22135  0.55081  1.0000
  H   H372      1.0  0.65911  0.13787  0.62978  1.0000
  H   H373      1.0  0.52573  0.04539  0.51739  1.0000
  C   C320      1.0  0.58966  0.23281  0.87511  1.0000
  C   C321      1.0  0.78991  0.24074  0.54155  1.0000
  C   C322      1.0  0.66927  0.20726  0.69584  1.0000
  C   C323      1.0  0.66303  0.15054  0.59949  1.0000
  C   C324      1.0  0.64449  0.17349  0.63871  1.0000
  C   C325      1.0  0.52973  0.24980  0.90704  1.0000
  C   C326      1.0  0.55913  0.16772  0.86995  1.0000
  C   C327      1.0  0.54092  0.17430  0.88578  1.0000
  H   H374      1.0  0.51415  0.25480  0.91257  1.0000
  C   C328      1.0  0.51116  0.10675  0.90594  1.0000
  C   C329      1.0  0.54347  0.16650  0.79232  1.0000
  C   C330      1.0  0.56013  0.16362  0.82314  1.0000
  H   H375      1.0  0.53963  0.17704  0.92177  1.0000
  H   H376      1.0  0.52006  0.24426  0.79316  1.0000
  H   H377      1.0  0.54473  0.16363  0.75640  1.0000
  H   H378      1.0  0.57393  0.15822  0.81067  1.0000
  C   C331      1.0  0.52946  0.21970  0.52130  1.0000
  C   C332      1.0  0.52548  0.17339  0.80806  1.0000
  H   H379      1.0  0.53041  0.20342  0.53833  1.0000
  H   H380      1.0  0.61087  0.22609  0.82304  1.0000
  C   C333      1.0  0.55883  0.24666  0.85004  1.0000
  C   C334      1.0  0.59705  0.27149  0.99878  1.0000
  H   H381      1.0  0.64733  0.20975  0.75178  1.0000
  C   C335      1.0  0.56705  0.15972  0.53754  1.0000
  C   C336      1.0  0.58585  0.23940  0.79536  1.0000
  H   H382      1.0  0.53199  0.12692  0.56370  1.0000
  Fe  Fe44      1.0  0.85095  0.32874  0.69073  1.0000
  S   S88       1.0  0.51491  0.19471  0.63723  1.0000
  H   H383      1.0  0.53952  0.10860  0.85882  1.0000
  H   H384      1.0  0.51009  0.18200  0.86764  1.0000
  C   C337      1.0  0.65179  0.17866  0.55773  1.0000
  H   H385      1.0  0.55634  0.28739  0.81348  1.0000
  H   H386      1.0  0.61864  0.12743  0.55331  1.0000
  C   C338      1.0  0.76856  0.24072  0.56206  1.0000
  C   C339      1.0  0.52417  0.17707  0.85495  1.0000
  Fe  Fe45      1.0  0.59531  0.18023  0.97743  1.0000
  H   H387      1.0  0.91129  0.31078  0.79987  1.0000
  C   C340      1.0  0.58498  0.30485  0.98894  1.0000
  H   H388      1.0  0.72652  0.22159  0.56733  1.0000
  H   H389      1.0  0.52610  0.26017  0.50649  1.0000
  C   C341      1.0  0.59694  0.23237  0.83042  1.0000
  C   C342      1.0  0.51579  0.23960  0.82974  1.0000
  H   H390      1.0  0.65345  0.30133  0.99501  1.0000
  H   H391      1.0  0.68645  0.20113  0.63728  1.0000
  H   H392      1.0  0.77202  0.25549  0.58698  1.0000
  H   H393      1.0  0.55950  0.25225  0.77654  1.0000
  H   H394      1.0  0.56571  0.23894  0.92037  1.0000
  S   S89       1.0  0.82005  0.31649  0.63664  1.0000
  C   C343      1.0  0.57083  0.23971  0.88505  1.0000
  H   H395      1.0  0.52480  0.11349  0.93422  1.0000
  H   H396      1.0  0.59136  0.23881  0.76052  1.0000
  H   H397      1.0  0.59791  0.22671  0.90210  1.0000
  H   H398      1.0  0.54556  0.26232  0.93121  1.0000
  C   C344      1.0  0.54887  0.13319  0.54213  1.0000
  H   H399      1.0  0.74446  0.27104  0.99274  1.0000
  C   C345      1.0  0.62154  0.16674  0.66416  1.0000
  H   H400      1.0  0.51275  0.22025  0.53715  1.0000
  C   C346      1.0  0.62270  0.17976  0.70444  1.0000
  C   C347      1.0  0.59357  0.28866  0.97063  1.0000
  H   H401      1.0  0.59768  0.28954  0.93472  1.0000
  H   H402      1.0  0.52161  0.22900  0.91689  1.0000
  C   C348      1.0  0.64652  0.19984  0.72040  1.0000
  C   C349      1.0  0.51942  0.10391  0.86326  1.0000
  H   H403      1.0  0.60239  0.15157  0.65364  1.0000
  N   N21       1.0  0.64417  0.16006  0.59616  1.0000
  H   H404      1.0  0.60498  0.17427  0.72338  1.0000
  H   H405      1.0  0.63882  0.18720  0.55536  1.0000
  C   C350      1.0  0.73752  0.20179  0.51847  1.0000
  H   H406      1.0  0.61142  0.12228  0.61270  1.0000
  S   S90       1.0  0.51365  0.14048  0.66652  1.0000
  H   H407      1.0  0.68777  0.22304  0.70813  1.0000
  S   S91       1.0  0.56315  0.18312  0.56740  1.0000
  N   N22       1.0  0.53908  0.25443  0.85928  1.0000
  S   S92       1.0  0.83936  0.32025  0.76524  1.0000
  H   H408      1.0  0.67224  0.19505  0.56089  1.0000
  H   H409      1.0  0.60365  0.25903  0.98453  1.0000
  H   H410      1.0  0.68366  0.16667  0.60139  1.0000
  C   C351      1.0  0.90796  0.32085  0.77091  1.0000
  H   H411      1.0  0.60324  0.14306  0.57986  1.0000
  H   H412      1.0  0.81534  0.31383  0.85248  1.0000
  H   H413      1.0  0.66229  0.13918  0.56891  1.0000
  H   H414      1.0  0.91280  0.31395  0.73922  1.0000
  H   H415      1.0  0.65079  0.16908  0.52467  1.0000
  H   H416      1.0  0.54787  0.23789  0.53000  1.0000
  H   H417      1.0  0.51023  0.09579  0.79331  1.0000
  S   S93       1.0  0.50463  0.17799  0.77029  1.0000
  C   C352      1.0  0.78474  0.22115  0.50928  1.0000
  H   H418      1.0  0.88525  0.32282  0.84263  1.0000
  H   H419      1.0  0.50775  0.21821  0.83344  1.0000
  S   S94       1.0  0.57998  0.32564  0.95321  1.0000
  H   H420      1.0  0.53867  0.09417  0.52337  1.0000
  C   C353      1.0  0.55268  0.11465  0.51922  1.0000
  C   C354      1.0  0.50245  0.09649  0.82607  1.0000
  H   H421      1.0  0.49991  0.24376  0.83798  1.0000
  C   C355      1.0  0.58887  0.16767  0.50953  1.0000
  S   S95       1.0  0.70417  0.17745  0.50675  1.0000
  S   S96       1.0  0.79606  0.41168  0.08345  1.0000
  S   S97       1.0  0.83406  0.38791  0.05488  1.0000
  Fe  Fe46      1.0  0.79092  0.37364  0.05862  1.0000
  Fe  Fe47      1.0  0.83875  0.42668  0.07481  1.0000
  S   S98       1.0  0.87015  0.45280  0.12565  1.0000
  C   C356      1.0  0.61274  0.39332  0.17258  1.0000
  S   S99       1.0  0.67051  0.41733  0.08116  1.0000
  Fe  Fe48      1.0  0.58005  0.39632  0.05488  1.0000
  S   S100      1.0  0.55620  0.40150  0.11065  1.0000
  S   S101      1.0  0.59958  0.37238  0.06084  1.0000
  N   N23       1.0  0.70174  0.46834  0.49915  1.0000
  Fe  Fe49      1.0  0.87149  0.52090  0.35869  1.0000
  S   S102      1.0  0.87702  0.55619  0.39774  1.0000
  S   S103      1.0  0.84846  0.50725  0.29262  1.0000
  Fe  Fe50      1.0  0.89188  0.50264  0.43622  1.0000
  H   H422      1.0  0.69282  0.49489  0.46337  1.0000
  C   C357      1.0  0.77620  0.48963  0.15818  1.0000
  Fe  Fe51      1.0  0.85897  0.52859  0.45667  1.0000
  C   C358      1.0  0.59782  0.39874  0.26699  1.0000
  Fe  Fe52      1.0  0.91589  0.56053  0.42009  1.0000
  S   S104      1.0  0.95386  0.59796  0.43866  1.0000
  S   S105      1.0  0.85151  0.49318  0.41652  1.0000
  S   S106      1.0  0.91163  0.52783  0.37565  1.0000
  H   H423      1.0  0.73621  0.51357  0.44943  1.0000
  H   H424      1.0  0.60442  0.38475  0.26767  1.0000
  C   C359      1.0  0.78521  0.56112  0.50208  1.0000
  H   H425      1.0  0.50635  0.64743  0.49395  1.0000
  H   H426      1.0  0.77594  0.52229  0.41147  1.0000
  H   H427      1.0  0.96178  0.50825  0.43173  1.0000
  H   H428      1.0  0.55799  0.39528  0.47073  1.0000
  C   C360      1.0  0.52950  0.53207  0.50074  1.0000
  S   S107      1.0  0.61680  0.43321  0.03531  1.0000
  H   H429      1.0  0.72517  0.43845  0.49314  1.0000
  H   H430      1.0  0.68667  0.33249  0.10481  1.0000
  H   H431      1.0  0.97584  0.57922  0.36861  1.0000
  S   S108      1.0  0.75991  0.34063  0.09966  1.0000
  H   H432      1.0  0.63792  0.45869  0.17346  1.0000
  H   H433      1.0  0.57204  0.44723  0.27071  1.0000
  C   C361      1.0  0.70336  0.43245  0.00722  1.0000
  H   H434      1.0  0.71222  0.34253  0.06458  1.0000
  C   C362      1.0  0.67956  0.44536  0.47729  1.0000
  Fe  Fe53      1.0  0.50792  0.38583  0.42647  1.0000
  C   C363      1.0  0.80394  0.55358  0.49256  1.0000
  H   H435      1.0  0.62623  0.39379  0.14583  1.0000
  H   H436      1.0  0.80505  0.38230  0.18639  1.0000
  C   C364      1.0  0.69492  0.34425  0.07339  1.0000
  C   C365      1.0  0.54273  0.38209  0.15997  1.0000
  C   C366      1.0  0.53360  0.39149  0.19500  1.0000
  C   C367      1.0  0.52290  0.37688  0.23496  1.0000
  C   C368      1.0  0.52115  0.35261  0.24019  1.0000
  H   H437      1.0  0.86981  0.49904  0.05575  1.0000
  C   C369      1.0  0.54078  0.35770  0.16507  1.0000
  H   H438      1.0  0.53510  0.41035  0.19138  1.0000
  H   H439      1.0  0.70219  0.36502  0.08195  1.0000
  H   H440      1.0  0.54736  0.35002  0.13811  1.0000
  C   C370      1.0  0.86343  0.46613  0.17409  1.0000
  C   C371      1.0  0.83822  0.46121  0.18356  1.0000
  C   C372      1.0  0.83387  0.47341  0.22072  1.0000
  C   C373      1.0  0.85459  0.49058  0.24885  1.0000
  C   C374      1.0  0.87970  0.49497  0.24019  1.0000
  C   C375      1.0  0.88408  0.48281  0.20290  1.0000
  H   H441      1.0  0.82208  0.44825  0.16202  1.0000
  H   H442      1.0  0.81432  0.46960  0.22752  1.0000
  H   H443      1.0  0.89586  0.50831  0.26141  1.0000
  H   H444      1.0  0.90365  0.48676  0.19579  1.0000
  C   C376      1.0  0.73890  0.42133  0.05042  1.0000
  C   C377      1.0  0.71645  0.41741  0.07325  1.0000
  C   C378      1.0  0.69847  0.42260  0.05152  1.0000
  H   H445      1.0  0.75242  0.41699  0.06737  1.0000
  H   H446      1.0  0.71292  0.41014  0.10774  1.0000
  H   H447      1.0  0.64108  0.43844  0.13228  1.0000
  N   N24       1.0  0.85440  0.42786  0.34352  1.0000
  C   C379      1.0  0.83684  0.42284  0.38288  1.0000
  C   C380      1.0  0.87274  0.41866  0.35622  1.0000
  C   C381      1.0  0.86952  0.45647  0.33648  1.0000
  C   C382      1.0  0.84042  0.41495  0.30103  1.0000
  C   C383      1.0  0.85460  0.41779  0.26055  1.0000
  C   C384      1.0  0.81272  0.39957  0.29816  1.0000
  C   C385      1.0  0.84192  0.40597  0.21994  1.0000
  C   C386      1.0  0.80024  0.38794  0.25721  1.0000
  C   C387      1.0  0.81480  0.39117  0.21818  1.0000
  H   H448      1.0  0.82543  0.40169  0.39133  1.0000
  H   H449      1.0  0.84808  0.43286  0.41408  1.0000
  H   H450      1.0  0.82323  0.43035  0.37661  1.0000
  H   H451      1.0  0.86224  0.39707  0.36022  1.0000
  C   C388      1.0  0.98016  0.52746  0.43285  1.0000
  H   H452      1.0  0.88835  0.42404  0.33059  1.0000
  H   H453      1.0  0.88018  0.46688  0.36777  1.0000
  H   H454      1.0  0.81797  0.56311  0.46565  1.0000
  H   H455      1.0  0.86542  0.54519  0.09470  1.0000
  H   H456      1.0  0.87565  0.42950  0.25972  1.0000
  H   H457      1.0  0.80022  0.39629  0.32694  1.0000
  C   C389      1.0  0.99180  0.59426  0.38806  1.0000
  H   H458      1.0  0.64750  0.41072  0.24009  1.0000
  N   N25       1.0  0.83881  0.50808  0.06364  1.0000
  H   H459      1.0  0.97572  0.54177  0.41651  1.0000
  H   H460      1.0  0.87115  0.57977  0.48717  1.0000
  H   H461      1.0  0.88535  0.61260  0.46673  1.0000
  C   C390      1.0  0.81703  0.50153  0.09545  1.0000
  C   C391      1.0  0.72631  0.47482  0.47544  1.0000
  H   H462      1.0  0.79189  0.49103  0.41549  1.0000
  H   H463      1.0  0.91075  0.43318  0.49386  1.0000
  C   C392      1.0  0.57230  0.41503  0.30360  1.0000
  C   C393      1.0  0.75908  0.46280  0.45441  1.0000
  H   H464      1.0  0.55932  0.41378  0.33068  1.0000
  C   C394      1.0  0.88962  0.59892  0.48580  1.0000
  N   N26       1.0  0.98999  0.53528  0.47987  1.0000
  C   C395      1.0  0.79032  0.48755  0.08199  1.0000
  H   H465      1.0  0.95552  0.48350  0.49810  1.0000
  H   H466      1.0  0.76061  0.48494  0.18215  1.0000
  Fe  Fe54      1.0  0.63563  0.40843  0.03750  1.0000
  S   S109      1.0  0.53463  0.42714  0.44994  1.0000
  C   C396      1.0  0.65192  0.33540  0.05456  1.0000
  H   H467      1.0  0.78505  0.57641  0.48218  1.0000
  C   C397      1.0  0.77033  0.48182  0.11305  1.0000
  H   H468      1.0  0.59380  0.38778  0.15591  1.0000
  S   S110      1.0  0.90562  0.47464  0.45453  1.0000
  H   H469      1.0  0.60946  0.37727  0.19595  1.0000
  C   C398      1.0  0.58127  0.39738  0.30201  1.0000
  H   H470      1.0  0.50191  0.42887  0.19312  1.0000
  C   C399      1.0  0.83009  0.49858  0.01666  1.0000
  H   H471      1.0  0.55335  0.57220  0.44225  1.0000
  H   H472      1.0  0.84203  0.51936  0.15480  1.0000
  H   H473      1.0  0.60956  0.43434  0.14276  1.0000
  H   H474      1.0  0.75010  0.47108  0.10195  1.0000
  H   H475      1.0  0.86403  0.50430  0.11299  1.0000
  H   H476      1.0  0.90383  0.59610  0.46541  1.0000
  H   H477      1.0  0.57381  0.47337  0.49409  1.0000
  C   C400      1.0  0.98648  0.60651  0.42364  1.0000
  H   H478      1.0  0.65758  0.44468  0.23425  1.0000
  H   H479      1.0  0.66334  0.42769  0.18917  1.0000
  H   H480      1.0  0.51609  0.38444  0.26171  1.0000
  C   C401      1.0  0.85418  0.49617  0.07997  1.0000
  C   C402      1.0  0.62815  0.43852  0.15968  1.0000
  S   S111      1.0  0.51775  0.35429  0.41610  1.0000
  H   H481      1.0  0.88448  0.46230  0.30948  1.0000
  H   H482      1.0  0.58351  0.56539  0.49034  1.0000
  C   C403      1.0  0.64907  0.42579  0.21576  1.0000
  H   H483      1.0  0.52601  0.57276  0.46683  1.0000
  N   N27       1.0  0.62344  0.41892  0.19549  1.0000
  H   H484      1.0  0.85641  0.46410  0.32672  1.0000
  H   H485      1.0  0.87229  0.54243  0.03675  1.0000
  H   H486      1.0  0.88289  0.42735  0.38902  1.0000
  H   H487      1.0  0.85317  0.40872  0.18931  1.0000
  H   H488      1.0  0.59992  0.44978  0.20851  1.0000
  S   S112      1.0  0.89799  0.53532  0.48163  1.0000
  H   H489      1.0  0.57502  0.38231  0.32779  1.0000
  C   C404      1.0  0.52291  0.48840  0.48482  1.0000
  C   C405      1.0  0.60545  0.41757  0.23171  1.0000
  H   H490      1.0  0.84134  0.47476  0.08470  1.0000
  H   H491      1.0  0.53079  0.47542  0.48127  1.0000
  C   C406      1.0  0.59570  0.43514  0.23412  1.0000
  C   C407      1.0  0.82227  0.50914  0.14173  1.0000
  C   C408      1.0  0.57884  0.45831  0.49875  1.0000
  C   C409      1.0  0.53004  0.34307  0.20500  1.0000
  C   C410      1.0  0.77345  0.48625  0.43115  1.0000
  H   H492      1.0  0.55814  0.59751  0.48169  1.0000
  H   H493      1.0  0.65647  0.35540  0.06447  1.0000
  C   C411      1.0  0.56981  0.41428  0.48572  1.0000
  H   H494      1.0  0.67798  0.44918  0.44073  1.0000
  C   C412      1.0  0.73569  0.45696  0.47580  1.0000
  C   C413      1.0  0.57951  0.43387  0.26977  1.0000
  H   H495      1.0  0.76634  0.44928  0.45638  1.0000
  C   C414      1.0  0.51042  0.66535  0.47513  1.0000
  C   C415      1.0  0.50236  0.52158  0.49266  1.0000
  C   C416      1.0  0.85610  0.53677  0.06143  1.0000
  C   C417      1.0  0.69578  0.48989  0.49847  1.0000
  C   C418      1.0  0.88529  0.44940  0.49172  1.0000
  C   C419      1.0  0.53934  0.51461  0.49647  1.0000
  H   H496      1.0  0.85612  0.46086  0.49667  1.0000
  H   H497      1.0  0.99478  0.52593  0.41138  1.0000
  H   H498      1.0  0.78425  0.48058  0.04774  1.0000
  N   N28       1.0  0.67530  0.33547  0.03624  1.0000
  H   H499      1.0  0.77912  0.37641  0.25553  1.0000
  C   C420      1.0  0.80213  0.50328  0.17249  1.0000
  C   C421      1.0  0.56310  0.43360  0.47963  1.0000
  H   H500      1.0  0.80675  0.50905  0.20782  1.0000
  C   C422      1.0  0.74139  0.49850  0.45107  1.0000
  C   C423      1.0  0.54597  0.57629  0.47406  1.0000
  H   H501      1.0  0.68151  0.42771  0.47961  1.0000
  C   C424      1.0  0.76444  0.50387  0.42899  1.0000
  H   H502      1.0  0.55969  0.52069  0.50165  1.0000
  H   H503      1.0  0.84491  0.54643  0.05086  1.0000
  H   H504      1.0  0.66062  0.44028  0.49370  1.0000
  S   S113      1.0  0.50725  0.33318  0.28927  1.0000
  C   C425      1.0  0.89252  0.43124  0.50538  1.0000
  C   C426      1.0  0.99588  0.51579  0.49975  1.0000
  H   H505      1.0  0.96570  0.55210  0.49407  1.0000
  H   H506      1.0  0.95043  0.51820  0.50556  1.0000
  Fe  Fe55      1.0  0.79512  0.42002  0.00953  1.0000
  H   H507      1.0  0.81796  0.47696  0.01590  1.0000
  H   H508      1.0  0.92495  0.64766  0.50447  1.0000
  H   H509      1.0  0.90444  0.65651  0.56070  1.0000
  N   N29       1.0  0.62412  0.54232  0.76767  1.0000
  C   C427      1.0  0.55484  0.42168  0.61733  1.0000
  S   S114      1.0  0.85551  0.40164  0.92089  1.0000
  S   S115      1.0  0.77274  0.43766  0.97786  1.0000
  C   C428      1.0  0.84280  0.34332  0.80695  1.0000
  C   C429      1.0  0.67415  0.36476  0.97371  1.0000
  C   C430      1.0  0.63179  0.62295  0.61782  1.0000
  H   H510      1.0  0.50361  0.35610  0.54948  1.0000
  H   H511      1.0  0.58587  0.58866  0.53130  1.0000
  S   S116      1.0  0.60371  0.44221  0.90205  1.0000
  Fe  Fe56      1.0  0.51186  0.63868  0.66002  1.0000
  H   H512      1.0  0.73023  0.44520  0.95091  1.0000
  Fe  Fe57      1.0  0.84724  0.35543  0.60528  1.0000
  C   C431      1.0  0.92727  0.39676  0.86688  1.0000
  H   H513      1.0  0.85057  0.57280  0.55908  1.0000
  Fe  Fe58      1.0  0.89652  0.35172  0.62284  1.0000
  S   S117      1.0  0.94098  0.38104  0.61939  1.0000
  N   N30       1.0  0.92376  0.34968  0.77563  1.0000
  S   S118      1.0  0.87598  0.36879  0.66239  1.0000
  Fe  Fe59      1.0  0.65518  0.48945  0.59795  1.0000
  S   S119      1.0  0.66711  0.52593  0.55823  1.0000
  C   C432      1.0  0.86700  0.64288  0.58902  1.0000
  Fe  Fe60      1.0  0.68118  0.51868  0.68473  1.0000
  S   S120      1.0  0.69559  0.55785  0.65122  1.0000
  S   S121      1.0  0.69019  0.51479  0.75847  1.0000
  Fe  Fe61      1.0  0.65514  0.54000  0.62006  1.0000
  S   S122      1.0  0.62153  0.54908  0.62348  1.0000
  Fe  Fe62      1.0  0.70646  0.54040  0.59216  1.0000
  S   S123      1.0  0.74363  0.55956  0.54797  1.0000
  S   S124      1.0  0.64073  0.50190  0.65729  1.0000
  S   S125      1.0  0.69470  0.50285  0.62831  1.0000
  H   H514      1.0  0.50042  0.38102  0.66375  1.0000
  Fe  Fe63      1.0  0.51562  0.62391  0.56208  1.0000
  N   N31       1.0  0.90004  0.60903  0.53168  1.0000
  H   H515      1.0  0.59330  0.45145  0.63768  1.0000
  C   C433      1.0  0.80952  0.39321  0.76487  1.0000
  S   S126      1.0  0.52393  0.61148  0.62905  1.0000
  H   H516      1.0  0.66585  0.56758  0.76161  1.0000
  H   H517      1.0  0.64750  0.64258  0.61123  1.0000
  C   C434      1.0  0.95172  0.35713  0.77350  1.0000
  H   H518      1.0  0.65598  0.36284  0.98535  1.0000
  H   H519      1.0  0.63530  0.62273  0.71723  1.0000
  C   C435      1.0  0.61684  0.57657  0.62563  1.0000
  C   C436      1.0  0.59174  0.57241  0.63556  1.0000
  C   C437      1.0  0.58662  0.59326  0.63606  1.0000
  C   C438      1.0  0.60661  0.61873  0.62700  1.0000
  C   C439      1.0  0.80855  0.36144  0.70895  1.0000
  C   C440      1.0  0.63689  0.60205  0.61695  1.0000
  H   H520      1.0  0.57613  0.55288  0.64303  1.0000
  H   H521      1.0  0.56735  0.58975  0.64456  1.0000
  C   C441      1.0  0.91768  0.36123  0.73617  1.0000
  H   H522      1.0  0.65631  0.60569  0.60935  1.0000
  C   C442      1.0  0.92609  0.63277  0.52594  1.0000
  S   S127      1.0  0.63316  0.44923  0.56755  1.0000
  C   C443      1.0  0.76676  0.54914  0.53713  1.0000
  H   H523      1.0  0.94006  0.62832  0.50821  1.0000
  H   H524      1.0  0.68969  0.43677  0.99038  1.0000
  H   H525      1.0  0.51641  0.56366  0.54853  1.0000
  C   C444      1.0  0.68525  0.38050  0.93548  1.0000
  C   C445      1.0  0.52988  0.41556  0.60061  1.0000
  H   H526      1.0  0.57572  0.55619  0.54917  1.0000
  C   C446      1.0  0.82858  0.33448  0.84762  1.0000
  C   C447      1.0  0.97361  0.38685  0.62666  1.0000
  H   H527      1.0  0.73998  0.37612  0.92587  1.0000
  S   S128      1.0  0.83124  0.38116  0.58302  1.0000
  H   H528      1.0  0.64902  0.55315  0.70879  1.0000
  H   H529      1.0  0.65467  0.53419  0.74942  1.0000
  H   H530      1.0  0.78841  0.36344  0.86877  1.0000
  C   C448      1.0  0.89282  0.35372  0.88706  1.0000
  C   C449      1.0  0.79876  0.39432  0.68566  1.0000
  C   C450      1.0  0.56966  0.46788  0.61717  1.0000
  C   C451      1.0  0.62834  0.46029  0.86147  1.0000
  C   C452      1.0  0.65490  0.47312  0.87269  1.0000
  C   C453      1.0  0.67369  0.48949  0.84063  1.0000
  C   C454      1.0  0.66618  0.49268  0.79681  1.0000
  C   C455      1.0  0.63970  0.47909  0.78514  1.0000
  C   C456      1.0  0.62087  0.46339  0.81756  1.0000
  H   H531      1.0  0.66089  0.47109  0.90648  1.0000
  H   H532      1.0  0.69414  0.49989  0.84997  1.0000
  H   H533      1.0  0.63372  0.48085  0.75131  1.0000
  H   H534      1.0  0.60037  0.45346  0.80859  1.0000
  H   H535      1.0  0.59399  0.61437  0.75191  1.0000
  S   S129      1.0  0.62911  0.39824  0.96340  1.0000
  C   C457      1.0  0.80038  0.40345  0.85511  1.0000
  H   H536      1.0  0.75402  0.52071  0.59067  1.0000
  H   H537      1.0  0.96322  0.34748  0.64343  1.0000
  C   C458      1.0  0.84907  0.37879  0.87687  1.0000
  C   C459      1.0  0.86313  0.38763  0.83602  1.0000
  C   C460      1.0  0.85997  0.37003  0.80118  1.0000
  H   H538      1.0  0.82688  0.42364  0.54621  1.0000
  C   C461      1.0  0.71030  0.35651  0.97679  1.0000
  C   C462      1.0  0.83156  0.35212  0.88235  1.0000
  H   H539      1.0  0.87690  0.40819  0.83170  1.0000
  H   H540      1.0  0.87138  0.37705  0.77050  1.0000
  H   H541      1.0  0.91960  0.58672  0.53974  1.0000
  C   C463      1.0  0.53626  0.56637  0.55349  1.0000
  H   H542      1.0  0.90991  0.59519  0.59200  1.0000
  H   H543      1.0  0.56693  0.57360  0.79500  1.0000
  C   C464      1.0  0.96957  0.53663  0.50693  1.0000
  C   C465      1.0  0.59159  0.41935  0.51227  1.0000
  C   C466      1.0  0.60694  0.44386  0.53229  1.0000
  H   H544      1.0  0.58503  0.48788  0.62266  1.0000
  C   C467      1.0  0.62618  0.53650  0.81610  1.0000
  C   C468      1.0  0.89805  0.34341  0.84848  1.0000
  H   H545      1.0  0.54230  0.47870  0.59230  1.0000
  C   C469      1.0  0.76751  0.52964  0.56284  1.0000
  C   C470      1.0  0.52589  0.43694  0.59161  1.0000
  C   C471      1.0  0.93279  0.38666  0.82831  1.0000
  C   C472      1.0  0.97912  0.36719  0.63854  1.0000
  H   H546      1.0  0.81395  0.44256  0.83239  1.0000
  N   N32       1.0  0.50952  0.38803  0.59261  1.0000
  C   C473      1.0  0.84276  0.40611  0.70694  1.0000
  H   H547      1.0  0.85542  0.40324  0.73153  1.0000
  H   H548      1.0  0.87667  0.34116  0.90910  1.0000
  H   H549      1.0  0.99085  0.42776  0.61135  1.0000
  H   H550      1.0  0.55981  0.40668  0.62311  1.0000
  H   H551      1.0  0.84850  0.42704  0.70774  1.0000
  C   C474      1.0  0.68654  0.35245  0.99589  1.0000
  H   H552      1.0  0.97547  0.54084  0.54323  1.0000
  N   N33       1.0  0.81473  0.38864  0.71761  1.0000
  H   H553      1.0  0.87111  0.66239  0.59734  1.0000
  H   H554      1.0  0.53537  0.55403  0.58275  1.0000
  H   H555      1.0  0.72051  0.47831  0.56454  1.0000
  H   H556      1.0  0.53699  0.37800  0.56379  1.0000
  H   H557      1.0  0.82763  0.62455  0.61462  1.0000
  C   C475      1.0  0.70329  0.46200  0.54746  1.0000
  H   H558      1.0  0.84682  0.50372  0.99350  1.0000
  H   H559      1.0  0.60719  0.52786  0.83411  1.0000
  H   H560      1.0  0.64032  0.55448  0.83464  1.0000
  C   C476      1.0  0.59315  0.55872  0.78423  1.0000
  H   H561      1.0  0.93026  0.38279  0.73447  1.0000
  H   H562      1.0  0.59634  0.40414  0.51779  1.0000
  C   C477      1.0  0.88102  0.61375  0.55630  1.0000
  H   H563      1.0  0.95748  0.35000  0.80393  1.0000
  H   H564      1.0  0.52072  0.38771  0.52359  1.0000
  H   H565      1.0  0.95599  0.34898  0.74273  1.0000
  H   H566      1.0  0.63304  0.52214  0.81979  1.0000
  H   H567      1.0  0.60910  0.50260  0.74573  1.0000
  C   C478      1.0  0.84522  0.42577  0.53490  1.0000
  H   H568      1.0  0.58054  0.54106  0.80277  1.0000
  C   C479      1.0  0.79523  0.37861  0.84312  1.0000
  H   H569      1.0  0.93805  0.41753  0.87357  1.0000
  C   C480      1.0  0.60039  0.60023  0.75599  1.0000
  S   S130      1.0  0.55553  0.65843  0.55145  1.0000
  C   C481      1.0  0.83704  0.59653  0.58816  1.0000
  H   H570      1.0  0.64970  0.59116  0.72283  1.0000
  Fe  Fe64      1.0  0.83077  0.39880  0.98241  1.0000
  C   C482      1.0  0.80984  0.42322  0.82272  1.0000
  H   H571      1.0  0.94797  0.40031  0.80595  1.0000
  H   H572      1.0  0.72061  0.34741  0.99113  1.0000
  C   C483      1.0  0.51812  0.37700  0.55595  1.0000
  C   C484      1.0  0.90410  0.58936  0.55606  1.0000
  C   C485      1.0  0.72635  0.43727  0.98496  1.0000
  H   H573      1.0  0.77760  0.38224  0.69368  1.0000
  H   H574      1.0  0.93501  0.64154  0.55931  1.0000
  S   S131      1.0  0.86886  0.34110  0.56290  1.0000
  H   H575      1.0  0.82081  0.35611  0.73004  1.0000
  C   C486      1.0  0.90731  0.38031  0.89617  1.0000
  H   H576      1.0  0.82187  0.43429  0.75444  1.0000
  C   C487      1.0  0.70893  0.38460  0.91840  1.0000
  C   C488      1.0  0.78626  0.52216  0.55345  1.0000
  H   H577      1.0  0.79612  0.35393  0.79239  1.0000
  Fe  Fe65      1.0  0.60687  0.41985  0.96261  1.0000
  C   C489      1.0  0.62374  0.60493  0.73647  1.0000
  H   H578      1.0  0.78762  0.34712  0.71538  1.0000
  C   C490      1.0  0.64952  0.54979  0.74588  1.0000
  H   H579      1.0  0.88631  0.56966  0.55613  1.0000
  H   H580      1.0  0.60123  0.52200  0.70911  1.0000
  S   S132      1.0  0.60151  0.64597  0.62922  1.0000
  Fe  Fe66      1.0  0.56349  0.64721  0.62054  1.0000
  C   C491      1.0  0.63183  0.58650  0.74013  1.0000
  C   C492      1.0  0.61668  0.56271  0.76420  1.0000
  H   H581      1.0  0.80401  0.41512  0.68637  1.0000
  Fe  Fe67      1.0  0.59130  0.36410  0.98660  1.0000
  H   H582      1.0  0.78670  0.50722  0.57398  1.0000
  H   H583      1.0  0.68560  0.45829  0.56677  1.0000
  H   H584      1.0  0.79741  0.40751  0.88979  1.0000
  C   C493      1.0  0.54558  0.46265  0.59990  1.0000
  C   C494      1.0  0.85238  0.40750  0.54837  1.0000
  H   H585      1.0  0.81235  0.35866  0.67298  1.0000
  C   C495      1.0  0.57426  0.44740  0.62584  1.0000
  C   C496      1.0  0.79980  0.37343  0.79880  1.0000
  H   H586      1.0  0.82079  0.34502  0.91372  1.0000
  H   H587      1.0  0.80148  0.39014  0.64982  1.0000
  C   C497      1.0  0.88606  0.63916  0.56792  1.0000
  S   S133      1.0  0.56835  0.38481  0.98193  1.0000
  H   H588      1.0  0.84769  0.40240  0.67230  1.0000
  C   C498      1.0  0.91837  0.35964  0.81791  1.0000
  C   C499      1.0  0.80454  0.53392  0.51815  1.0000
  H   H589      1.0  0.58455  0.50990  0.76213  1.0000
  S   S134      1.0  0.78705  0.38096  0.98482  1.0000
  C   C500      1.0  0.81434  0.41826  0.77824  1.0000
  H   H590      1.0  0.61249  0.48242  0.54035  1.0000
  H   H591      1.0  0.81784  0.58001  0.59532  1.0000
  H   H592      1.0  0.71786  0.39749  0.88967  1.0000
  H   H593      1.0  0.70471  0.44416  0.55169  1.0000
  C   C501      1.0  0.72139  0.37258  0.93892  1.0000
  C   C502      1.0  0.58516  0.57722  0.77999  1.0000
  H   H594      1.0  0.92055  0.35364  0.70346  1.0000
  C   C503      1.0  0.87616  0.41040  0.53389  1.0000
  H   H595      1.0  0.89703  0.35662  0.73770  1.0000
  C   C504      1.0  0.99476  0.41232  0.62021  1.0000
  C   C505      1.0  0.60385  0.51818  0.74527  1.0000
  H   H596      1.0  0.96495  0.37857  0.77115  1.0000
  H   H597      1.0  0.54884  0.58718  0.56362  1.0000
  H   H598      1.0  0.50832  0.61361  0.77399  1.0000
  C   C506      1.0  0.84252  0.62162  0.59891  1.0000
  H   H599      1.0  0.52269  0.37093  0.64402  1.0000
  C   C507      1.0  0.50529  0.37239  0.63449  1.0000
  C   C508      1.0  0.85596  0.59260  0.56733  1.0000
  H   H600      1.0  0.67571  0.39009  0.91970  1.0000
  H   H601      1.0  0.88189  0.39648  0.54438  1.0000
  H   H602      1.0  0.90241  0.38828  0.92517  1.0000
  H   H603      1.0  0.50789  0.43440  0.57762  1.0000
  S   S135      1.0  0.83855  0.43875  0.00243  1.0000
  S   S136      1.0  0.49989  0.64761  0.59279  1.0000
  S   S137      1.0  0.82846  0.52426  0.50960  1.0000
  H   H604      1.0  0.67747  0.48462  0.51711  1.0000
  C   C509      1.0  0.74401  0.43140  0.00628  1.0000
  H   H605      1.0  0.71153  0.50770  0.51518  1.0000
  C   C510      1.0  0.98063  0.47091  0.52559  1.0000
  H   H606      1.0  0.96476  0.45112  0.53109  1.0000
  N   N34       1.0  0.54629  0.56004  0.51218  1.0000
  C   C511      1.0  0.60081  0.46349  0.52488  1.0000
  C   C512      1.0  0.57400  0.56778  0.52101  1.0000
  H   H607      1.0  0.81859  0.50692  0.00157  1.0000
  C   C513      1.0  0.97555  0.48969  0.50700  1.0000
  C   C514      1.0  0.86173  0.44681  0.50681  1.0000
  C   C515      1.0  0.52031  0.75443  0.30735  1.0000
  S   S138      1.0  0.54312  0.85360  0.34243  1.0000
  C   C516      1.0  0.53845  0.77888  0.49880  1.0000
  H   H608      1.0  0.50071  0.70344  0.45338  1.0000
  S   S139      1.0  0.55294  0.86992  0.44991  1.0000
  Fe  Fe68      1.0  0.55155  0.88917  0.38434  1.0000
  S   S140      1.0  0.57503  0.93157  0.35865  1.0000
  Fe  Fe69      1.0  0.54043  0.83300  0.40926  1.0000
  S   S141      1.0  0.55331  0.80205  0.41258  1.0000
  N   N35       1.0  0.51558  0.77464  0.28684  1.0000
  H   H609      1.0  0.58399  0.95193  0.50145  1.0000
  C   C517      1.0  0.54871  0.77880  0.45608  1.0000
  H   H610      1.0  0.56894  0.99436  0.25952  1.0000
  C   C518      1.0  0.53564  0.92830  0.46897  1.0000
  H   H611      1.0  0.51750  0.92637  0.45413  1.0000
  H   H612      1.0  0.55243  0.80486  0.31370  1.0000
  C   C519      1.0  0.61243  0.96677  0.41928  1.0000
  C   C520      1.0  0.59355  0.96237  0.38633  1.0000
  H   H613      1.0  0.55044  0.93546  0.44145  1.0000
  H   H614      1.0  0.61492  0.95076  0.43056  1.0000
  H   H615      1.0  0.57666  0.98056  0.34597  1.0000
  H   H616      1.0  0.51071  0.95988  0.47350  1.0000
  C   C521      1.0  0.54134  0.79864  0.28108  1.0000
  H   H617      1.0  0.55356  0.79562  0.25593  1.0000
  C   C522      1.0  0.53041  0.97607  0.47698  1.0000
  C   C523      1.0  0.55595  0.75985  0.44755  1.0000
  H   H618      1.0  0.50663  0.86267  0.15697  1.0000
  H   H619      1.0  0.55960  0.72763  0.47431  1.0000
  C   C524      1.0  0.55335  0.74157  0.48126  1.0000
  C   C525      1.0  0.59118  0.98369  0.37137  1.0000
  H   H620      1.0  0.51883  0.68170  0.49979  1.0000
  C   C526      1.0  0.62917  0.99223  0.43584  1.0000
  H   H621      1.0  0.53062  0.76097  0.34070  1.0000
  H   H622      1.0  0.53123  0.90825  0.47819  1.0000
  S   S142      1.0  0.50895  0.87668  0.39006  1.0000
  H   H623      1.0  0.56417  0.75965  0.41493  1.0000
  C   C527      1.0  0.57603  0.99482  0.49739  1.0000
  H   H624      1.0  0.53299  0.75020  0.28537  1.0000
  H   H625      1.0  0.64420  0.99544  0.46028  1.0000
  C   C528      1.0  0.55069  0.97236  0.49465  1.0000
  H   H626      1.0  0.50572  0.91093  0.06866  1.0000
  H   H627      1.0  0.50730  0.85650  0.24043  1.0000
  H   H628      1.0  0.50164  0.73608  0.31400  1.0000
  H   H629      1.0  0.53949  0.81546  0.26918  1.0000
  Fe  Fe70      1.0  0.50992  0.85590  0.45298  1.0000
  H   H630      1.0  0.52610  0.66952  0.45016  1.0000
  H   H631      1.0  0.50742  0.69165  0.40265  1.0000
  H   H632      1.0  0.50847  0.78381  0.35442  1.0000
  Fe  Fe71      1.0  0.50075  0.84055  0.35247  1.0000
  C   C529      1.0  0.50183  0.76698  0.24254  1.0000
  H   H633      1.0  0.53282  0.79325  0.50623  1.0000
  H   H634      1.0  0.50025  0.80276  0.23383  1.0000
  C   C530      1.0  0.49989  0.77999  0.31966  1.0000
  H   H635      1.0  0.52862  0.76153  0.56570  1.0000
  H   H636      1.0  0.57616  0.95797  0.55789  1.0000
  Fe  Fe72      1.0  0.54044  0.68194  0.58700  1.0000
  S   S143      1.0  0.54072  0.72025  0.56939  1.0000
  C   C531      1.0  0.51850  0.69281  0.95742  1.0000
  H   H637      1.0  0.56072  0.69419  0.81417  1.0000
  H   H638      1.0  0.51057  0.69223  0.99201  1.0000
  C   C532      1.0  0.52428  0.68630  0.78485  1.0000
  C   C533      1.0  0.54363  0.74207  0.52437  1.0000
  C   C534      1.0  0.50735  0.68504  0.87540  1.0000
  S   S144      1.0  0.55214  0.67413  0.65623  1.0000
  H   H639      1.0  0.52049  0.91591  0.55632  1.0000
  N   N36       1.0  0.54511  0.94602  0.50865  1.0000
  C   C535      1.0  0.53305  0.69016  0.86573  1.0000
  H   H640      1.0  0.59289  0.99404  0.50939  1.0000
  H   H641      1.0  0.53053  0.94869  0.57406  1.0000
  H   H642      1.0  0.54704  0.69332  0.89206  1.0000
  H   H643      1.0  0.53038  0.68605  0.75023  1.0000
  C   C536      1.0  0.53610  0.76080  0.53261  1.0000
  H   H644      1.0  0.53406  0.71327  0.95074  1.0000
  C   C537      1.0  0.54125  0.69074  0.82099  1.0000
  H   H645      1.0  0.56326  0.92535  0.53740  1.0000
  C   C538      1.0  0.52460  0.93546  0.54418  1.0000
  H   H646      1.0  0.52736  0.68012  0.95949  1.0000
  C   C539      1.0  0.56821  0.94546  0.52722  1.0000
  H   H647      1.0  0.50561  0.93261  0.53170  1.0000
  H   H648      1.0  0.51120  0.93704  0.00369  1.0000
  C   C540      1.0  0.49904  0.68123  0.79321  1.0000
