data_image0
_chemical_formula_structural       S2CSFeS2CFe2S2FeS2FeCFeS3H2CFeS2FeS2FeSFeHSC6NHC8H4CH3C3H5CHC2HC6H5C2H2FeHC2H3C2NC5H14C5H3CH8CNFeC4H3SNC9H14SCH3SCNH2C3H4CH4CHSCH4NC2HCHC4HCNC5HSH3CH5CH2CH2CFeCHCHCFeSH2C2HC2H2CFeS2CFeS2FeS2FeHFeS3FeSCFeSHFeHFeS3CHCH2SCH3C2HC6H3C5SCH2CH6NC9H6CSCH3CHC3SC2H3C4H2CSHCH3CH4NC5H3C2H3CNC9H14NCHC2H8C5H4C2H3SH3CHCHNC2H3CHSH8C2HC2FeSC2HCHSCSFeS2FeS2FeHFeS3FeS2FeS2FeSFeS3H3FeS2HFeCSC5HC2HC7HSH2CH3CH2CH2CH2C6H4C6H6CH3CHCHNHC3H2C2HCHCH3CH5CH3C3H3CNC9H15CSH2CHC5H2NFeH3CHCH2C4H3CSNCNCSHC2H9SC2HNSC2H2CH2CH3FeC2HSHSC3H4C3HCHNFeS2CH3CFeS2CHFeS2FeS2FeSFeS3FeS2FeS2FeSFeS3NHC3H3C6H4C2FeH3C6H4CHCSHC6H8SHCHC3NC2HC8H9CH2C2HCH2CNC6H3CH5SCH3CNHCH3CHC2HC3HCH2CSH4CNCHC2H4CHCH4C2H12FeHCHSC2HCH3CHFeH3SCSHSFeCFeS2FeS2FeSCFeSFeS3H3C6H4C6H5CFeH4C6HFeH2CHC4H3NH3C3SHNC2HC3HCH2SH3CH3CH3C2NCH2C3HNC9H12CHFeHCH5CH2CHC2HCHSHFeSHSC3HSHNCHCH5CSCHSCH3CHSHCFeSHFeS2FeSFeS3FeSFeS2H2S2HC2H2C6H5CHC6H4C4H3FeNH5C2HC4H2CHCHC2H5C2HSCH2CSHFeHCHCHNH3CSHCH3CHC2HFeCNC9H16NC2H3CHC2H2CHC3H5C4HC3NHCFeH6C3HCHC2H2SC3HCHCSC4H2CSCHSHNHCSCHCH5CH2CH3C2HC2FeHSNH3C2H7C5SC2HCH3C4H3CHCHCFeCHC2HC3H2CH5NHSC2H2C2H4CHC2H3CHCHC3H4SHSH6FeSC2SC3HC2H2FeCHFeC3HCH4SC3HCHC2HCHFeCH4SH3NC3H4CS2C2HSC2H2FeCH2CH2C2HCHCSCHCSH2CHCFeS2C5HCH3CH2CH3C2HNH2C2HC2SCHC2H3FeH2NHCHC2HCH3CSHCSHCHSH5FeSCFeS2FeSFeS3FeS2FeS2FeSFeS3FeS2H2C9HCH2C2H3C4H4C2H2NC6H4C3H2C2SC2H2CH2FeSH4C2HCHC2H4C2HC2H4C2NH5C2HCSHCHSC2HCH6C3HCNC9H4CH2FeH6NHCHC2H2NCSFeH2CHSCH2CHFeSH2CFeS2FeS2FeSFeS3FeSCFeSHFeSFeS2CHC3SC2HCH4C5H3C6H4C2HCHCHCH3CHC5HCH4C2FeHC2H2CHCSH3CHCH3C2HCNH2CNC3HSHCH4C2H2CHCSCH3NC9H13SH3C3SH2C5H2C2HCH2C4H2CFeS2FeS2FeS2FeSFeS3FeSHSFeHFeS2H5C6H6CHC2H2C6H6CHCHCSCH2SHNC9H13CHCH4C2HC2HNC2HC6H6C3H10CH2CH2NCHFeHC3HNHCH4SCH3C4HC2HCH2C2SNHC2S2C3SH2C4FeHCNH4CH2FeS2FeS2FeS2FeHFeS3CSHSFeSFeCSH4C6H4CFeH6C6H4C6HC2H4NH8CHC2H2FeNC9H14CHCH3CHC2H6CH3CH5NHCSCSC2SCHNC5HCHCH2CFeCHC3H2FeCS2CHC4H2C4HCH3CHSHFeS2FeS2FeSFeS3FeSHFeS2FeSFeS3HCSFeS2CH2C2H3CHCSC2H2FeH5C7H4C6H4CSC3H2CHC7H9NHNCH4C2H5CNHCHC3NC9H4C2H6FeC2HCH2CHC2HCH4CHC4H2NC9H14CHCH2CNH3C3HCHCH2C3HCH4CHCH2CSCSCH2CHCSCSC2H3CHNHCHFeHCH2SHCHCSFeS2H3FeS2FeS2FeSFeS3FeSHFeSHFeSFeSHS2CH2NH3C7H4CH3C2HC3H2SC2H5C8H6CH3CNC9H19CH3CH3C4HCHCHNHC2NC3FeCNCH8NC10H13C7SH3NHCHFeH2CH5C2HSC2H2C2HC3H4CH2
_chemical_formula_sum              "S288 C1080 Fe144 H1296 N72"
_cell_length_a       49.3208
_cell_length_b       49.3869
_cell_length_c       74.5432
_cell_angle_alpha    90.772
_cell_angle_beta     90.4564
_cell_angle_gamma    118.128

_space_group_name_H-M_alt    "P 1"
_space_group_IT_number       1

loop_
  _space_group_symop_operation_xyz
  'x, y, z'

loop_
  _atom_site_type_symbol
  _atom_site_label
  _atom_site_symmetry_multiplicity
  _atom_site_fract_x
  _atom_site_fract_y
  _atom_site_fract_z
  _atom_site_occupancy
  S   S1        1.0  0.35480  0.02193  0.03517  1.0000
  S   S2        1.0  0.23901  0.01903  0.22390  1.0000
  C   C1        1.0  0.34234  0.37930  0.01398  1.0000
  S   S3        1.0  0.16317  0.24965  0.24203  1.0000
  Fe  Fe1       1.0  0.27094  0.32009  0.22345  1.0000
  S   S4        1.0  0.28404  0.35620  0.20138  1.0000
  S   S5        1.0  0.24058  0.26909  0.22063  1.0000
  C   C2        1.0  0.01951  0.33974  0.17606  1.0000
  Fe  Fe2       1.0  0.03165  0.29994  0.24379  1.0000
  Fe  Fe3       1.0  0.31632  0.40805  0.09786  1.0000
  S   S6        1.0  0.32111  0.45264  0.10840  1.0000
  S   S7        1.0  0.30017  0.36600  0.11594  1.0000
  Fe  Fe4       1.0  0.33798  0.43401  0.05995  1.0000
  S   S8        1.0  0.34348  0.48057  0.06859  1.0000
  S   S9        1.0  0.35555  0.43520  0.03118  1.0000
  Fe  Fe5       1.0  0.36571  0.47506  0.09357  1.0000
  C   C3        1.0  0.14097  0.26903  0.24363  1.0000
  Fe  Fe6       1.0  0.29839  0.45455  0.08255  1.0000
  S   S10       1.0  0.26521  0.47411  0.08654  1.0000
  S   S11       1.0  0.36280  0.43010  0.08462  1.0000
  S   S12       1.0  0.29080  0.40824  0.07241  1.0000
  H   H1        1.0  0.48563  0.00372  0.09325  1.0000
  H   H2        1.0  0.07925  0.40881  0.03175  1.0000
  C   C4        1.0  0.45544  0.04064  0.05774  1.0000
  Fe  Fe7       1.0  0.04448  0.39716  0.10012  1.0000
  S   S13       1.0  0.08820  0.44184  0.09807  1.0000
  S   S14       1.0  0.04483  0.37021  0.12503  1.0000
  Fe  Fe8       1.0  0.02234  0.40514  0.06194  1.0000
  S   S15       1.0  0.06463  0.45035  0.05817  1.0000
  S   S16       1.0  0.01441  0.41702  0.09025  1.0000
  Fe  Fe9       1.0  0.09033  0.42691  0.06980  1.0000
  S   S17       1.0  0.12884  0.42269  0.05566  1.0000
  Fe  Fe10      1.0  0.05834  0.46103  0.08673  1.0000
  H   H3        1.0  0.21829  0.49106  0.09336  1.0000
  S   S18       1.0  0.04826  0.38105  0.07213  1.0000
  C   C5        1.0  0.32492  0.08435  0.00043  1.0000
  C   C6        1.0  0.05818  0.45637  0.13963  1.0000
  C   C7        1.0  0.17477  0.35332  0.18201  1.0000
  C   C8        1.0  0.43289  0.46003  0.11546  1.0000
  C   C9        1.0  0.36078  0.02266  0.01154  1.0000
  C   C10       1.0  0.37750  0.39284  0.14326  1.0000
  N   N1        1.0  0.45121  0.02240  0.04100  1.0000
  H   H4        1.0  0.38485  0.07215  0.01123  1.0000
  C   C11       1.0  0.03475  0.34800  0.15947  1.0000
  C   C12       1.0  0.22715  0.45881  0.07804  1.0000
  C   C13       1.0  0.20882  0.47192  0.08388  1.0000
  C   C14       1.0  0.17848  0.46075  0.07738  1.0000
  C   C15       1.0  0.16634  0.43652  0.06482  1.0000
  C   C16       1.0  0.18458  0.42329  0.05903  1.0000
  C   C17       1.0  0.21480  0.43419  0.06573  1.0000
  C   C18       1.0  0.03908  0.43015  0.17406  1.0000
  H   H5        1.0  0.38691  0.46381  0.13392  1.0000
  H   H6        1.0  0.17539  0.40460  0.04926  1.0000
  H   H7        1.0  0.22871  0.42393  0.06116  1.0000
  H   H8        1.0  0.16479  0.47136  0.08179  1.0000
  C   C19       1.0  0.35808  0.41143  0.01363  1.0000
  H   H9        1.0  0.30480  0.04779  0.01950  1.0000
  H   H10       1.0  0.32833  0.36803  0.02539  1.0000
  H   H11       1.0  0.01312  0.45911  0.12264  1.0000
  C   C20       1.0  0.00194  0.44909  0.17624  1.0000
  C   C21       1.0  0.21612  0.36561  0.15410  1.0000
  C   C22       1.0  0.02430  0.36012  0.14564  1.0000
  H   H12       1.0  0.31054  0.20521  0.17942  1.0000
  H   H13       1.0  0.00382  0.34874  0.02333  1.0000
  H   H14       1.0  0.35744  0.42720  0.12608  1.0000
  H   H15       1.0  0.46880  0.06318  0.02476  1.0000
  H   H16       1.0  0.15942  0.35011  0.19300  1.0000
  C   C23       1.0  0.47779  0.01642  0.03884  1.0000
  H   H17       1.0  0.45419  0.44416  0.07504  1.0000
  C   C24       1.0  0.44781  0.46496  0.09903  1.0000
  C   C25       1.0  0.31785  0.10988  0.17982  1.0000
  H   H18       1.0  0.33191  0.10123  0.01119  1.0000
  C   C26       1.0  0.28816  0.35802  0.17758  1.0000
  C   C27       1.0  0.28460  0.33292  0.16697  1.0000
  C   C28       1.0  0.28809  0.33572  0.14816  1.0000
  C   C29       1.0  0.29519  0.36356  0.13968  1.0000
  C   C30       1.0  0.29845  0.38855  0.15028  1.0000
  C   C31       1.0  0.29503  0.38577  0.16907  1.0000
  H   H19       1.0  0.27940  0.31142  0.17325  1.0000
  H   H20       1.0  0.28549  0.31620  0.14013  1.0000
  H   H21       1.0  0.30347  0.41000  0.14402  1.0000
  H   H22       1.0  0.29762  0.40531  0.17709  1.0000
  H   H23       1.0  0.23027  0.14861  0.20927  1.0000
  C   C32       1.0  0.20180  0.38382  0.15658  1.0000
  C   C33       1.0  0.26946  0.17939  0.19429  1.0000
  H   H24       1.0  0.33956  0.12970  0.18481  1.0000
  H   H25       1.0  0.24498  0.06732  0.19419  1.0000
  Fe  Fe11      1.0  0.27064  0.26377  0.24177  1.0000
  H   H26       1.0  0.43619  0.43376  0.15397  1.0000
  C   C34       1.0  0.44310  0.44018  0.08795  1.0000
  C   C35       1.0  0.28344  0.12991  0.19140  1.0000
  H   H27       1.0  0.07988  0.46603  0.14772  1.0000
  H   H28       1.0  0.43495  0.04385  0.06058  1.0000
  H   H29       1.0  0.06439  0.46780  0.12643  1.0000
  C   C36       1.0  0.42357  0.41035  0.09329  1.0000
  C   C37       1.0  0.41828  0.44141  0.15336  1.0000
  N   N2        1.0  0.18329  0.30985  0.19288  1.0000
  C   C38       1.0  0.14976  0.28944  0.19493  1.0000
  C   C39       1.0  0.19735  0.29010  0.18777  1.0000
  C   C40       1.0  0.19655  0.32439  0.21051  1.0000
  C   C41       1.0  0.18894  0.33426  0.17985  1.0000
  C   C42       1.0  0.20993  0.34120  0.16551  1.0000
  H   H30       1.0  0.13836  0.27981  0.18173  1.0000
  H   H31       1.0  0.14513  0.26978  0.20383  1.0000
  H   H32       1.0  0.13789  0.30130  0.20137  1.0000
  H   H33       1.0  0.18923  0.27928  0.17426  1.0000
  H   H34       1.0  0.19143  0.27110  0.19740  1.0000
  H   H35       1.0  0.22297  0.30331  0.18795  1.0000
  H   H36       1.0  0.22150  0.34094  0.20948  1.0000
  H   H37       1.0  0.18508  0.33720  0.21623  1.0000
  H   H38       1.0  0.19423  0.30689  0.22045  1.0000
  H   H39       1.0  0.22258  0.32869  0.16307  1.0000
  H   H40       1.0  0.23281  0.37088  0.14354  1.0000
  H   H41       1.0  0.04813  0.41324  0.02214  1.0000
  H   H42       1.0  0.32243  0.08977  0.17967  1.0000
  H   H43       1.0  0.47566  0.06383  0.05724  1.0000
  C   C43       1.0  0.32513  0.00905  0.14793  1.0000
  C   C44       1.0  0.99341  0.34336  0.17907  1.0000
  C   C45       1.0  0.44879  0.03992  0.02558  1.0000
  C   C46       1.0  0.41261  0.42998  0.12130  1.0000
  C   C47       1.0  0.27722  0.00249  0.17061  1.0000
  H   H44       1.0  0.45892  0.02889  0.06951  1.0000
  H   H45       1.0  0.12784  0.42528  0.01410  1.0000
  H   H46       1.0  0.11646  0.46152  0.02824  1.0000
  C   C48       1.0  0.00696  0.44939  0.13631  1.0000
  H   H47       1.0  0.31344  0.11371  0.16565  1.0000
  H   H48       1.0  0.39209  0.38135  0.14471  1.0000
  H   H49       1.0  0.05783  0.38494  0.01332  1.0000
  H   H50       1.0  0.27083  0.05630  0.18420  1.0000
  H   H51       1.0  0.46250  0.48824  0.09471  1.0000
  H   H52       1.0  0.25681  0.07799  0.17146  1.0000
  H   H53       1.0  0.10479  0.40019  0.99647  1.0000
  H   H54       1.0  0.43664  0.48014  0.12326  1.0000
  C   C49       1.0  0.29598  0.17810  0.24189  1.0000
  N   N3        1.0  0.39605  0.42559  0.13841  1.0000
  Fe  Fe12      1.0  0.28762  0.02675  0.22421  1.0000
  C   C50       1.0  0.09114  0.26806  0.24035  1.0000
  C   C51       1.0  0.30243  0.15880  0.18357  1.0000
  C   C52       1.0  0.29543  0.18311  0.18509  1.0000
  C   C53       1.0  0.25014  0.15125  0.20181  1.0000
  H   H55       1.0  0.34377  0.01181  0.13930  1.0000
  H   H56       1.0  0.12041  0.48041  0.00738  1.0000
  H   H57       1.0  0.26463  0.19855  0.19595  1.0000
  S   S19       1.0  0.31716  0.03360  0.19937  1.0000
  N   N4        1.0  0.13398  0.37356  0.11037  1.0000
  C   C54       1.0  0.11648  0.36300  0.09317  1.0000
  C   C55       1.0  0.11575  0.35243  0.12474  1.0000
  C   C56       1.0  0.13693  0.40424  0.11490  1.0000
  C   C57       1.0  0.16392  0.37359  0.10862  1.0000
  C   C58       1.0  0.19263  0.40092  0.10952  1.0000
  C   C59       1.0  0.16495  0.34562  0.10561  1.0000
  C   C60       1.0  0.22043  0.39997  0.10792  1.0000
  C   C61       1.0  0.19291  0.34499  0.10399  1.0000
  C   C62       1.0  0.22060  0.37213  0.10516  1.0000
  H   H58       1.0  0.11103  0.33909  0.08947  1.0000
  H   H59       1.0  0.09418  0.36360  0.09374  1.0000
  H   H60       1.0  0.12978  0.37789  0.08194  1.0000
  H   H61       1.0  0.10900  0.32806  0.12147  1.0000
  H   H62       1.0  0.09377  0.35315  0.12702  1.0000
  H   H63       1.0  0.12887  0.35858  0.13769  1.0000
  H   H64       1.0  0.14818  0.42080  0.10398  1.0000
  H   H65       1.0  0.11402  0.40318  0.11669  1.0000
  H   H66       1.0  0.15021  0.41383  0.12761  1.0000
  H   H67       1.0  0.19439  0.42346  0.11114  1.0000
  H   H68       1.0  0.14410  0.32403  0.10425  1.0000
  H   H69       1.0  0.24208  0.42111  0.10851  1.0000
  H   H70       1.0  0.19322  0.32343  0.10160  1.0000
  H   H71       1.0  0.24228  0.37165  0.10376  1.0000
  S   S20       1.0  0.35953  0.00554  0.08376  1.0000
  C   C63       1.0  0.02527  0.44692  0.16625  1.0000
  H   H72       1.0  0.06678  0.25557  0.23723  1.0000
  H   H73       1.0  0.05659  0.42665  0.16742  1.0000
  H   H74       1.0  0.05488  0.34507  0.15740  1.0000
  S   S21       1.0  0.99863  0.27694  0.22071  1.0000
  C   C64       1.0  0.10358  0.46198  0.01596  1.0000
  N   N5        1.0  0.29141  0.10451  0.19138  1.0000
  H   H75       1.0  0.44680  0.02745  0.01268  1.0000
  H   H76       1.0  0.32313  0.16344  0.17651  1.0000
  C   C65       1.0  0.26481  0.07539  0.18502  1.0000
  C   C66       1.0  0.99807  0.36354  0.14858  1.0000
  C   C67       1.0  0.99336  0.35624  0.01306  1.0000
  H   H77       1.0  0.08610  0.46861  0.02063  1.0000
  H   H78       1.0  0.39302  0.38150  0.11272  1.0000
  H   H79       1.0  0.30713  0.08258  0.21053  1.0000
  H   H80       1.0  0.05010  0.43145  0.13694  1.0000
  C   C68       1.0  0.18107  0.37763  0.17047  1.0000
  H   H81       1.0  0.35484  0.03160  0.17080  1.0000
  H   H82       1.0  0.24227  0.10622  0.20762  1.0000
  H   H83       1.0  0.42807  0.04345  0.02654  1.0000
  H   H84       1.0  0.31869  0.12217  0.21553  1.0000
  C   C69       1.0  0.40842  0.40514  0.10969  1.0000
  H   H85       1.0  0.17045  0.39224  0.17264  1.0000
  S   S22       1.0  0.30322  0.31486  0.24297  1.0000
  C   C70       1.0  0.10930  0.25301  0.23964  1.0000
  H   H86       1.0  0.40671  0.43682  0.16659  1.0000
  H   H87       1.0  0.03986  0.40281  0.19621  1.0000
  H   H88       1.0  0.20736  0.40318  0.14796  1.0000
  H   H89       1.0  0.27982  0.09343  0.21917  1.0000
  N   N6        1.0  0.03420  0.46163  0.14856  1.0000
  C   C71       1.0  0.33132  0.02027  0.16583  1.0000
  C   C72       1.0  0.29956  0.10048  0.20995  1.0000
  H   H90       1.0  0.02811  0.33077  0.18657  1.0000
  C   C73       1.0  0.06765  0.40870  0.01889  1.0000
  H   H91       1.0  0.35904  0.37989  0.13307  1.0000
  C   C74       1.0  0.25709  0.12694  0.20060  1.0000
  C   C75       1.0  0.30750  0.01715  0.17729  1.0000
  C   C76       1.0  0.34443  0.36170  0.99943  1.0000
  C   C77       1.0  0.00625  0.41821  0.19992  1.0000
  H   H92       1.0  0.36534  0.39030  0.15618  1.0000
  C   C78       1.0  0.10471  0.29930  0.24493  1.0000
  N   N7        1.0  0.08902  0.43177  0.00634  1.0000
  C   C79       1.0  0.34986  0.99593  0.00089  1.0000
  C   C80       1.0  0.37479  0.43892  0.13699  1.0000
  C   C81       1.0  0.02973  0.41627  0.19070  1.0000
  C   C82       1.0  0.37626  0.05130  0.00315  1.0000
  C   C83       1.0  0.37611  0.42554  0.99857  1.0000
  H   H93       1.0  0.36213  0.43659  0.14965  1.0000
  S   S23       1.0  0.29316  0.23241  0.23967  1.0000
  H   H94       1.0  0.40179  0.99940  0.04318  1.0000
  H   H95       1.0  0.99836  0.40632  0.21247  1.0000
  H   H96       1.0  0.38843  0.45034  0.99812  1.0000
  C   C84       1.0  0.11385  0.42396  0.00194  1.0000
  H   H97       1.0  0.09876  0.22887  0.23595  1.0000
  H   H98       1.0  0.36960  0.14640  0.00199  1.0000
  H   H99       1.0  0.25860  0.99978  0.17922  1.0000
  H   H100      1.0  0.29916  0.13592  0.24362  1.0000
  H   H101      1.0  0.32020  0.19209  0.23933  1.0000
  C   C85       1.0  0.30902  0.05359  0.00544  1.0000
  H   H102      1.0  0.43019  0.46680  0.15205  1.0000
  H   H103      1.0  0.41953  0.39117  0.08443  1.0000
  C   C86       1.0  0.29500  0.99514  0.14109  1.0000
  H   H104      1.0  0.33191  0.33691  0.99984  1.0000
  H   H105      1.0  0.99642  0.42397  0.13483  1.0000
  C   C87       1.0  0.27685  0.19208  0.24287  1.0000
  Fe  Fe13      1.0  0.21524  0.27494  0.24415  1.0000
  C   C88       1.0  0.28407  0.14617  0.24419  1.0000
  H   H106      1.0  0.28834  0.00635  0.99660  1.0000
  C   C89       1.0  0.99250  0.43474  0.19276  1.0000
  H   H107      1.0  0.33289  0.14456  0.99636  1.0000
  C   C90       1.0  0.42129  0.99403  0.04210  1.0000
  Fe  Fe14      1.0  0.28891  0.02205  0.26603  1.0000
  S   S24       1.0  0.24041  0.01442  0.26828  1.0000
  H   H108      1.0  0.34825  0.11536  0.43768  1.0000
  H   H109      1.0  0.04821  0.33860  0.32535  1.0000
  C   C91       1.0  0.36507  0.00989  0.49156  1.0000
  C   C92       1.0  0.06807  0.33389  0.32411  1.0000
  H   H110      1.0  0.08886  0.35665  0.32305  1.0000
  C   C93       1.0  0.24055  0.19252  0.29944  1.0000
  C   C94       1.0  0.31546  0.01210  0.31146  1.0000
  H   H111      1.0  0.46127  0.47578  0.47428  1.0000
  H   H112      1.0  0.25402  0.23898  0.30590  1.0000
  C   C95       1.0  0.24903  0.17104  0.29299  1.0000
  Fe  Fe15      1.0  0.27368  0.31697  0.26538  1.0000
  S   S25       1.0  0.29893  0.34972  0.28915  1.0000
  S   S26       1.0  0.24293  0.26569  0.26520  1.0000
  C   C96       1.0  0.08973  0.30582  0.30641  1.0000
  Fe  Fe16      1.0  0.33293  0.41448  0.43477  1.0000
  S   S27       1.0  0.34184  0.46315  0.43099  1.0000
  S   S28       1.0  0.35631  0.40295  0.45819  1.0000
  Fe  Fe17      1.0  0.30952  0.39635  0.39472  1.0000
  S   S29       1.0  0.31909  0.44441  0.38886  1.0000
  S   S30       1.0  0.28383  0.35673  0.37429  1.0000
  Fe  Fe18      1.0  0.36292  0.46051  0.40496  1.0000
  H   H113      1.0  0.07050  0.27688  0.28233  1.0000
  Fe  Fe19      1.0  0.29676  0.44229  0.41544  1.0000
  S   S31       1.0  0.26336  0.46207  0.41480  1.0000
  S   S32       1.0  0.35515  0.41236  0.40882  1.0000
  S   S33       1.0  0.28585  0.39357  0.42109  1.0000
  Fe  Fe20      1.0  0.04635  0.41358  0.39156  1.0000
  S   S34       1.0  0.09300  0.44765  0.40294  1.0000
  C   C97       1.0  0.30186  0.32664  0.47896  1.0000
  Fe  Fe21      1.0  0.01973  0.39565  0.42992  1.0000
  S   S35       1.0  0.06466  0.42737  0.44312  1.0000
  H   H114      1.0  0.34188  0.30917  0.44833  1.0000
  Fe  Fe22      1.0  0.06689  0.46133  0.42258  1.0000
  H   H115      1.0  0.35611  0.25866  0.30141  1.0000
  Fe  Fe23      1.0  0.08634  0.41066  0.42226  1.0000
  S   S36       1.0  0.11949  0.39241  0.42983  1.0000
  S   S37       1.0  0.02084  0.43032  0.41005  1.0000
  S   S38       1.0  0.04084  0.37590  0.41020  1.0000
  C   C98       1.0  0.04283  0.34433  0.45362  1.0000
  H   H116      1.0  0.33822  0.26572  0.27198  1.0000
  C   C99       1.0  0.03468  0.28531  0.31017  1.0000
  H   H117      1.0  0.09032  0.32889  0.47968  1.0000
  H   H118      1.0  0.28599  0.03085  0.34797  1.0000
  S   S39       1.0  0.31738  0.01382  0.28762  1.0000
  C   C100      1.0  0.01847  0.46356  0.34834  1.0000
  H   H119      1.0  0.01505  0.29048  0.31159  1.0000
  H   H120      1.0  0.42036  0.45843  0.47355  1.0000
  H   H121      1.0  0.08473  0.35095  0.28975  1.0000
  C   C101      1.0  0.30588  0.28701  0.30564  1.0000
  C   C102      1.0  0.44324  0.47636  0.44039  1.0000
  H   H122      1.0  0.02301  0.39549  0.47592  1.0000
  C   C103      1.0  0.22348  0.44234  0.41931  1.0000
  C   C104      1.0  0.20972  0.41359  0.42737  1.0000
  C   C105      1.0  0.17788  0.39867  0.43059  1.0000
  C   C106      1.0  0.15950  0.41227  0.42574  1.0000
  C   C107      1.0  0.17322  0.44091  0.41760  1.0000
  C   C108      1.0  0.20507  0.45588  0.41447  1.0000
  H   H123      1.0  0.22367  0.40300  0.43126  1.0000
  H   H124      1.0  0.16747  0.37652  0.43689  1.0000
  H   H125      1.0  0.15935  0.45160  0.41378  1.0000
  C   C109      1.0  0.99635  0.34429  0.31362  1.0000
  C   C110      1.0  0.35291  0.39976  0.48201  1.0000
  C   C111      1.0  0.31417  0.00826  0.34949  1.0000
  C   C112      1.0  0.03637  0.39361  0.32518  1.0000
  C   C113      1.0  0.34275  0.30250  0.47686  1.0000
  S   S40       1.0  0.31509  0.00882  0.37339  1.0000
  C   C114      1.0  0.11271  0.27835  0.29002  1.0000
  H   H126      1.0  0.28638  0.03333  0.31462  1.0000
  H   H127      1.0  0.30795  0.04288  0.48930  1.0000
  C   C115      1.0  0.02689  0.38545  0.34297  1.0000
  H   H128      1.0  0.02934  0.35703  0.45486  1.0000
  H   H129      1.0  0.06920  0.32297  0.33686  1.0000
  H   H130      1.0  0.21552  0.47812  0.40825  1.0000
  H   H131      1.0  0.30617  0.33110  0.45034  1.0000
  H   H132      1.0  0.33687  0.26028  0.32146  1.0000
  H   H133      1.0  0.15634  0.28448  0.29982  1.0000
  N   N8        1.0  0.31703  0.26676  0.29718  1.0000
  C   C116      1.0  0.32389  0.03360  0.49001  1.0000
  C   C117      1.0  0.29837  0.02154  0.34036  1.0000
  C   C118      1.0  0.07957  0.37691  0.47583  1.0000
  C   C119      1.0  0.29316  0.35154  0.31268  1.0000
  C   C120      1.0  0.26911  0.32774  0.32173  1.0000
  C   C121      1.0  0.26663  0.32976  0.34053  1.0000
  C   C122      1.0  0.28787  0.35566  0.35054  1.0000
  C   C123      1.0  0.31150  0.37968  0.34144  1.0000
  C   C124      1.0  0.31419  0.37750  0.32269  1.0000
  H   H134      1.0  0.25264  0.30767  0.31428  1.0000
  H   H135      1.0  0.24821  0.31105  0.34740  1.0000
  H   H136      1.0  0.32806  0.39973  0.34889  1.0000
  H   H137      1.0  0.33291  0.39605  0.31588  1.0000
  H   H138      1.0  0.02887  0.26963  0.29830  1.0000
  H   H139      1.0  0.28695  0.28735  0.29760  1.0000
  C   C125      1.0  0.34058  0.08172  0.40989  1.0000
  S   S41       1.0  0.24385  0.32613  0.24602  1.0000
  C   C126      1.0  0.08909  0.28612  0.29216  1.0000
  H   H140      1.0  0.11168  0.26331  0.27900  1.0000
  H   H141      1.0  0.42159  0.45403  0.43960  1.0000
  H   H142      1.0  0.05983  0.35560  0.44288  1.0000
  C   C127      1.0  0.00208  0.35649  0.34601  1.0000
  H   H143      1.0  0.15915  0.31905  0.32493  1.0000
  C   C128      1.0  0.31280  0.32337  0.46235  1.0000
  C   C129      1.0  0.06263  0.32989  0.29206  1.0000
  C   C130      1.0  0.11576  0.31756  0.31824  1.0000
  S   S42       1.0  0.04598  0.41293  0.36063  1.0000
  C   C131      1.0  0.07631  0.32802  0.46773  1.0000
  C   C132      1.0  0.29860  0.02303  0.32143  1.0000
  H   H144      1.0  0.39988  0.07344  0.47737  1.0000
  H   H145      1.0  0.39327  0.47502  0.45462  1.0000
  H   H146      1.0  0.02731  0.32060  0.44858  1.0000
  C   C133      1.0  0.32924  0.40151  0.49133  1.0000
  C   C134      1.0  0.34560  0.00310  0.47638  1.0000
  C   C135      1.0  0.13632  0.31524  0.24898  1.0000
  C   C136      1.0  0.44176  0.48088  0.47260  1.0000
  H   H147      1.0  0.02209  0.44768  0.33907  1.0000
  H   H148      1.0  0.23202  0.14707  0.29143  1.0000
  C   C137      1.0  0.30109  0.21151  0.28929  1.0000
  S   S43       1.0  0.01976  0.33854  0.24690  1.0000
  H   H149      1.0  0.09487  0.38936  0.46454  1.0000
  C   C138      1.0  0.32475  0.01485  0.47576  1.0000
  H   H150      1.0  0.03507  0.27220  0.32211  1.0000
  H   H151      1.0  0.35814  0.10585  0.40745  1.0000
  H   H152      1.0  0.31980  0.08147  0.41577  1.0000
  C   C139      1.0  0.32722  0.27806  0.27886  1.0000
  H   H153      1.0  0.39285  0.39301  0.48479  1.0000
  H   H154      1.0  0.32386  0.21781  0.28446  1.0000
  H   H155      1.0  0.09275  0.33836  0.45652  1.0000
  H   H156      1.0  0.30942  0.03469  0.43252  1.0000
  N   N9        1.0  0.35315  0.06587  0.42148  1.0000
  C   C140      1.0  0.32813  0.03440  0.42439  1.0000
  C   C141      1.0  0.35985  0.10571  0.44562  1.0000
  C   C142      1.0  0.37799  0.06388  0.41134  1.0000
  C   C143      1.0  0.36486  0.08121  0.43917  1.0000
  C   C144      1.0  0.15432  0.30012  0.24853  1.0000
  H   H157      1.0  0.31770  0.02242  0.41142  1.0000
  H   H158      1.0  0.33636  0.02002  0.43162  1.0000
  H   H159      1.0  0.48266  0.00468  0.39140  1.0000
  C   C145      1.0  0.00089  0.38180  0.48185  1.0000
  C   C146      1.0  0.13943  0.30982  0.31585  1.0000
  H   H160      1.0  0.38643  0.04922  0.41797  1.0000
  H   H161      1.0  0.36987  0.05332  0.39770  1.0000
  H   H162      1.0  0.39798  0.08703  0.40965  1.0000
  C   C147      1.0  0.38357  0.10645  0.47435  1.0000
  N   N10       1.0  0.22362  0.40292  0.36597  1.0000
  C   C148      1.0  0.24531  0.43627  0.36558  1.0000
  C   C149      1.0  0.23107  0.39042  0.38221  1.0000
  C   C150      1.0  0.22914  0.38762  0.35016  1.0000
  C   C151      1.0  0.19172  0.39846  0.36556  1.0000
  C   C152      1.0  0.18034  0.40710  0.35029  1.0000
  C   C153      1.0  0.17178  0.38741  0.38045  1.0000
  C   C154      1.0  0.15099  0.40493  0.35000  1.0000
  C   C155      1.0  0.14249  0.38535  0.38001  1.0000
  C   C156      1.0  0.13215  0.39421  0.36488  1.0000
  H   H163      1.0  0.26966  0.44086  0.36611  1.0000
  H   H164      1.0  0.24254  0.44716  0.35326  1.0000
  H   H165      1.0  0.24192  0.44856  0.37732  1.0000
  H   H166      1.0  0.23028  0.40264  0.39463  1.0000
  H   H167      1.0  0.25485  0.39338  0.38187  1.0000
  H   H168      1.0  0.21544  0.36539  0.38350  1.0000
  H   H169      1.0  0.21241  0.36270  0.34957  1.0000
  H   H170      1.0  0.22783  0.39792  0.33726  1.0000
  H   H171      1.0  0.25259  0.38947  0.35072  1.0000
  H   H172      1.0  0.19447  0.41654  0.33868  1.0000
  H   H173      1.0  0.17852  0.38093  0.39282  1.0000
  H   H174      1.0  0.14312  0.41243  0.33839  1.0000
  H   H175      1.0  0.12804  0.37761  0.39173  1.0000
  H   H176      1.0  0.10974  0.39337  0.36486  1.0000
  N   N11       1.0  0.06438  0.31372  0.30830  1.0000
  C   C157      1.0  0.36907  0.11798  0.46299  1.0000
  H   H177      1.0  0.36142  0.29477  0.30976  1.0000
  C   C158      1.0  0.02333  0.46993  0.47876  1.0000
  C   C159      1.0  0.37438  0.39432  0.49179  1.0000
  H   H178      1.0  0.03432  0.46820  0.36009  1.0000
  H   H179      1.0  0.28552  0.16378  0.28254  1.0000
  H   H180      1.0  0.30730  0.27459  0.27026  1.0000
  H   H181      1.0  0.06680  0.38955  0.47961  1.0000
  H   H182      1.0  0.09513  0.37911  0.48723  1.0000
  H   H183      1.0  0.04404  0.33654  0.29293  1.0000
  H   H184      1.0  0.99357  0.42173  0.37321  1.0000
  H   H185      1.0  0.29783  0.27997  0.31954  1.0000
  C   C160      1.0  0.02136  0.37318  0.31061  1.0000
  C   C161      1.0  0.37992  0.07022  0.45108  1.0000
  C   C162      1.0  0.29342  0.23402  0.29604  1.0000
  C   C163      1.0  0.03626  0.32974  0.48560  1.0000
  C   C164      1.0  0.00377  0.31566  0.48308  1.0000
  H   H186      1.0  0.17851  0.31256  0.25200  1.0000
  H   H187      1.0  0.33301  0.07003  0.39646  1.0000
  H   H188      1.0  0.02879  0.37999  0.29703  1.0000
  H   H189      1.0  0.32422  0.31142  0.30653  1.0000
  C   C165      1.0  0.38934  0.08291  0.46832  1.0000
  C   C166      1.0  0.27926  0.18050  0.28801  1.0000
  H   H190      1.0  0.34391  0.30303  0.27888  1.0000
  H   H191      1.0  0.30947  0.00974  0.46429  1.0000
  H   H192      1.0  0.38966  0.11519  0.48804  1.0000
  S   S44       1.0  0.23588  0.08706  0.24952  1.0000
  H   H193      1.0  0.05746  0.31534  0.27975  1.0000
  H   H194      1.0  0.21683  0.18510  0.30298  1.0000
  H   H195      1.0  0.38328  0.05072  0.44752  1.0000
  C   C167      1.0  0.26231  0.22358  0.30103  1.0000
  H   H196      1.0  0.28671  0.33692  0.47974  1.0000
  C   C168      1.0  0.34398  0.27018  0.30791  1.0000
  H   H197      1.0  0.05539  0.41601  0.32261  1.0000
  N   N12       1.0  0.05813  0.34442  0.47088  1.0000
  C   C169      1.0  0.33314  0.31123  0.46129  1.0000
  C   C170      1.0  0.13790  0.29029  0.30176  1.0000
  H   H198      1.0  0.35857  0.29326  0.47535  1.0000
  H   H199      1.0  0.11850  0.33286  0.32939  1.0000
  H   H200      1.0  0.31256  0.40573  0.48407  1.0000
  C   C171      1.0  0.23364  0.14172  0.24840  1.0000
  H   H201      1.0  0.06104  0.30340  0.46418  1.0000
  S   S45       1.0  0.99804  0.27033  0.26432  1.0000
  H   H202      1.0  0.36435  0.13609  0.46787  1.0000
  H   H203      1.0  0.14689  0.33937  0.25268  1.0000
  H   H204      1.0  0.38126  0.00092  0.49225  1.0000
  H   H205      1.0  0.46250  0.47080  0.44164  1.0000
  H   H206      1.0  0.03359  0.47472  0.46556  1.0000
  H   H207      1.0  0.99431  0.34983  0.35955  1.0000
  H   H208      1.0  0.02608  0.48555  0.34126  1.0000
  H   H209      1.0  0.99299  0.31495  0.47028  1.0000
  C   C172      1.0  0.33130  0.99892  0.32061  1.0000
  C   C173      1.0  0.99420  0.44520  0.48102  1.0000
  H   H210      1.0  0.44562  0.48778  0.42729  1.0000
  C   C174      1.0  0.33027  0.99654  0.33946  1.0000
  C   C175      1.0  0.33260  0.30617  0.49407  1.0000
  Fe  Fe24      1.0  0.25416  0.05212  0.24775  1.0000
  S   S46       1.0  0.41193  0.49317  0.39708  1.0000
  C   C176      1.0  0.24560  0.17369  0.24627  1.0000
  C   C177      1.0  0.31167  0.31845  0.49465  1.0000
  H   H211      1.0  0.20937  0.12773  0.25085  1.0000
  C   C178      1.0  0.25269  0.12768  0.24727  1.0000
  H   H212      1.0  0.23059  0.18404  0.24715  1.0000
  S   S47       1.0  0.30363  0.06182  0.24711  1.0000
  C   C179      1.0  0.03955  0.48805  0.49354  1.0000
  S   S48       1.0  0.08351  0.31970  0.24565  1.0000
  Fe  Fe25      1.0  0.36898  0.36927  0.56308  1.0000
  S   S49       1.0  0.41024  0.36378  0.55563  1.0000
  S   S50       1.0  0.34288  0.38444  0.54335  1.0000
  Fe  Fe26      1.0  0.36630  0.34388  0.60161  1.0000
  S   S51       1.0  0.40713  0.33661  0.59587  1.0000
  S   S52       1.0  0.34424  0.32191  0.62832  1.0000
  Fe  Fe27      1.0  0.42798  0.38338  0.58344  1.0000
  H   H213      1.0  0.03617  0.31804  0.53098  1.0000
  Fe  Fe28      1.0  0.38586  0.31788  0.56898  1.0000
  S   S53       1.0  0.37675  0.27272  0.55533  1.0000
  S   S54       1.0  0.38810  0.39175  0.59035  1.0000
  S   S55       1.0  0.34358  0.32226  0.57510  1.0000
  Fe  Fe29      1.0  0.40552  0.13321  0.57467  1.0000
  S   S56       1.0  0.35480  0.10487  0.56998  1.0000
  S   S57       1.0  0.43021  0.18442  0.58067  1.0000
  Fe  Fe30      1.0  0.41625  0.07740  0.57494  1.0000
  S   S58       1.0  0.36577  0.04478  0.57040  1.0000
  S   S59       1.0  0.44735  0.05511  0.57703  1.0000
  Fe  Fe31      1.0  0.36737  0.07814  0.54971  1.0000
  S   S60       1.0  0.34256  0.06562  0.52231  1.0000
  Fe  Fe32      1.0  0.35767  0.07395  0.59103  1.0000
  S   S61       1.0  0.32004  0.05324  0.61207  1.0000
  S   S62       1.0  0.41832  0.10920  0.55303  1.0000
  S   S63       1.0  0.40784  0.10395  0.59696  1.0000
  H   H214      1.0  0.16319  0.26612  0.69430  1.0000
  H   H215      1.0  0.02319  0.28539  0.67563  1.0000
  H   H216      1.0  0.34076  0.25619  0.52192  1.0000
  Fe  Fe33      1.0  0.28714  0.32067  0.72873  1.0000
  S   S64       1.0  0.24340  0.27641  0.72550  1.0000
  S   S65       1.0  0.30722  0.35358  0.70523  1.0000
  H   H217      1.0  0.30805  0.39806  0.51708  1.0000
  Fe  Fe34      1.0  0.28533  0.04060  0.72058  1.0000
  C   C180      1.0  0.36403  0.02840  0.50587  1.0000
  S   S66       1.0  0.32088  0.05921  0.69805  1.0000
  C   C181      1.0  0.02746  0.30242  0.68660  1.0000
  C   C182      1.0  0.38295  0.01908  0.67777  1.0000
  C   C183      1.0  0.15851  0.15790  0.72550  1.0000
  C   C184      1.0  0.07910  0.33606  0.67721  1.0000
  C   C185      1.0  0.33468  0.99958  0.66164  1.0000
  H   H218      1.0  0.00106  0.36119  0.62302  1.0000
  C   C186      1.0  0.37209  0.39036  0.51056  1.0000
  C   C187      1.0  0.01972  0.33319  0.63380  1.0000
  H   H219      1.0  0.03733  0.30744  0.64769  1.0000
  C   C188      1.0  0.01153  0.35656  0.63463  1.0000
  C   C189      1.0  0.32090  0.05548  0.63597  1.0000
  C   C190      1.0  0.29317  0.03968  0.64528  1.0000
  C   C191      1.0  0.29254  0.04091  0.66421  1.0000
  C   C192      1.0  0.31976  0.05797  0.67412  1.0000
  C   C193      1.0  0.34745  0.07409  0.66478  1.0000
  C   C194      1.0  0.34806  0.07296  0.64584  1.0000
  H   H220      1.0  0.48467  0.13524  0.55047  1.0000
  S   S67       1.0  0.47794  0.41349  0.59231  1.0000
  H   H221      1.0  0.36865  0.08730  0.67229  1.0000
  H   H222      1.0  0.36952  0.08546  0.63894  1.0000
  C   C195      1.0  0.34356  0.04060  0.50513  1.0000
  H   H223      1.0  0.13464  0.31162  0.71643  1.0000
  H   H224      1.0  0.03145  0.35279  0.70199  1.0000
  H   H225      1.0  0.37929  0.03352  0.51737  1.0000
  C   C196      1.0  0.42129  0.38755  0.66389  1.0000
  H   H226      1.0  0.45043  0.37025  0.62600  1.0000
  H   H227      1.0  0.38907  0.38679  0.51791  1.0000
  C   C197      1.0  0.19427  0.24986  0.68523  1.0000
  H   H228      1.0  0.99252  0.43399  0.55677  1.0000
  H   H229      1.0  0.02858  0.37884  0.67800  1.0000
  C   C198      1.0  0.02724  0.31713  0.51752  1.0000
  H   H230      1.0  0.00486  0.30043  0.69042  1.0000
  H   H231      1.0  0.01904  0.38886  0.50896  1.0000
  C   C199      1.0  0.33340  0.33141  0.64936  1.0000
  C   C200      1.0  0.33707  0.36070  0.65353  1.0000
  C   C201      1.0  0.32856  0.36694  0.67055  1.0000
  C   C202      1.0  0.31630  0.34411  0.68365  1.0000
  C   C203      1.0  0.31242  0.31478  0.67942  1.0000
  C   C204      1.0  0.32093  0.30854  0.66242  1.0000
  H   H232      1.0  0.34634  0.37852  0.64366  1.0000
  H   H233      1.0  0.33167  0.38970  0.67364  1.0000
  H   H234      1.0  0.30310  0.29696  0.68932  1.0000
  H   H235      1.0  0.31791  0.28580  0.65941  1.0000
  C   C205      1.0  0.41453  0.20840  0.57388  1.0000
  C   C206      1.0  0.42623  0.23804  0.58149  1.0000
  C   C207      1.0  0.41464  0.25791  0.57614  1.0000
  C   C208      1.0  0.39156  0.24840  0.56290  1.0000
  C   C209      1.0  0.37977  0.21869  0.55535  1.0000
  C   C210      1.0  0.39101  0.19865  0.56091  1.0000
  H   H236      1.0  0.44437  0.24574  0.59157  1.0000
  H   H237      1.0  0.42385  0.28072  0.58207  1.0000
  H   H238      1.0  0.36186  0.21112  0.54514  1.0000
  H   H239      1.0  0.38187  0.17591  0.55490  1.0000
  H   H240      1.0  0.46206  0.46154  0.58226  1.0000
  H   H241      1.0  0.33573  0.99940  0.63336  1.0000
  C   C211      1.0  0.34794  0.39123  0.51982  1.0000
  H   H242      1.0  0.14518  0.23240  0.71963  1.0000
  H   H243      1.0  0.27107  0.02841  0.67114  1.0000
  H   H244      1.0  0.27604  0.16361  0.71333  1.0000
  C   C212      1.0  0.13119  0.29894  0.72866  1.0000
  H   H245      1.0  0.41198  0.07208  0.63005  1.0000
  C   C213      1.0  0.33336  0.26380  0.50964  1.0000
  H   H246      1.0  0.06367  0.34806  0.70893  1.0000
  N   N13       1.0  0.39975  0.02425  0.62779  1.0000
  H   H247      1.0  0.01555  0.31985  0.62145  1.0000
  C   C214      1.0  0.04734  0.32956  0.50322  1.0000
  C   C215      1.0  0.10281  0.28764  0.73743  1.0000
  C   C216      1.0  0.32671  0.39709  0.51008  1.0000
  H   H248      1.0  0.13979  0.20891  0.74538  1.0000
  H   H249      1.0  0.39562  0.02508  0.69042  1.0000
  C   C217      1.0  0.39047  0.35378  0.68797  1.0000
  C   C218      1.0  0.33216  0.30407  0.52729  1.0000
  H   H250      1.0  0.03647  0.29517  0.69831  1.0000
  C   C219      1.0  0.40512  0.40770  0.68970  1.0000
  H   H251      1.0  0.25662  0.11047  0.72413  1.0000
  C   C220      1.0  0.42045  0.41225  0.67342  1.0000
  H   H252      1.0  0.22475  0.23087  0.68010  1.0000
  H   H253      1.0  0.43250  0.40719  0.61994  1.0000
  H   H254      1.0  0.09549  0.35927  0.67236  1.0000
  C   C221      1.0  0.03196  0.32619  0.64895  1.0000
  H   H255      1.0  0.18001  0.15705  0.72200  1.0000
  H   H256      1.0  0.43100  0.43514  0.66812  1.0000
  H   H257      1.0  0.41398  0.34653  0.63569  1.0000
  H   H258      1.0  0.30665  0.29142  0.52794  1.0000
  H   H259      1.0  0.30784  0.25046  0.50860  1.0000
  C   C222      1.0  0.39849  0.02392  0.66154  1.0000
  H   H260      1.0  0.36760  0.03188  0.61161  1.0000
  H   H261      1.0  0.49032  0.11436  0.59318  1.0000
  H   H262      1.0  0.47134  0.44004  0.65198  1.0000
  C   C223      1.0  0.03631  0.34245  0.66549  1.0000
  C   C224      1.0  0.16166  0.23024  0.71109  1.0000
  C   C225      1.0  0.25708  0.17809  0.73511  1.0000
  H   H263      1.0  0.39345  0.02329  0.59902  1.0000
  H   H264      1.0  0.42090  0.42434  0.63742  1.0000
  H   H265      1.0  0.14223  0.14853  0.71386  1.0000
  C   C226      1.0  0.39022  0.37854  0.69697  1.0000
  N   N14       1.0  0.33210  0.15020  0.61653  1.0000
  C   C227      1.0  0.36313  0.15370  0.61300  1.0000
  C   C228      1.0  0.32095  0.13252  0.63327  1.0000
  C   C229      1.0  0.31097  0.13149  0.60171  1.0000
  C   C230      1.0  0.33359  0.18088  0.61745  1.0000
  C   C231      1.0  0.32629  0.19267  0.63318  1.0000
  C   C232      1.0  0.34277  0.20013  0.60229  1.0000
  C   C233      1.0  0.32776  0.22170  0.63346  1.0000
  C   C234      1.0  0.34401  0.22902  0.60272  1.0000
  C   C235      1.0  0.33650  0.23976  0.61826  1.0000
  H   H266      1.0  0.38015  0.16876  0.62336  1.0000
  H   H267      1.0  0.36314  0.13112  0.61289  1.0000
  H   H268      1.0  0.37192  0.16408  0.59976  1.0000
  H   H269      1.0  0.31933  0.10934  0.63194  1.0000
  H   H270      1.0  0.29744  0.12863  0.63662  1.0000
  H   H271      1.0  0.33681  0.14412  0.64485  1.0000
  H   H272      1.0  0.30826  0.10773  0.60117  1.0000
  H   H273      1.0  0.28771  0.12954  0.60335  1.0000
  H   H274      1.0  0.31941  0.14131  0.58830  1.0000
  H   H275      1.0  0.31939  0.18002  0.64547  1.0000
  H   H276      1.0  0.34916  0.19304  0.58995  1.0000
  H   H277      1.0  0.32206  0.23035  0.64553  1.0000
  H   H278      1.0  0.35089  0.24328  0.59095  1.0000
  H   H279      1.0  0.33751  0.26219  0.61850  1.0000
  H   H280      1.0  0.20282  0.26580  0.67426  1.0000
  C   C236      1.0  0.05365  0.35453  0.69732  1.0000
  S   S68       1.0  0.23353  0.02073  0.72119  1.0000
  H   H281      1.0  0.20808  0.19679  0.70553  1.0000
  H   H282      1.0  0.34084  0.29712  0.53923  1.0000
  C   C237      1.0  0.00235  0.44036  0.54308  1.0000
  H   H283      1.0  0.00781  0.39026  0.65136  1.0000
  C   C238      1.0  0.18945  0.20247  0.74401  1.0000
  C   C239      1.0  0.01530  0.37286  0.65065  1.0000
  C   C240      1.0  0.43765  0.36520  0.63886  1.0000
  C   C241      1.0  0.26300  0.15682  0.72556  1.0000
  C   C242      1.0  0.17196  0.25000  0.69653  1.0000
  H   H284      1.0  0.07718  0.31894  0.66678  1.0000
  H   H285      1.0  0.38680  0.30954  0.52411  1.0000
  N   N15       1.0  0.04892  0.33425  0.68141  1.0000
  Fe  Fe35      1.0  0.02546  0.28330  0.73832  1.0000
  H   H286      1.0  0.17715  0.30349  0.72886  1.0000
  H   H287      1.0  0.21139  0.20518  0.73844  1.0000
  H   H288      1.0  0.11650  0.17883  0.72929  1.0000
  C   C243      1.0  0.99847  0.37835  0.50063  1.0000
  H   H289      1.0  0.06971  0.37895  0.69441  1.0000
  C   C244      1.0  0.46948  0.41734  0.64840  1.0000
  H   H290      1.0  0.43494  0.06365  0.61451  1.0000
  H   H291      1.0  0.30321  0.32290  0.50708  1.0000
  C   C245      1.0  0.20647  0.23003  0.68846  1.0000
  C   C246      1.0  0.25207  0.12675  0.73166  1.0000
  C   C247      1.0  0.42296  0.05720  0.62761  1.0000
  C   C248      1.0  0.37777  0.31398  0.51135  1.0000
  H   H292      1.0  0.08973  0.33130  0.68923  1.0000
  H   H293      1.0  0.37776  0.33095  0.69338  1.0000
  H   H294      1.0  0.40366  0.33754  0.66508  1.0000
  C   C249      1.0  0.02732  0.36593  0.66593  1.0000
  S   S69       1.0  0.29370  0.07395  0.74359  1.0000
  N   N16       1.0  0.43708  0.39289  0.64646  1.0000
  C   C250      1.0  0.40554  0.35799  0.67162  1.0000
  N   N17       1.0  0.16419  0.18941  0.73051  1.0000
  C   C251      1.0  0.13594  0.18669  0.73913  1.0000
  S   S70       1.0  0.01730  0.32448  0.73895  1.0000
  H   H295      1.0  0.42863  0.00980  0.61337  1.0000
  C   C252      1.0  0.17337  0.20943  0.71466  1.0000
  C   C253      1.0  0.19643  0.21026  0.70301  1.0000
  H   H296      1.0  0.43307  0.01060  0.63720  1.0000
  H   H297      1.0  0.44135  0.06329  0.63795  1.0000
  H   H298      1.0  0.38647  0.33919  0.51065  1.0000
  H   H299      1.0  0.47789  0.15372  0.57921  1.0000
  H   H300      1.0  0.42318  0.03332  0.66222  1.0000
  H   H301      1.0  0.07168  0.33951  0.50612  1.0000
  H   H302      1.0  0.34300  0.25704  0.49805  1.0000
  H   H303      1.0  0.02652  0.45862  0.54486  1.0000
  H   H304      1.0  0.27197  0.02626  0.63779  1.0000
  S   S71       1.0  0.07351  0.29502  0.72817  1.0000
  C   C254      1.0  0.15537  0.29433  0.73566  1.0000
  C   C255      1.0  0.48668  0.47195  0.58438  1.0000
  H   H305      1.0  0.33919  0.00435  0.69037  1.0000
  N   N18       1.0  0.34365  0.29727  0.51036  1.0000
  S   S72       1.0  0.27059  0.21516  0.72643  1.0000
  C   C256      1.0  0.38254  0.01741  0.64478  1.0000
  C   C257      1.0  0.42113  0.40280  0.63323  1.0000
  H   H306      1.0  0.40401  0.42665  0.69654  1.0000
  H   H307      1.0  0.37742  0.37484  0.70929  1.0000
  C   C258      1.0  0.37985  0.01783  0.61155  1.0000
  H   H308      1.0  0.33995  0.32909  0.52902  1.0000
  H   H309      1.0  0.44919  0.35633  0.64819  1.0000
  C   C259      1.0  0.48791  0.07441  0.57995  1.0000
  H   H310      1.0  0.14878  0.14170  0.73678  1.0000
  H   H311      1.0  0.39675  0.38488  0.63122  1.0000
  H   H312      1.0  0.47530  0.17512  0.55074  1.0000
  Fe  Fe36      1.0  0.26873  0.25548  0.74014  1.0000
  C   C260      1.0  0.35113  0.00714  0.67781  1.0000
  C   C261      1.0  0.41586  0.00546  0.62622  1.0000
  H   H313      1.0  0.48194  0.41149  0.65890  1.0000
  S   S73       1.0  0.31313  0.29936  0.74206  1.0000
  H   H314      1.0  0.48922  0.18998  0.59003  1.0000
  S   S74       1.0  0.28564  0.00519  0.73921  1.0000
  C   C262      1.0  0.34997  0.00471  0.64532  1.0000
  C   C263      1.0  0.99688  0.45674  0.51342  1.0000
  C   C264      1.0  0.99561  0.30415  0.51466  1.0000
  H   H315      1.0  0.00292  0.41984  0.53710  1.0000
  H   H316      1.0  0.48847  0.21259  0.55957  1.0000
  H   H317      1.0  0.38855  0.30720  0.50038  1.0000
  H   H318      1.0  0.48218  0.42076  0.63557  1.0000
  C   C265      1.0  0.02668  0.48157  0.51063  1.0000
  C   C266      1.0  0.17016  0.33104  0.79523  1.0000
  C   C267      1.0  0.33203  0.09244  0.98216  1.0000
  H   H319      1.0  0.07745  0.47813  0.99198  1.0000
  C   C268      1.0  0.32888  0.21967  0.79845  1.0000
  H   H320      1.0  0.42193  0.30376  0.86319  1.0000
  N   N19       1.0  0.37578  0.26629  0.86563  1.0000
  Fe  Fe37      1.0  0.29605  0.30768  0.76858  1.0000
  S   S75       1.0  0.25339  0.26172  0.76748  1.0000
  S   S76       1.0  0.33256  0.32652  0.79139  1.0000
  C   C269      1.0  0.04061  0.40296  0.96343  1.0000
  H   H321      1.0  0.03695  0.30624  0.79783  1.0000
  H   H322      1.0  0.17400  0.33999  0.76706  1.0000
  H   H323      1.0  0.12659  0.34296  0.76454  1.0000
  C   C270      1.0  0.32241  0.06788  0.96942  1.0000
  Fe  Fe38      1.0  0.29030  0.03721  0.76220  1.0000
  S   S77       1.0  0.23935  0.01683  0.76560  1.0000
  S   S78       1.0  0.32727  0.04925  0.78408  1.0000
  C   C271      1.0  0.38045  0.12984  0.97019  1.0000
  H   H324      1.0  0.31031  0.16548  0.75697  1.0000
  Fe  Fe39      1.0  0.43699  0.40780  0.91367  1.0000
  S   S79       1.0  0.38670  0.39361  0.91780  1.0000
  S   S80       1.0  0.46698  0.45978  0.91143  1.0000
  Fe  Fe40      1.0  0.42510  0.34124  0.91481  1.0000
  S   S81       1.0  0.37493  0.32342  0.91974  1.0000
  S   S82       1.0  0.44620  0.30997  0.90835  1.0000
  Fe  Fe41      1.0  0.37665  0.35510  0.89781  1.0000
  S   S83       1.0  0.33612  0.33355  0.87760  1.0000
  Fe  Fe42      1.0  0.38906  0.36330  0.93936  1.0000
  S   S84       1.0  0.36277  0.35233  0.96598  1.0000
  S   S85       1.0  0.42650  0.37159  0.89204  1.0000
  S   S86       1.0  0.43973  0.37887  0.93608  1.0000
  Fe  Fe43      1.0  0.36557  0.07795  0.89027  1.0000
  S   S87       1.0  0.40849  0.12329  0.88872  1.0000
  S   S88       1.0  0.32572  0.06094  0.86968  1.0000
  Fe  Fe44      1.0  0.38326  0.06572  0.92905  1.0000
  S   S89       1.0  0.42700  0.11053  0.92982  1.0000
  S   S90       1.0  0.37038  0.02757  0.94972  1.0000
  Fe  Fe45      1.0  0.39882  0.13096  0.91735  1.0000
  S   S91       1.0  0.39103  0.16929  0.92951  1.0000
  Fe  Fe46      1.0  0.43280  0.09879  0.90122  1.0000
  S   S92       1.0  0.47142  0.09162  0.88940  1.0000
  S   S93       1.0  0.35460  0.08653  0.91841  1.0000
  S   S94       1.0  0.39012  0.05295  0.90097  1.0000
  N   N20       1.0  0.34992  0.12466  0.97638  1.0000
  H   H325      1.0  0.45790  0.02314  0.96467  1.0000
  C   C272      1.0  0.31783  0.20906  0.76685  1.0000
  C   C273      1.0  0.36801  0.02656  0.97363  1.0000
  C   C274      1.0  0.37995  0.05326  0.98435  1.0000
  H   H326      1.0  0.32004  0.14236  0.86913  1.0000
  H   H327      1.0  0.39157  0.07536  0.97811  1.0000
  H   H328      1.0  0.99790  0.37827  0.81684  1.0000
  C   C275      1.0  0.43099  0.27108  0.91468  1.0000
  C   C276      1.0  0.44407  0.25331  0.90772  1.0000
  C   C277      1.0  0.43188  0.22198  0.91186  1.0000
  C   C278      1.0  0.40677  0.20827  0.92326  1.0000
  C   C279      1.0  0.39378  0.22606  0.93025  1.0000
  C   C280      1.0  0.40566  0.25724  0.92590  1.0000
  H   H329      1.0  0.46370  0.26384  0.89905  1.0000
  H   H330      1.0  0.44220  0.20861  0.90646  1.0000
  H   H331      1.0  0.37439  0.21571  0.93911  1.0000
  H   H332      1.0  0.39542  0.27065  0.93138  1.0000
  C   C281      1.0  0.36254  0.37584  0.98441  1.0000
  C   C282      1.0  0.15279  0.32720  0.81054  1.0000
  Fe  Fe47      1.0  0.99204  0.30611  0.76473  1.0000
  H   H333      1.0  0.36755  0.17160  0.98587  1.0000
  H   H334      1.0  0.39258  0.41930  0.97276  1.0000
  H   H335      1.0  0.06529  0.36329  0.80318  1.0000
  C   C283      1.0  0.32612  0.05254  0.80784  1.0000
  C   C284      1.0  0.35329  0.06123  0.81795  1.0000
  C   C285      1.0  0.35373  0.06439  0.83682  1.0000
  C   C286      1.0  0.32692  0.05890  0.84583  1.0000
  C   C287      1.0  0.29980  0.05058  0.83569  1.0000
  C   C288      1.0  0.29931  0.04727  0.81682  1.0000
  H   H336      1.0  0.37418  0.06542  0.81116  1.0000
  H   H337      1.0  0.37475  0.07075  0.84439  1.0000
  H   H338      1.0  0.27889  0.04615  0.84253  1.0000
  H   H339      1.0  0.27821  0.04056  0.80927  1.0000
  C   C289      1.0  0.32090  0.17013  0.78576  1.0000
  H   H340      1.0  0.39497  0.15399  0.96598  1.0000
  C   C290      1.0  0.32075  0.18120  0.85577  1.0000
  S   S95       1.0  0.00314  0.26693  0.76507  1.0000
  H   H341      1.0  0.25467  0.34390  0.92418  1.0000
  C   C291      1.0  0.33256  0.32885  0.81536  1.0000
  C   C292      1.0  0.30579  0.31366  0.82538  1.0000
  C   C293      1.0  0.30732  0.31560  0.84436  1.0000
  C   C294      1.0  0.33552  0.33282  0.85361  1.0000
  C   C295      1.0  0.36222  0.34828  0.84359  1.0000
  C   C296      1.0  0.36074  0.34607  0.82464  1.0000
  H   H342      1.0  0.28394  0.30032  0.81852  1.0000
  H   H343      1.0  0.28646  0.30359  0.85190  1.0000
  H   H344      1.0  0.38407  0.36180  0.85043  1.0000
  H   H345      1.0  0.38161  0.35799  0.81708  1.0000
  H   H346      1.0  0.05379  0.34082  0.77376  1.0000
  H   H347      1.0  0.11970  0.25435  0.77260  1.0000
  H   H348      1.0  0.05816  0.28653  0.79105  1.0000
  H   H349      1.0  0.06265  0.30279  0.81326  1.0000
  S   S96       1.0  0.21921  0.07956  0.75457  1.0000
  H   H350      1.0  0.38092  0.30451  0.88222  1.0000
  C   C297      1.0  0.37852  0.40796  0.98414  1.0000
  H   H351      1.0  0.36267  0.17441  0.89014  1.0000
  C   C298      1.0  0.16047  0.33730  0.77895  1.0000
  C   C299      1.0  0.31593  0.18009  0.76884  1.0000
  C   C300      1.0  0.06780  0.45673  0.98445  1.0000
  N   N21       1.0  0.30035  0.36819  0.93574  1.0000
  C   C301      1.0  0.46255  0.06417  0.93941  1.0000
  C   C302      1.0  0.30531  0.34078  0.93446  1.0000
  H   H352      1.0  0.29864  0.32711  0.94694  1.0000
  C   C303      1.0  0.31329  0.38788  0.91994  1.0000
  C   C304      1.0  0.33319  0.42010  0.92147  1.0000
  C   C305      1.0  0.30577  0.37505  0.90230  1.0000
  C   C306      1.0  0.34581  0.43780  0.90628  1.0000
  C   C307      1.0  0.31858  0.39295  0.88723  1.0000
  C   C308      1.0  0.33874  0.42420  0.88921  1.0000
  C   C309      1.0  0.29972  0.03012  0.99255  1.0000
  C   C310      1.0  0.15147  0.27829  0.75158  1.0000
  H   H353      1.0  0.39319  0.12502  0.98099  1.0000
  H   H354      1.0  0.29205  0.32472  0.92331  1.0000
  H   H355      1.0  0.30885  0.40320  0.95611  1.0000
  H   H356      1.0  0.32812  0.07207  0.95543  1.0000
  H   H357      1.0  0.29058  0.35087  0.89994  1.0000
  H   H358      1.0  0.16049  0.32240  0.82319  1.0000
  H   H359      1.0  0.32997  0.34765  0.93239  1.0000
  H   H360      1.0  0.30018  0.01893  0.96465  1.0000
  H   H361      1.0  0.99612  0.32656  0.99240  1.0000
  C   C311      1.0  0.30633  0.03726  0.97457  1.0000
  H   H362      1.0  0.12968  0.43995  0.99189  1.0000
  H   H363      1.0  0.23667  0.18575  0.75878  1.0000
  C   C312      1.0  0.28772  0.11535  0.78213  1.0000
  C   C313      1.0  0.34159  0.13686  0.77540  1.0000
  H   H364      1.0  0.43056  0.01867  0.91711  1.0000
  C   C314      1.0  0.31434  0.38424  0.95305  1.0000
  H   H365      1.0  0.28233  0.11684  0.76780  1.0000
  H   H366      1.0  0.34146  0.11431  0.77672  1.0000
  C   C315      1.0  0.33370  0.13076  0.96134  1.0000
  N   N22       1.0  0.08490  0.33577  0.79229  1.0000
  C   C316      1.0  0.07610  0.34030  0.77391  1.0000
  C   C317      1.0  0.05970  0.30658  0.79889  1.0000
  C   C318      1.0  0.08698  0.36141  0.80383  1.0000
  C   C319      1.0  0.11442  0.33469  0.79306  1.0000
  C   C320      1.0  0.12543  0.32919  0.80955  1.0000
  C   C321      1.0  0.13299  0.33896  0.77774  1.0000
  H   H367      1.0  0.09325  0.36255  0.76834  1.0000
  H   H368      1.0  0.07332  0.32130  0.76459  1.0000
  H   H369      1.0  0.33979  0.39374  0.95298  1.0000
  C   C322      1.0  0.07183  0.43128  0.98983  1.0000
  H   H370      1.0  0.04734  0.47444  0.96528  1.0000
  H   H371      1.0  0.10611  0.38376  0.79960  1.0000
  H   H372      1.0  0.34540  0.15543  0.95761  1.0000
  H   H373      1.0  0.09088  0.35841  0.81820  1.0000
  H   H374      1.0  0.38717  0.23014  0.88895  1.0000
  S   S97       1.0  0.27306  0.33279  0.75538  1.0000
  C   C323      1.0  0.36995  0.27898  0.88241  1.0000
  H   H375      1.0  0.21551  0.13192  0.76898  1.0000
  H   H376      1.0  0.30820  0.13231  0.81557  1.0000
  H   H377      1.0  0.41995  0.27291  0.87574  1.0000
  C   C324      1.0  0.09879  0.27132  0.75325  1.0000
  N   N23       1.0  0.31902  0.13941  0.78744  1.0000
  H   H378      1.0  0.30146  0.16706  0.84697  1.0000
  C   C325      1.0  0.40949  0.27822  0.86396  1.0000
  H   H379      1.0  0.41499  0.26850  0.85183  1.0000
  H   H380      1.0  0.36876  0.26953  0.83727  1.0000
  H   H381      1.0  0.26972  0.11728  0.79013  1.0000
  C   C326      1.0  0.36548  0.27847  0.85039  1.0000
  H   H382      1.0  0.37887  0.30396  0.84991  1.0000
  C   C327      1.0  0.05760  0.40432  0.97883  1.0000
  C   C328      1.0  0.35501  0.18524  0.88012  1.0000
  H   H383      1.0  0.32434  0.10964  0.80652  1.0000
  C   C329      1.0  0.22878  0.13888  0.75684  1.0000
  C   C330      1.0  0.36001  0.23231  0.86632  1.0000
  C   C331      1.0  0.36914  0.21724  0.87925  1.0000
  H   H384      1.0  0.37937  0.27306  0.89446  1.0000
  C   C332      1.0  0.33097  0.16721  0.86833  1.0000
  H   H385      1.0  0.34100  0.27325  0.85164  1.0000
  H   H386      1.0  0.36178  0.46209  0.90778  1.0000
  C   C333      1.0  0.33491  0.21328  0.85473  1.0000
  S   S98       1.0  0.18146  0.27278  0.76153  1.0000
  H   H387      1.0  0.34489  0.27041  0.88442  1.0000
  H   H388      1.0  0.32556  0.22266  0.84494  1.0000
  H   H389      1.0  0.19105  0.32888  0.79587  1.0000
  H   H390      1.0  0.33149  0.18540  0.81398  1.0000
  C   C334      1.0  0.32744  0.19087  0.80060  1.0000
  N   N24       1.0  0.46702  0.03662  0.93714  1.0000
  C   C335      1.0  0.45472  0.02301  0.91913  1.0000
  H   H391      1.0  0.28491  0.09177  0.78383  1.0000
  C   C336      1.0  0.32413  0.22875  0.78162  1.0000
  C   C337      1.0  0.24049  0.16927  0.75101  1.0000
  H   H392      1.0  0.30957  0.12437  0.96485  1.0000
  H   H393      1.0  0.33665  0.13851  0.76100  1.0000
  H   H394      1.0  0.31416  0.21625  0.75376  1.0000
  H   H395      1.0  0.47150  0.07578  0.95266  1.0000
  C   C338      1.0  0.05050  0.45498  0.96907  1.0000
  H   H396      1.0  0.34896  0.14946  0.81065  1.0000
  C   C339      1.0  0.32542  0.13266  0.80590  1.0000
  H   H397      1.0  0.42400  0.01028  0.95071  1.0000
  H   H398      1.0  0.37857  0.11498  0.95839  1.0000
  H   H399      1.0  0.43773  0.05805  0.93867  1.0000
  H   H400      1.0  0.46860  0.03872  0.90836  1.0000
  C   C340      1.0  0.35348  0.99792  0.98207  1.0000
  C   C341      1.0  0.26688  0.35774  0.93634  1.0000
  H   H401      1.0  0.30609  0.36850  0.96465  1.0000
  H   H402      1.0  0.34917  0.43780  0.87751  1.0000
  H   H403      1.0  0.45484  0.00080  0.91686  1.0000
  H   H404      1.0  0.33323  0.11812  0.94878  1.0000
  H   H405      1.0  0.36537  0.15526  0.77847  1.0000
  H   H406      1.0  0.11278  0.32607  0.82179  1.0000
  H   H407      1.0  0.26216  0.37766  0.93715  1.0000
  H   H408      1.0  0.31353  0.38224  0.87395  1.0000
  H   H409      1.0  0.25634  0.34318  0.94821  1.0000
  H   H410      1.0  0.34012  0.43210  0.93426  1.0000
  H   H411      1.0  0.32527  0.25111  0.77999  1.0000
  H   H412      1.0  0.05884  0.38375  0.98226  1.0000
  Fe  Fe48      1.0  0.23089  0.28625  0.75286  1.0000
  H   H413      1.0  0.07717  0.26243  0.76017  1.0000
  C   C342      1.0  0.03686  0.42814  0.95862  1.0000
  H   H414      1.0  0.02306  0.42668  0.94686  1.0000
  S   S99       1.0  0.00020  0.33955  0.78832  1.0000
  C   C343      1.0  0.35507  0.14765  0.99086  1.0000
  C   C344      1.0  0.12296  0.26665  0.76023  1.0000
  H   H415      1.0  0.47383  0.08098  0.92860  1.0000
  C   C345      1.0  0.44832  0.01444  0.95097  1.0000
  H   H416      1.0  0.18429  0.18789  0.75606  1.0000
  H   H417      1.0  0.33370  0.23521  0.80985  1.0000
  H   H418      1.0  0.02955  0.38194  0.95539  1.0000
  C   C346      1.0  0.23444  0.11755  0.74713  1.0000
  H   H419      1.0  0.49002  0.99551  0.93638  1.0000
  Fe  Fe49      1.0  0.24244  0.05179  0.74555  1.0000
  H   H420      1.0  0.19371  0.22567  0.74860  1.0000
  H   H421      1.0  0.12848  0.17013  0.75032  1.0000
  H   H422      1.0  0.47703  0.55250  0.05796  1.0000
  S   S100      1.0  0.04279  0.76559  0.19695  1.0000
  C   C347      1.0  0.44648  0.92060  0.07395  1.0000
  S   S101      1.0  0.35024  0.94655  0.05808  1.0000
  H   H423      1.0  0.07928  0.81605  0.01846  1.0000
  S   S102      1.0  0.32770  0.93672  0.10010  1.0000
  Fe  Fe50      1.0  0.37081  0.96649  0.08513  1.0000
  C   C348      1.0  0.24155  0.89984  0.11054  1.0000
  Fe  Fe51      1.0  0.30557  0.92004  0.07281  1.0000
  S   S103      1.0  0.27575  0.86809  0.06976  1.0000
  S   S104      1.0  0.29114  0.95669  0.06964  1.0000
  Fe  Fe52      1.0  0.04943  0.69405  0.09831  1.0000
  S   S105      1.0  0.09950  0.70677  0.09466  1.0000
  S   S106      1.0  0.02317  0.68552  0.12473  1.0000
  Fe  Fe53      1.0  0.03629  0.68735  0.05694  1.0000
  S   S107      1.0  0.08524  0.70060  0.05092  1.0000
  C   C349      1.0  0.27111  0.99193  0.15257  1.0000
  Fe  Fe54      1.0  0.08191  0.66889  0.07333  1.0000
  S   S108      1.0  0.09786  0.63410  0.06500  1.0000
  Fe  Fe55      1.0  0.09834  0.73711  0.07254  1.0000
  S   S109      1.0  0.12934  0.78829  0.06758  1.0000
  S   S110      1.0  0.03223  0.65413  0.07842  1.0000
  S   S111      1.0  0.04894  0.72589  0.07721  1.0000
  H   H424      1.0  0.05853  0.61845  0.02630  1.0000
  H   H425      1.0  0.03945  0.56830  0.04122  1.0000
  H   H426      1.0  0.04620  0.68501  0.00926  1.0000
  C   C350      1.0  0.08521  0.59728  0.07429  1.0000
  C   C351      1.0  0.06783  0.58849  0.08989  1.0000
  C   C352      1.0  0.05900  0.55933  0.09712  1.0000
  C   C353      1.0  0.06698  0.53848  0.08868  1.0000
  C   C354      1.0  0.08363  0.54694  0.07280  1.0000
  C   C355      1.0  0.09288  0.57630  0.06573  1.0000
  H   H427      1.0  0.06179  0.60442  0.09663  1.0000
  H   H428      1.0  0.04615  0.55305  0.10942  1.0000
  H   H429      1.0  0.09009  0.53121  0.06624  1.0000
  H   H430      1.0  0.10639  0.58295  0.05367  1.0000
  C   C356      1.0  0.23500  0.84627  0.06878  1.0000
  C   C357      1.0  0.21612  0.85972  0.06538  1.0000
  C   C358      1.0  0.18387  0.84159  0.06510  1.0000
  C   C359      1.0  0.17009  0.80982  0.06815  1.0000
  C   C360      1.0  0.18894  0.79633  0.07147  1.0000
  C   C361      1.0  0.22122  0.81447  0.07172  1.0000
  H   H431      1.0  0.22637  0.88407  0.06288  1.0000
  H   H432      1.0  0.16950  0.85225  0.06246  1.0000
  H   H433      1.0  0.17869  0.77191  0.07378  1.0000
  H   H434      1.0  0.23561  0.80378  0.07424  1.0000
  H   H435      1.0  0.36678  0.62531  0.07448  1.0000
  C   C362      1.0  0.44241  0.96439  0.08614  1.0000
  Fe  Fe56      1.0  0.22977  0.98264  0.24436  1.0000
  H   H436      1.0  0.26506  0.91934  0.11188  1.0000
  H   H437      1.0  0.23953  0.89191  0.09635  1.0000
  H   H438      1.0  0.24323  0.91728  0.19137  1.0000
  H   H439      1.0  0.28599  0.94454  0.17048  1.0000
  C   C363      1.0  0.44115  0.53832  0.09821  1.0000
  C   C364      1.0  0.44584  0.53487  0.08004  1.0000
  C   C365      1.0  0.47865  0.93651  0.07590  1.0000
  C   C366      1.0  0.46462  0.56231  0.10831  1.0000
  C   C367      1.0  0.01864  0.56998  0.04537  1.0000
  C   C368      1.0  0.20599  0.84826  0.11812  1.0000
  H   H440      1.0  0.46121  0.56503  0.12241  1.0000
  Fe  Fe57      1.0  0.01713  0.76223  0.22319  1.0000
  H   H441      1.0  0.20568  0.84091  0.10388  1.0000
  H   H442      1.0  0.43543  0.89725  0.06871  1.0000
  C   C369      1.0  0.24158  0.90856  0.17774  1.0000
  H   H443      1.0  0.19229  0.85039  0.15075  1.0000
  C   C370      1.0  0.03645  0.74293  0.17693  1.0000
  C   C371      1.0  0.05831  0.75442  0.16319  1.0000
  C   C372      1.0  0.05458  0.73741  0.14711  1.0000
  C   C373      1.0  0.02894  0.70850  0.14456  1.0000
  H   H444      1.0  0.07839  0.77655  0.16502  1.0000
  H   H445      1.0  0.07164  0.74651  0.13675  1.0000
  H   H446      1.0  0.19678  0.87023  0.18117  1.0000
  N   N25       1.0  0.07783  0.77187  0.01829  1.0000
  H   H447      1.0  0.25720  0.84717  0.13047  1.0000
  H   H448      1.0  0.25970  0.85640  0.10709  1.0000
  H   H449      1.0  0.40362  0.92195  0.07750  1.0000
  C   C374      1.0  0.42841  0.93456  0.07889  1.0000
  C   C375      1.0  0.26566  0.92386  0.16599  1.0000
  C   C376      1.0  0.23728  0.88620  0.14194  1.0000
  S   S112      1.0  0.42064  0.98233  0.09342  1.0000
  H   H450      1.0  0.42028  0.98071  0.05423  1.0000
  N   N26       1.0  0.47314  0.66193  0.08351  1.0000
  C   C377      1.0  0.04639  0.49531  0.15074  1.0000
  C   C378      1.0  0.44090  0.63755  0.08096  1.0000
  H   H451      1.0  0.03383  0.63592  0.02440  1.0000
  C   C379      1.0  0.41586  0.64389  0.07827  1.0000
  C   C380      1.0  0.05956  0.76193  0.03492  1.0000
  C   C381      1.0  0.38562  0.62009  0.07644  1.0000
  H   H452      1.0  0.04311  0.77133  0.03605  1.0000
  C   C382      1.0  0.01072  0.71413  0.17434  1.0000
  H   H453      1.0  0.11750  0.76909  0.00796  1.0000
  H   H454      1.0  0.99459  0.61137  0.00362  1.0000
  S   S113      1.0  0.40628  0.51341  0.10870  1.0000
  H   H455      1.0  0.45144  0.59958  0.08347  1.0000
  H   H456      1.0  0.00996  0.53472  0.01832  1.0000
  H   H457      1.0  0.48622  0.63731  0.10258  1.0000
  C   C383      1.0  0.48468  0.65896  0.10143  1.0000
  H   H458      1.0  0.48396  0.65914  0.05585  1.0000
  H   H459      1.0  0.46935  0.65918  0.11225  1.0000
  H   H460      1.0  0.45355  0.96624  0.04201  1.0000
  C   C384      1.0  0.00414  0.54780  0.00900  1.0000
  H   H461      1.0  0.06637  0.50531  0.16026  1.0000
  H   H462      1.0  0.35599  0.57109  0.07598  1.0000
  H   H463      1.0  0.28308  0.92569  0.13983  1.0000
  C   C385      1.0  0.03833  0.61945  0.03218  1.0000
  C   C386      1.0  0.21545  0.88211  0.17195  1.0000
  N   N27       1.0  0.23597  0.87495  0.12325  1.0000
  C   C387      1.0  0.26015  0.86546  0.12093  1.0000
  H   H464      1.0  0.18672  0.85387  0.11937  1.0000
  H   H465      1.0  0.20109  0.82776  0.12624  1.0000
  C   C388      1.0  0.26368  0.91289  0.14839  1.0000
  C   C389      1.0  0.21315  0.87097  0.15432  1.0000
  C   C390      1.0  0.00709  0.69705  0.15829  1.0000
  H   H466      1.0  0.04541  0.62978  0.04585  1.0000
  N   N28       1.0  0.09320  0.86009  0.19598  1.0000
  C   C391      1.0  0.09964  0.83877  0.20681  1.0000
  C   C392      1.0  0.08382  0.87815  0.20816  1.0000
  C   C393      1.0  0.06638  0.84116  0.18402  1.0000
  C   C394      1.0  0.12132  0.88092  0.18626  1.0000
  C   C395      1.0  0.12333  0.88055  0.16724  1.0000
  C   C396      1.0  0.14816  0.90204  0.19592  1.0000
  C   C397      1.0  0.15035  0.90064  0.15856  1.0000
  C   C398      1.0  0.17497  0.92205  0.18712  1.0000
  C   C399      1.0  0.17604  0.92144  0.16847  1.0000
  H   H467      1.0  0.11950  0.85097  0.21613  1.0000
  H   H468      1.0  0.07958  0.82380  0.21511  1.0000
  H   H469      1.0  0.10473  0.82327  0.19809  1.0000
  H   H470      1.0  0.10141  0.89111  0.21867  1.0000
  H   H471      1.0  0.06245  0.86312  0.21553  1.0000
  H   H472      1.0  0.07948  0.89502  0.20058  1.0000
  H   H473      1.0  0.07056  0.82493  0.17540  1.0000
  H   H474      1.0  0.04555  0.82629  0.19186  1.0000
  H   H475      1.0  0.06016  0.85566  0.17539  1.0000
  H   H476      1.0  0.10435  0.86495  0.15876  1.0000
  H   H477      1.0  0.14875  0.90324  0.21042  1.0000
  H   H478      1.0  0.15137  0.90010  0.14404  1.0000
  C   C400      1.0  0.43369  0.60617  0.08152  1.0000
  H   H479      1.0  0.19694  0.93692  0.16169  1.0000
  Fe  Fe58      1.0  0.31470  0.97427  0.09669  1.0000
  H   H480      1.0  0.39858  0.55876  0.08053  1.0000
  C   C401      1.0  0.37944  0.58952  0.07725  1.0000
  H   H481      1.0  0.42800  0.51645  0.07212  1.0000
  H   H482      1.0  0.41659  0.97896  0.02999  1.0000
  H   H483      1.0  0.41894  0.66698  0.07762  1.0000
  H   H484      1.0  0.11342  0.76533  0.03155  1.0000
  H   H485      1.0  0.01308  0.73836  0.01397  1.0000
  C   C402      1.0  0.10012  0.75960  0.01865  1.0000
  H   H486      1.0  0.22520  0.90921  0.11257  1.0000
  H   H487      1.0  0.28365  0.88490  0.12314  1.0000
  C   C403      1.0  0.40345  0.58259  0.07978  1.0000
  H   H488      1.0  0.07448  0.77009  0.04718  1.0000
  C   C404      1.0  0.02435  0.67592  0.00224  1.0000
  C   C405      1.0  0.05877  0.76129  0.00165  1.0000
  H   H489      1.0  0.08813  0.73418  0.01701  1.0000
  C   C406      1.0  0.09518  0.80589  0.01891  1.0000
  H   H490      1.0  0.02885  0.50147  0.15581  1.0000
  S   S114      1.0  0.05668  0.50277  0.09894  1.0000
  H   H491      1.0  0.33793  0.97373  0.00708  1.0000
  Fe  Fe59      1.0  0.33768  0.98481  0.05689  1.0000
  S   S115      1.0  0.19710  0.93153  0.24277  1.0000
  H   H492      1.0  0.46398  0.69825  0.09309  1.0000
  S   S116      1.0  0.28596  0.98220  0.11831  1.0000
  C   C407      1.0  0.00351  0.57532  0.01421  1.0000
  C   C408      1.0  0.99557  0.59041  0.00067  1.0000
  C   C409      1.0  0.47699  0.69358  0.08243  1.0000
  H   H493      1.0  0.10945  0.81448  0.03146  1.0000
  S   S117      1.0  0.27757  0.98843  0.24302  1.0000
  H   H494      1.0  0.19503  0.93804  0.19490  1.0000
  N   N29       1.0  0.01118  0.58856  0.03266  1.0000
  C   C410      1.0  0.02607  0.74460  0.00173  1.0000
  H   H495      1.0  0.24773  0.98121  0.14742  1.0000
  C   C411      1.0  0.47368  0.55534  0.07205  1.0000
  H   H496      1.0  0.05425  0.50728  0.13773  1.0000
  H   H497      1.0  0.04657  0.73644  0.03559  1.0000
  H   H498      1.0  0.46969  0.69780  0.06905  1.0000
  H   H499      1.0  0.11122  0.81522  0.00754  1.0000
  H   H500      1.0  0.02412  0.58069  0.05909  1.0000
  C   C412      1.0  0.99758  0.66854  0.01185  1.0000
  S   S118      1.0  0.99795  0.67347  0.03560  1.0000
  C   C413      1.0  0.47512  0.98647  0.03963  1.0000
  H   H501      1.0  0.99369  0.70489  0.18471  1.0000
  S   S119      1.0  0.99646  0.79409  0.22723  1.0000
  C   C414      1.0  0.47463  0.98048  0.08787  1.0000
  H   H502      1.0  0.99905  0.54652  0.04679  1.0000
  H   H503      1.0  0.15270  0.92383  0.29501  1.0000
  H   H504      1.0  0.05123  0.77828  0.46590  1.0000
  C   C415      1.0  0.24940  0.92251  0.34291  1.0000
  H   H505      1.0  0.40300  0.92889  0.48024  1.0000
  S   S120      1.0  0.02371  0.72051  0.28492  1.0000
  H   H506      1.0  0.04486  0.69267  0.31131  1.0000
  C   C416      1.0  0.43818  0.96481  0.39368  1.0000
  Fe  Fe60      1.0  0.02672  0.67672  0.43114  1.0000
  S   S121      1.0  0.06603  0.66568  0.43114  1.0000
  H   H507      1.0  0.45875  0.54949  0.30810  1.0000
  Fe  Fe61      1.0  0.03820  0.69869  0.39154  1.0000
  S   S122      1.0  0.07860  0.68953  0.38911  1.0000
  S   S123      1.0  0.02073  0.72107  0.37079  1.0000
  Fe  Fe62      1.0  0.04924  0.64552  0.40354  1.0000
  S   S124      1.0  0.04639  0.60131  0.39197  1.0000
  Fe  Fe63      1.0  0.09232  0.71053  0.41682  1.0000
  S   S125      1.0  0.14148  0.73991  0.42705  1.0000
  S   S126      1.0  0.00774  0.65331  0.40427  1.0000
  S   S127      1.0  0.05409  0.72291  0.41850  1.0000
  Fe  Fe64      1.0  0.34808  0.93206  0.40085  1.0000
  S   S128      1.0  0.38149  0.91262  0.39700  1.0000
  Fe  Fe65      1.0  0.27882  0.90995  0.40592  1.0000
  S   S129      1.0  0.28767  0.95749  0.41419  1.0000
  S   S130      1.0  0.22853  0.87552  0.39994  1.0000
  H   H508      1.0  0.10348  0.79841  0.32975  1.0000
  H   H509      1.0  0.07296  0.82108  0.34137  1.0000
  S   S131      1.0  0.30946  0.92573  0.38186  1.0000
  S   S132      1.0  0.31648  0.91243  0.42428  1.0000
  H   H510      1.0  0.46028  0.98656  0.43211  1.0000
  C   C417      1.0  0.43917  0.91713  0.39904  1.0000
  C   C418      1.0  0.42228  0.93313  0.39639  1.0000
  H   H511      1.0  0.42244  0.52285  0.36079  1.0000
  H   H512      1.0  0.42710  0.89261  0.40108  1.0000
  C   C419      1.0  0.16555  0.77752  0.41933  1.0000
  C   C420      1.0  0.19607  0.79373  0.42580  1.0000
  C   C421      1.0  0.21580  0.82372  0.42001  1.0000
  C   C422      1.0  0.20508  0.83780  0.40772  1.0000
  C   C423      1.0  0.17454  0.82156  0.40130  1.0000
  C   C424      1.0  0.15487  0.79158  0.40704  1.0000
  H   H513      1.0  0.20456  0.78307  0.43533  1.0000
  H   H514      1.0  0.23923  0.83596  0.42505  1.0000
  H   H515      1.0  0.16603  0.83229  0.39183  1.0000
  H   H516      1.0  0.13146  0.77942  0.40196  1.0000
  H   H517      1.0  0.34453  0.99049  0.31307  1.0000
  C   C425      1.0  0.45700  0.93693  0.46471  1.0000
  H   H518      1.0  0.03505  0.66082  0.47938  1.0000
  C   C426      1.0  0.06796  0.53327  0.42245  1.0000
  C   C427      1.0  0.06912  0.55897  0.43151  1.0000
  C   C428      1.0  0.06200  0.57974  0.42245  1.0000
  C   C429      1.0  0.05454  0.57540  0.40414  1.0000
  C   C430      1.0  0.05375  0.54990  0.39507  1.0000
  C   C431      1.0  0.05979  0.52856  0.40424  1.0000
  H   H519      1.0  0.07545  0.56273  0.44560  1.0000
  H   H520      1.0  0.06227  0.59903  0.42961  1.0000
  H   H521      1.0  0.04853  0.54667  0.38085  1.0000
  H   H522      1.0  0.01725  0.73872  0.48450  1.0000
  C   C432      1.0  0.43303  0.53190  0.40439  1.0000
  C   C433      1.0  0.46529  0.54590  0.40450  1.0000
  C   C434      1.0  0.43637  0.58106  0.41299  1.0000
  C   C435      1.0  0.41859  0.54944  0.40902  1.0000
  H   H523      1.0  0.46837  0.63800  0.35734  1.0000
  H   H524      1.0  0.42504  0.59470  0.41605  1.0000
  H   H525      1.0  0.39374  0.53893  0.40893  1.0000
  Fe  Fe66      1.0  0.31970  0.97326  0.39069  1.0000
  N   N30       1.0  0.24319  0.92062  0.29188  1.0000
  H   H526      1.0  0.44857  0.55549  0.45079  1.0000
  H   H527      1.0  0.40970  0.95864  0.42609  1.0000
  H   H528      1.0  0.06247  0.50693  0.49172  1.0000
  H   H529      1.0  0.12462  0.78044  0.48214  1.0000
  H   H530      1.0  0.28127  0.91102  0.28900  1.0000
  C   C436      1.0  0.05731  0.76094  0.46019  1.0000
  C   C437      1.0  0.22358  0.89643  0.27857  1.0000
  H   H531      1.0  0.26792  0.95557  0.32255  1.0000
  C   C438      1.0  0.02258  0.72097  0.30878  1.0000
  C   C439      1.0  0.02207  0.72070  0.34692  1.0000
  C   C440      1.0  0.03487  0.70497  0.33744  1.0000
  C   C441      1.0  0.03501  0.70505  0.31849  1.0000
  H   H532      1.0  0.04448  0.69256  0.34469  1.0000
  H   H533      1.0  0.17186  0.89658  0.34596  1.0000
  C   C442      1.0  0.23095  0.89184  0.34708  1.0000
  H   H534      1.0  0.41163  0.51248  0.46469  1.0000
  C   C443      1.0  0.21865  0.87932  0.31547  1.0000
  H   H535      1.0  0.04230  0.79871  0.32607  1.0000
  C   C444      1.0  0.27574  0.93028  0.28756  1.0000
  C   C445      1.0  0.99910  0.53655  0.48871  1.0000
  H   H536      1.0  0.44192  0.91892  0.47344  1.0000
  H   H537      1.0  0.11380  0.80185  0.30643  1.0000
  H   H538      1.0  0.21347  0.94146  0.29308  1.0000
  H   H539      1.0  0.41193  0.50750  0.44053  1.0000
  H   H540      1.0  0.12752  0.84580  0.34199  1.0000
  C   C446      1.0  0.21554  0.87031  0.33341  1.0000
  C   C447      1.0  0.07053  0.81820  0.29583  1.0000
  H   H541      1.0  0.20628  0.86143  0.30558  1.0000
  S   S133      1.0  0.34950  0.98100  0.45842  1.0000
  C   C448      1.0  0.46982  0.55455  0.45275  1.0000
  H   H542      1.0  0.24011  0.95430  0.27507  1.0000
  H   H543      1.0  0.18484  0.93585  0.32276  1.0000
  C   C449      1.0  0.10678  0.78369  0.47474  1.0000
  S   S134      1.0  0.36097  0.98110  0.40771  1.0000
  H   H544      1.0  0.28130  0.93901  0.27363  1.0000
  Fe  Fe67      1.0  0.32806  0.96160  0.43060  1.0000
  H   H545      1.0  0.06884  0.77004  0.44721  1.0000
  C   C450      1.0  0.23763  0.91044  0.31073  1.0000
  H   H546      1.0  0.19870  0.88835  0.28096  1.0000
  C   C451      1.0  0.15798  0.89108  0.33375  1.0000
  H   H547      1.0  0.29195  0.94930  0.29652  1.0000
  N   N31       1.0  0.41199  0.94203  0.45237  1.0000
  H   H548      1.0  0.09814  0.92596  0.25968  1.0000
  H   H549      1.0  0.36981  0.90192  0.44431  1.0000
  H   H550      1.0  0.05089  0.79451  0.29447  1.0000
  C   C452      1.0  0.01516  0.65843  0.48659  1.0000
  S   S135      1.0  0.05477  0.86150  0.25944  1.0000
  H   H551      1.0  0.10835  0.87410  0.29049  1.0000
  C   C453      1.0  0.40115  0.94477  0.47050  1.0000
  H   H552      1.0  0.05785  0.83964  0.32678  1.0000
  H   H553      1.0  0.07568  0.77581  0.31328  1.0000
  H   H554      1.0  0.05904  0.50899  0.39711  1.0000
  C   C454      1.0  0.00961  0.73661  0.33719  1.0000
  H   H555      1.0  0.47506  0.62278  0.37765  1.0000
  C   C455      1.0  0.39488  0.90959  0.44602  1.0000
  C   C456      1.0  0.25275  0.93170  0.32505  1.0000
  H   H556      1.0  0.22884  0.88474  0.36095  1.0000
  Fe  Fe68      1.0  0.01155  0.74681  0.26402  1.0000
  C   C457      1.0  0.11378  0.85421  0.31557  1.0000
  N   N32       1.0  0.15051  0.65834  0.41657  1.0000
  C   C458      1.0  0.18270  0.68332  0.41594  1.0000
  C   C459      1.0  0.13262  0.66452  0.40258  1.0000
  C   C460      1.0  0.13751  0.65984  0.43422  1.0000
  C   C461      1.0  0.14976  0.62815  0.41424  1.0000
  C   C462      1.0  0.16476  0.61836  0.42696  1.0000
  C   C463      1.0  0.13404  0.60754  0.39970  1.0000
  C   C464      1.0  0.16329  0.58943  0.42552  1.0000
  C   C465      1.0  0.13319  0.57888  0.39825  1.0000
  C   C466      1.0  0.14737  0.56966  0.41125  1.0000
  H   H557      1.0  0.19346  0.68262  0.40298  1.0000
  H   H558      1.0  0.18390  0.70642  0.41732  1.0000
  H   H559      1.0  0.19730  0.68187  0.42691  1.0000
  H   H560      1.0  0.10785  0.64717  0.40270  1.0000
  H   H561      1.0  0.14166  0.66480  0.38892  1.0000
  H   H562      1.0  0.13370  0.68739  0.40471  1.0000
  H   H563      1.0  0.15160  0.65901  0.44566  1.0000
  H   H564      1.0  0.13609  0.68155  0.43603  1.0000
  H   H565      1.0  0.11389  0.64040  0.43555  1.0000
  H   H566      1.0  0.17735  0.63282  0.43829  1.0000
  H   H567      1.0  0.12147  0.61256  0.38949  1.0000
  H   H568      1.0  0.17416  0.58202  0.43564  1.0000
  H   H569      1.0  0.12048  0.56323  0.38730  1.0000
  H   H570      1.0  0.14552  0.54690  0.41044  1.0000
  H   H571      1.0  0.41521  0.98534  0.44442  1.0000
  H   H572      1.0  0.03569  0.73955  0.45673  1.0000
  N   N33       1.0  0.08639  0.82362  0.31359  1.0000
  C   C467      1.0  0.43820  0.54016  0.35179  1.0000
  C   C468      1.0  0.23726  0.94714  0.28932  1.0000
  H   H573      1.0  0.20139  0.84644  0.33679  1.0000
  H   H574      1.0  0.22797  0.90519  0.26460  1.0000
  H   H575      1.0  0.09930  0.84030  0.25159  1.0000
  C   C469      1.0  0.46865  0.59523  0.41266  1.0000
  H   H576      1.0  0.26169  0.93922  0.35357  1.0000
  C   C470      1.0  0.45884  0.56928  0.35856  1.0000
  C   C471      1.0  0.47158  0.93259  0.39916  1.0000
  H   H577      1.0  0.06064  0.83409  0.29367  1.0000
  H   H578      1.0  0.22835  0.87655  0.27863  1.0000
  C   C472      1.0  0.06398  0.82066  0.32757  1.0000
  H   H579      1.0  0.11698  0.79293  0.46146  1.0000
  C   C473      1.0  0.16534  0.91323  0.32068  1.0000
  C   C474      1.0  0.44533  0.95157  0.45299  1.0000
  C   C475      1.0  0.08344  0.73098  0.46431  1.0000
  H   H580      1.0  0.09431  0.73823  0.45098  1.0000
  H   H581      1.0  0.25350  0.96793  0.29710  1.0000
  H   H582      1.0  0.41449  0.96861  0.47602  1.0000
  H   H583      1.0  0.10344  0.80175  0.48198  1.0000
  H   H584      1.0  0.37646  0.93934  0.47019  1.0000
  C   C476      1.0  0.11101  0.86503  0.25207  1.0000
  C   C477      1.0  0.12178  0.87748  0.30258  1.0000
  C   C478      1.0  0.14731  0.90643  0.30511  1.0000
  C   C479      1.0  0.13262  0.86199  0.33129  1.0000
  H   H585      1.0  0.08631  0.82079  0.28464  1.0000
  C   C480      1.0  0.46689  0.97449  0.44171  1.0000
  C   C481      1.0  0.09537  0.79906  0.31590  1.0000
  C   C482      1.0  0.47084  0.52646  0.45499  1.0000
  N   N34       1.0  0.07727  0.75482  0.47275  1.0000
  H   H586      1.0  0.48425  0.91998  0.40129  1.0000
  C   C483      1.0  0.43809  0.53312  0.33364  1.0000
  Fe  Fe69      1.0  0.02694  0.81098  0.25189  1.0000
  H   H587      1.0  0.45825  0.57335  0.37278  1.0000
  H   H588      1.0  0.40331  0.90648  0.43272  1.0000
  H   H589      1.0  0.47667  0.53246  0.40104  1.0000
  H   H590      1.0  0.42213  0.51042  0.32848  1.0000
  H   H591      1.0  0.39724  0.89352  0.45539  1.0000
  H   H592      1.0  0.99935  0.74857  0.34439  1.0000
  C   C484      1.0  0.47059  0.98021  0.39359  1.0000
  C   C485      1.0  0.06338  0.74427  0.49054  1.0000
  C   C486      1.0  0.11057  0.91335  0.25667  1.0000
  H   H593      1.0  0.37871  0.95274  0.43994  1.0000
  C   C487      1.0  0.41377  0.49812  0.45374  1.0000
  H   H594      1.0  0.06173  0.70908  0.46227  1.0000
  C   C488      1.0  0.45874  0.55518  0.32220  1.0000
  C   C489      1.0  0.48015  0.59239  0.34732  1.0000
  H   H595      1.0  0.34276  0.98652  0.34625  1.0000
  H   H596      1.0  0.09933  0.72589  0.47251  1.0000
  S   S136      1.0  0.07827  0.50842  0.43407  1.0000
  C   C490      1.0  0.48302  0.57731  0.40885  1.0000
  C   C491      1.0  0.00990  0.73682  0.31825  1.0000
  C   C492      1.0  0.48634  0.63626  0.36561  1.0000
  H   H597      1.0  0.42549  0.97737  0.39151  1.0000
  C   C493      1.0  0.14263  0.88101  0.24876  1.0000
  H   H598      1.0  0.15416  0.95428  0.25335  1.0000
  C   C494      1.0  0.40386  0.96070  0.44018  1.0000
  S   S137      1.0  0.49006  0.63547  0.41626  1.0000
  C   C495      1.0  0.03262  0.73742  0.49443  1.0000
  C   C496      1.0  0.14228  0.92943  0.25316  1.0000
  C   C497      1.0  0.09472  0.88110  0.25578  1.0000
  C   C498      1.0  0.48745  0.96422  0.39637  1.0000
  H   H599      1.0  0.00008  0.74898  0.31100  1.0000
  H   H600      1.0  0.01599  0.53569  0.47981  1.0000
  C   C499      1.0  0.47963  0.58440  0.32887  1.0000
  S   S138      1.0  0.04922  0.78134  0.24719  1.0000
  C   C500      1.0  0.15824  0.91318  0.24895  1.0000
  H   H601      1.0  0.99375  0.50794  0.34709  1.0000
  S   S139      1.0  0.99454  0.67192  0.45445  1.0000
  H   H602      1.0  0.44232  0.49549  0.48426  1.0000
  N   N35       1.0  0.44282  0.49617  0.45541  1.0000
  H   H603      1.0  0.15491  0.86832  0.24560  1.0000
  C   C501      1.0  0.99203  0.66193  0.47755  1.0000
  S   S140      1.0  0.99112  0.77777  0.27034  1.0000
  C   C502      1.0  0.48824  0.94481  0.46514  1.0000
  H   H604      1.0  0.02501  0.58529  0.49355  1.0000
  C   C503      1.0  0.15579  0.90705  0.69920  1.0000
  H   H605      1.0  0.08103  0.72559  0.53175  1.0000
  H   H606      1.0  0.07827  0.80582  0.67146  1.0000
  H   H607      1.0  0.17831  0.92678  0.70119  1.0000
  H   H608      1.0  0.11274  0.83416  0.74281  1.0000
  H   H609      1.0  0.06888  0.81189  0.72033  1.0000
  C   C504      1.0  0.10048  0.88343  0.70212  1.0000
  H   H610      1.0  0.04117  0.83997  0.71225  1.0000
  H   H611      1.0  0.03124  0.65064  0.51209  1.0000
  C   C505      1.0  0.12423  0.85349  0.69095  1.0000
  H   H612      1.0  0.04320  0.78197  0.70513  1.0000
  H   H613      1.0  0.10364  0.74346  0.50240  1.0000
  H   H614      1.0  0.03841  0.79397  0.67328  1.0000
  C   C506      1.0  0.06565  0.80335  0.70616  1.0000
  C   C507      1.0  0.15317  0.87928  0.69282  1.0000
  H   H615      1.0  0.12346  0.83233  0.68628  1.0000
  C   C508      1.0  0.03780  0.72344  0.52481  1.0000
  C   C509      1.0  0.12952  0.90913  0.70377  1.0000
  Fe  Fe70      1.0  0.23428  0.98714  0.74132  1.0000
  H   H616      1.0  0.03965  0.85022  0.68914  1.0000
  S   S141      1.0  0.20597  0.93455  0.74085  1.0000
  N   N36       1.0  0.06663  0.82692  0.69372  1.0000
  H   H617      1.0  0.01785  0.81132  0.69608  1.0000
  H   H618      1.0  0.02767  0.71464  0.53771  1.0000
  H   H619      1.0  0.08133  0.88645  0.70666  1.0000
  C   C510      1.0  0.08049  0.73969  0.50451  1.0000
  C   C511      1.0  0.04030  0.83255  0.69796  1.0000
  H   H620      1.0  0.08372  0.79656  0.70341  1.0000
  H   H621      1.0  0.36255  0.99315  0.61031  1.0000
  H   H622      1.0  0.06382  0.83175  0.66523  1.0000
  H   H623      1.0  0.16859  0.86893  0.73898  1.0000
  H   H624      1.0  0.04049  0.49584  0.52173  1.0000
  H   H625      1.0  0.17379  0.87765  0.68970  1.0000
  H   H626      1.0  0.13182  0.93054  0.70932  1.0000
  C   C512      1.0  0.09693  0.85477  0.69547  1.0000
  C   C513      1.0  0.06170  0.81420  0.67511  1.0000
  C   C514      1.0  0.06780  0.72946  0.52136  1.0000
  C   C515      1.0  0.01285  0.65251  0.50517  1.0000
  C   C516      1.0  0.02029  0.72743  0.51138  1.0000
  S   S142      1.0  0.02327  0.75266  0.73985  1.0000
  C   C517      1.0  0.15351  0.87854  0.74223  1.0000
  C   C518      1.0  0.12175  0.85871  0.74430  1.0000
  H   H627      1.0  0.30995  0.99081  0.66175  1.0000
  C   C519      1.0  0.16583  0.91064  0.74410  1.0000
  H   H628      1.0  0.39926  0.98050  0.62659  1.0000
  H   H629      1.0  0.00856  0.49680  0.54247  1.0000
  H   H630      1.0  0.99656  0.72161  0.51395  1.0000
  C   C520      1.0  0.00417  0.56441  0.49645  1.0000
  C   C521      1.0  0.28965  0.96606  0.81915  1.0000
  C   C522      1.0  0.02363  0.73960  0.96932  1.0000
  C   C523      1.0  0.05555  0.75637  0.96873  1.0000
  H   H631      1.0  0.03214  0.63724  0.85181  1.0000
  H   H632      1.0  0.04378  0.67778  0.97612  1.0000
  H   H633      1.0  0.19713  0.92751  0.80255  1.0000
  C   C524      1.0  0.10185  0.87079  0.74830  1.0000
  H   H634      1.0  0.23257  0.90626  0.78040  1.0000
  C   C525      1.0  0.00949  0.62539  0.85840  1.0000
  H   H635      1.0  0.21768  0.95725  0.82723  1.0000
  C   C526      1.0  0.24138  0.96245  0.82901  1.0000
  Fe  Fe71      1.0  0.02393  0.79679  0.74910  1.0000
  C   C527      1.0  0.02287  0.67168  0.98342  1.0000
  H   H636      1.0  0.21552  0.96744  0.79600  1.0000
  C   C528      1.0  0.07293  0.76733  0.98461  1.0000
  C   C529      1.0  0.00343  0.57365  0.85585  1.0000
  H   H637      1.0  0.06684  0.76042  0.95588  1.0000
  C   C530      1.0  0.21481  0.94477  0.79379  1.0000
  C   C531      1.0  0.00894  0.73409  0.98575  1.0000
  C   C532      1.0  0.25872  0.95860  0.81496  1.0000
  H   H638      1.0  0.28839  0.96675  0.78201  1.0000
  H   H639      1.0  0.04100  0.52168  0.86840  1.0000
  C   C533      1.0  0.11427  0.90288  0.75035  1.0000
  H   H640      1.0  0.00171  0.73807  0.80884  1.0000
  H   H641      1.0  0.01024  0.73026  0.95704  1.0000
  H   H642      1.0  0.09761  0.78012  0.98346  1.0000
  H   H643      1.0  0.29562  0.99120  0.86245  1.0000
  H   H644      1.0  0.20615  0.93725  0.77978  1.0000
  N   N37       1.0  0.24563  0.94692  0.79679  1.0000
  H   H645      1.0  0.15504  0.94726  0.74979  1.0000
  S   S143      1.0  0.06136  0.84734  0.75060  1.0000
  C   C534      1.0  0.25461  0.97379  0.84596  1.0000
  C   C535      1.0  0.24256  0.91585  0.79395  1.0000
  H   H646      1.0  0.22731  0.89965  0.80413  1.0000
  H   H647      1.0  0.04817  0.60272  0.84417  1.0000
  C   C536      1.0  0.28520  0.98148  0.84946  1.0000
  C   C537      1.0  0.26629  0.96747  0.78294  1.0000
  H   H648      1.0  0.25567  0.96116  0.76925  1.0000
  H   H649      1.0  0.27206  0.99173  0.78587  1.0000
  H   H650      1.0  0.99810  0.51550  0.98757  1.0000
  H   H651      1.0  0.34429  0.97706  0.97396  1.0000
  C   C538      1.0  0.03421  0.58186  0.85127  1.0000
  H   H652      1.0  0.26515  0.91600  0.79492  1.0000
  C   C539      1.0  0.99738  0.53646  0.99129  1.0000
  C   C540      1.0  0.03064  0.53601  0.86483  1.0000
  H   H653      1.0  0.99858  0.64051  0.85657  1.0000
  H   H654      1.0  0.99723  0.73468  0.84203  1.0000
  H   H655      1.0  0.07116  0.57011  0.85223  1.0000
  C   C541      1.0  0.04755  0.56330  0.85576  1.0000
  H   H656      1.0  0.01386  0.62497  0.87305  1.0000
  C   C542      1.0  0.30268  0.97763  0.83609  1.0000
  H   H657      1.0  0.30422  0.96347  0.80928  1.0000
  C   C543      1.0  0.00027  0.52705  0.86930  1.0000
  C   C544      1.0  0.14601  0.92268  0.74829  1.0000
  C   C545      1.0  0.99469  0.66003  0.97390  1.0000
  H   H658      1.0  0.01108  0.60513  0.82502  1.0000
  H   H659      1.0  0.24133  0.97728  0.85640  1.0000
  H   H660      1.0  0.44709  0.99156  0.94903  1.0000
  H   H661      1.0  0.09916  0.91252  0.75348  1.0000
  S   S144      1.0  0.99465  0.65620  0.95009  1.0000
  H   H662      1.0  0.32667  0.98430  0.83879  1.0000
  S   S145      1.0  0.99213  0.77431  0.77217  1.0000
  H   H663      1.0  0.82074  0.28064  0.99879  1.0000
  H   H664      1.0  0.92356  0.27354  0.20694  1.0000
  H   H665      1.0  0.86497  0.12502  0.19423  1.0000
  H   H666      1.0  0.80069  0.16005  0.19727  1.0000
  H   H667      1.0  0.91772  0.27108  0.17355  1.0000
  H   H668      1.0  0.89656  0.23417  0.16242  1.0000
  Fe  Fe72      1.0  0.96309  0.25088  0.24166  1.0000
  S   S146      1.0  0.75254  0.02696  0.21723  1.0000
  C   C546      1.0  0.82590  0.13599  0.23977  1.0000
  C   C547      1.0  0.66721  0.02408  0.14799  1.0000
  S   S147      1.0  0.62908  0.02392  0.02889  1.0000
  C   C548      1.0  0.87824  0.14334  0.23706  1.0000
  C   C549      1.0  0.88436  0.31069  0.02529  1.0000
  C   C550      1.0  0.86026  0.14432  0.19352  1.0000
  H   H669      1.0  0.70358  0.03432  0.00889  1.0000
  C   C551      1.0  0.87053  0.18757  0.24212  1.0000
  C   C552      1.0  0.62683  0.02437  0.00499  1.0000
  H   H670      1.0  0.87952  0.21201  0.24423  1.0000
  H   H671      1.0  0.65602  0.07334  0.00417  1.0000
  Fe  Fe73      1.0  0.74642  0.99604  0.24046  1.0000
  C   C553      1.0  0.82406  0.16410  0.19525  1.0000
  H   H672      1.0  0.95331  0.25876  0.18777  1.0000
  Fe  Fe74      1.0  0.98472  0.31366  0.22483  1.0000
  C   C554      1.0  0.89072  0.17542  0.23921  1.0000
  C   C555      1.0  0.98275  0.35519  0.16516  1.0000
  C   C556      1.0  0.53335  0.03619  0.03467  1.0000
  H   H673      1.0  0.69020  0.03740  0.17399  1.0000
  C   C557      1.0  0.64678  0.99984  0.13664  1.0000
  H   H674      1.0  0.89170  0.32003  0.03877  1.0000
  H   H675      1.0  0.88314  0.25028  0.20944  1.0000
  H   H676      1.0  0.54567  0.00696  0.11011  1.0000
  H   H677      1.0  0.87729  0.24941  0.17642  1.0000
  S   S148      1.0  0.70187  0.04244  0.23731  1.0000
  C   C558      1.0  0.88447  0.17415  0.19198  1.0000
  C   C559      1.0  0.87903  0.20000  0.19187  1.0000
  C   C560      1.0  0.67474  0.01848  0.16539  1.0000
  H   H678      1.0  0.62138  0.02701  0.17683  1.0000
  C   C561      1.0  0.90556  0.30970  0.01346  1.0000
  H   H679      1.0  0.84211  0.21244  0.19398  1.0000
  C   C562      1.0  0.50779  0.04116  0.03646  1.0000
  C   C563      1.0  0.84801  0.19399  0.19350  1.0000
  H   H680      1.0  0.95982  0.40186  0.00742  1.0000
  C   C564      1.0  0.84459  0.28834  0.00223  1.0000
  H   H681      1.0  0.67710  0.04742  0.14334  1.0000
  Fe  Fe75      1.0  0.70096  0.00717  0.21734  1.0000
  C   C565      1.0  0.83016  0.13932  0.19523  1.0000
  H   H682      1.0  0.93638  0.22216  0.17635  1.0000
  H   H683      1.0  0.58241  0.01615  0.11930  1.0000
  H   H684      1.0  0.83701  0.09920  0.23556  1.0000
  H   H685      1.0  0.90728  0.17633  0.19155  1.0000
  S   S149      1.0  0.98501  0.39132  0.03995  1.0000
  H   H686      1.0  0.90902  0.23846  0.21920  1.0000
  H   H687      1.0  0.94144  0.22484  0.20053  1.0000
  H   H688      1.0  0.81165  0.11630  0.19730  1.0000
  N   N38       1.0  0.90408  0.23201  0.19069  1.0000
  C   C566      1.0  0.93509  0.23438  0.18869  1.0000
  C   C567      1.0  0.89860  0.24724  0.17509  1.0000
  C   C568      1.0  0.90490  0.24933  0.20724  1.0000
  H   H689      1.0  0.89351  0.13355  0.23488  1.0000
  H   H690      1.0  0.55690  0.02670  0.13134  1.0000
  H   H691      1.0  0.96267  0.35822  0.16731  1.0000
  H   H692      1.0  0.55610  0.05539  0.03292  1.0000
  C   C569      1.0  0.84612  0.12372  0.23746  1.0000
  S   S150      1.0  0.63632  0.00865  0.11541  1.0000
  S   S151      1.0  0.93139  0.19913  0.23723  1.0000
  C   C570      1.0  0.96834  0.38587  0.00410  1.0000
  C   C571      1.0  0.83841  0.16803  0.24220  1.0000
  H   H693      1.0  0.71644  0.00647  0.02936  1.0000
  S   S152      1.0  0.97404  0.33452  0.20006  1.0000
  C   C572      1.0  0.64305  0.05254  0.99625  1.0000
  C   C573      1.0  0.98313  0.37750  0.01750  1.0000
  H   H694      1.0  0.92925  0.31823  0.01783  1.0000
  H   H695      1.0  0.83752  0.30086  0.02898  1.0000
  Fe  Fe76      1.0  0.75377  0.06048  0.23858  1.0000
  C   C574      1.0  0.85393  0.29996  0.01971  1.0000
  H   H696      1.0  0.97418  0.43611  0.19999  1.0000
  H   H697      1.0  0.59727  0.02747  0.14855  1.0000
  C   C575      1.0  0.55802  0.00848  0.12294  1.0000
  H   H698      1.0  0.98936  0.37227  0.13803  1.0000
  H   H699      1.0  0.98890  0.45506  0.14100  1.0000
  C   C576      1.0  0.52988  0.00656  0.03534  1.0000
  C   C577      1.0  0.69527  0.01914  0.99729  1.0000
  H   H700      1.0  0.51178  0.06462  0.03623  1.0000
  C   C578      1.0  0.98870  0.34348  0.99553  1.0000
  H   H701      1.0  0.68087  0.00752  0.03384  1.0000
  C   C579      1.0  0.58641  0.00661  0.15610  1.0000
  S   S153      1.0  0.78500  0.11285  0.23865  1.0000
  C   C580      1.0  0.60070  0.00669  0.17240  1.0000
  H   H702      1.0  0.54981  0.00282  0.03413  1.0000
  C   C581      1.0  0.89657  0.29831  0.99595  1.0000
  S   S154      1.0  0.94781  0.28683  0.24503  1.0000
  H   H703      1.0  0.82308  0.17781  0.24410  1.0000
  H   H704      1.0  0.99058  0.46164  0.17125  1.0000
  C   C582      1.0  0.62260  0.03557  0.32768  1.0000
  H   H705      1.0  0.59747  0.05036  0.46391  1.0000
  C   C583      1.0  0.97474  0.36715  0.47077  1.0000
  Fe  Fe77      1.0  0.69997  0.01079  0.25945  1.0000
  S   S155      1.0  0.75147  0.03077  0.26193  1.0000
  S   S156      1.0  0.61019  0.00100  0.40585  1.0000
  C   C584      1.0  0.58839  0.01456  0.29576  1.0000
  C   C585      1.0  0.63729  0.04230  0.31113  1.0000
  C   C586      1.0  0.73328  0.13158  0.48660  1.0000
  C   C587      1.0  0.61924  0.06524  0.47052  1.0000
  C   C588      1.0  0.57338  0.00809  0.31221  1.0000
  H   H706      1.0  0.66218  0.05499  0.31062  1.0000
  C   C589      1.0  0.55234  0.02359  0.34698  1.0000
  H   H707      1.0  0.53415  0.01419  0.33635  1.0000
  H   H708      1.0  0.98201  0.43059  0.46954  1.0000
  H   H709      1.0  0.63745  0.04367  0.33943  1.0000
  C   C590      1.0  0.68703  0.01299  0.33398  1.0000
  H   H710      1.0  0.58142  0.01525  0.37466  1.0000
  H   H711      1.0  0.56503  0.04898  0.34557  1.0000
  C   C591      1.0  0.94594  0.35039  0.47884  1.0000
  H   H712      1.0  0.92548  0.33903  0.47045  1.0000
  H   H713      1.0  0.67608  0.02517  0.48585  1.0000
  H   H714      1.0  0.64600  0.06448  0.44814  1.0000
  C   C592      1.0  0.59444  0.02149  0.36194  1.0000
  C   C593      1.0  0.65226  0.01745  0.48910  1.0000
  H   H715      1.0  0.95365  0.40855  0.36694  1.0000
  N   N39       1.0  0.98608  0.45017  0.35413  1.0000
  H   H716      1.0  0.70686  0.02923  0.34172  1.0000
  H   H717      1.0  0.70929  0.02830  0.30840  1.0000
  C   C594      1.0  0.97444  0.48717  0.39687  1.0000
  C   C595      1.0  0.67492  0.09156  0.47031  1.0000
  H   H718      1.0  0.97303  0.44452  0.39117  1.0000
  C   C596      1.0  0.62030  0.03152  0.29523  1.0000
  C   C597      1.0  0.64667  0.07334  0.46164  1.0000
  S   S157      1.0  0.97587  0.31759  0.29584  1.0000
  C   C598      1.0  0.98682  0.33621  0.33142  1.0000
  H   H719      1.0  0.60825  0.04695  0.36222  1.0000
  C   C599      1.0  0.67642  0.10223  0.48832  1.0000
  C   C600      1.0  0.68853  0.01244  0.31507  1.0000
  H   H720      1.0  0.96740  0.31402  0.33394  1.0000
  H   H721      1.0  0.69516  0.09628  0.46272  1.0000
  H   H722      1.0  0.97302  0.46536  0.32991  1.0000
  Fe  Fe78      1.0  0.98485  0.30807  0.26670  1.0000
  H   H723      1.0  0.73178  0.14537  0.47530  1.0000
  H   H724      1.0  0.63203  0.03579  0.28250  1.0000
  N   N40       1.0  0.57359  0.01014  0.34598  1.0000
  H   H725      1.0  0.57534  0.00607  0.28332  1.0000
  C   C601      1.0  0.62924  0.00119  0.47604  1.0000
  H   H726      1.0  0.61035  0.01132  0.36241  1.0000
  C   C602      1.0  0.59004  0.01808  0.32872  1.0000
  C   C603      1.0  0.61991  0.07505  0.48819  1.0000
  H   H727      1.0  0.97944  0.40366  0.35206  1.0000
  C   C604      1.0  0.96597  0.44451  0.33807  1.0000
  H   H728      1.0  0.94163  0.43628  0.34200  1.0000
  H   H729      1.0  0.96656  0.42683  0.32884  1.0000
  H   H730      1.0  0.54018  0.01863  0.36006  1.0000
  C   C605      1.0  0.97767  0.41978  0.36202  1.0000
  S   S158      1.0  0.64033  0.99413  0.45452  1.0000
  H   H731      1.0  0.73627  0.11210  0.48108  1.0000
  C   C606      1.0  0.97636  0.46567  0.38525  1.0000
  S   S159      1.0  0.65937  0.99551  0.36681  1.0000
  H   H732      1.0  0.75489  0.14647  0.49426  1.0000
  C   C607      1.0  0.98291  0.47193  0.36675  1.0000
  H   H733      1.0  0.97014  0.48225  0.41100  1.0000
  S   S160      1.0  0.97706  0.36824  0.44687  1.0000
  H   H734      1.0  0.51389  0.99904  0.43311  1.0000
  H   H735      1.0  0.96810  0.48831  0.48597  1.0000
  H   H736      1.0  0.95929  0.29361  0.49540  1.0000
  H   H737      1.0  0.59859  0.06757  0.49537  1.0000
  H   H738      1.0  0.54861  0.99481  0.31191  1.0000
  Fe  Fe79      1.0  0.93230  0.34379  0.55394  1.0000
  S   S161      1.0  0.89691  0.36034  0.55414  1.0000
  C   C608      1.0  0.94229  0.33078  0.66875  1.0000
  Fe  Fe80      1.0  0.92322  0.32753  0.59485  1.0000
  S   S162      1.0  0.88869  0.34488  0.59757  1.0000
  S   S163      1.0  0.93580  0.30178  0.61624  1.0000
  Fe  Fe81      1.0  0.86905  0.31927  0.57137  1.0000
  S   S164      1.0  0.81678  0.29250  0.57034  1.0000
  Fe  Fe82      1.0  0.91931  0.38437  0.58007  1.0000
  S   S165      1.0  0.93991  0.43636  0.58382  1.0000
  S   S166      1.0  0.90253  0.30046  0.56911  1.0000
  S   S167      1.0  0.95564  0.36904  0.57953  1.0000
  Fe  Fe83      1.0  0.62400  0.10212  0.57882  1.0000
  S   S168      1.0  0.61308  0.05283  0.58233  1.0000
  S   S169      1.0  0.59329  0.12287  0.58729  1.0000
  Fe  Fe84      1.0  0.68686  0.11960  0.56265  1.0000
  S   S170      1.0  0.67935  0.07121  0.56453  1.0000
  S   S171      1.0  0.73325  0.15091  0.55063  1.0000
  Fe  Fe85      1.0  0.63148  0.05647  0.55417  1.0000
  S   S172      1.0  0.60329  0.02019  0.53254  1.0000
  Fe  Fe86      1.0  0.66227  0.07232  0.59241  1.0000
  S   S173      1.0  0.68650  0.05869  0.61420  1.0000
  S   S174      1.0  0.64005  0.10498  0.55036  1.0000
  S   S175      1.0  0.67205  0.12146  0.59078  1.0000
  Fe  Fe87      1.0  0.70739  0.04410  0.71931  1.0000
  S   S176      1.0  0.67648  0.05285  0.69974  1.0000
  S   S177      1.0  0.73462  0.02039  0.71116  1.0000
  H   H739      1.0  0.98008  0.29553  0.52586  1.0000
  H   H740      1.0  0.92114  0.33398  0.50362  1.0000
  C   C609      1.0  0.49825  0.17588  0.58304  1.0000
  C   C610      1.0  0.54090  0.22255  0.57344  1.0000
  C   C611      1.0  0.59095  0.99723  0.49778  1.0000
  C   C612      1.0  0.68430  0.05931  0.63802  1.0000
  C   C613      1.0  0.70623  0.05545  0.64835  1.0000
  C   C614      1.0  0.70468  0.05427  0.66724  1.0000
  C   C615      1.0  0.68091  0.05663  0.67607  1.0000
  C   C616      1.0  0.65923  0.06090  0.66576  1.0000
  C   C617      1.0  0.66097  0.06240  0.64686  1.0000
  H   H741      1.0  0.95664  0.27069  0.67505  1.0000
  C   C618      1.0  0.56104  0.18061  0.55999  1.0000
  H   H742      1.0  0.64079  0.06283  0.67243  1.0000
  H   H743      1.0  0.64391  0.06536  0.63914  1.0000
  C   C619      1.0  0.61404  0.01385  0.51076  1.0000
  C   C620      1.0  0.84920  0.21468  0.61744  1.0000
  H   H744      1.0  0.73129  0.11449  0.51999  1.0000
  H   H745      1.0  0.50898  0.20624  0.54147  1.0000
  H   H746      1.0  0.75183  0.10194  0.61904  1.0000
  C   C621      1.0  0.50021  0.45361  0.58896  1.0000
  C   C622      1.0  0.53716  0.07419  0.57657  1.0000
  C   C623      1.0  0.55265  0.10330  0.58475  1.0000
  C   C624      1.0  0.53552  0.11770  0.59073  1.0000
  H   H747      1.0  0.72900  0.16397  0.51291  1.0000
  H   H748      1.0  0.55002  0.06282  0.57194  1.0000
  H   H749      1.0  0.54733  0.14014  0.59715  1.0000
  H   H750      1.0  0.94853  0.26642  0.64199  1.0000
  C   C625      1.0  0.93972  0.30509  0.64012  1.0000
  C   C626      1.0  0.94667  0.28441  0.64943  1.0000
  H   H751      1.0  0.94057  0.34891  0.67613  1.0000
  H   H752      1.0  0.92948  0.48935  0.50550  1.0000
  N   N41       1.0  0.70585  0.12070  0.49817  1.0000
  C   C627      1.0  0.79442  0.25274  0.56554  1.0000
  C   C628      1.0  0.76297  0.23823  0.56962  1.0000
  C   C629      1.0  0.74411  0.20682  0.56562  1.0000
  C   C630      1.0  0.75648  0.18983  0.55712  1.0000
  C   C631      1.0  0.78797  0.20421  0.55319  1.0000
  C   C632      1.0  0.80697  0.23547  0.55755  1.0000
  H   H753      1.0  0.75312  0.25147  0.57581  1.0000
  H   H754      1.0  0.71988  0.19605  0.56867  1.0000
  H   H755      1.0  0.79774  0.19120  0.54666  1.0000
  H   H756      1.0  0.83116  0.24638  0.55439  1.0000
  C   C633      1.0  0.92128  0.45902  0.57997  1.0000
  C   C634      1.0  0.93715  0.32808  0.64997  1.0000
  C   C635      1.0  0.89123  0.44646  0.57307  1.0000
  H   H757      1.0  0.94206  0.42224  0.54578  1.0000
  H   H758      1.0  0.87848  0.42207  0.57012  1.0000
  C   C636      1.0  0.52925  0.17248  0.55912  1.0000
  C   C637      1.0  0.84573  0.23956  0.61162  1.0000
  S   S178      1.0  0.96870  0.35469  0.53222  1.0000
  C   C638      1.0  0.53228  0.46763  0.59171  1.0000
  C   C639      1.0  0.70620  0.14829  0.50664  1.0000
  H   H759      1.0  0.54298  0.45366  0.59528  1.0000
  H   H760      1.0  0.55514  0.22089  0.58461  1.0000
  C   C640      1.0  0.87740  0.46544  0.57032  1.0000
  H   H761      1.0  0.72181  0.12678  0.62515  1.0000
  H   H762      1.0  0.78182  0.12902  0.63330  1.0000
  Fe  Fe88      1.0  0.97312  0.29479  0.72392  1.0000
  S   S179      1.0  0.74589  0.08212  0.73517  1.0000
  H   H763      1.0  0.75133  0.15704  0.63855  1.0000
  H   H764      1.0  0.50421  0.10191  0.53842  1.0000
  H   H765      1.0  0.87195  0.21827  0.62129  1.0000
  H   H766      1.0  0.53075  0.23692  0.57878  1.0000
  C   C641      1.0  0.95148  0.42556  0.53198  1.0000
  C   C642      1.0  0.82371  0.18538  0.61816  1.0000
  H   H767      1.0  0.78969  0.12195  0.61040  1.0000
  C   C643      1.0  0.79115  0.20617  0.60710  1.0000
  H   H768      1.0  0.90824  0.22303  0.72517  1.0000
  C   C644      1.0  0.96975  0.36100  0.50868  1.0000
  C   C645      1.0  0.95004  0.31062  0.67798  1.0000
  H   H769      1.0  0.81422  0.25481  0.60195  1.0000
  H   H770      1.0  0.87980  0.24944  0.73933  1.0000
  H   H771      1.0  0.92001  0.17484  0.72311  1.0000
  H   H772      1.0  0.93175  0.34413  0.64308  1.0000
  C   C646      1.0  0.95165  0.28702  0.66821  1.0000
  C   C647      1.0  0.64801  0.09307  0.49703  1.0000
  H   H773      1.0  0.73413  0.11701  0.59344  1.0000
  C   C648      1.0  0.79380  0.18020  0.61286  1.0000
  C   C649      1.0  0.50493  0.05977  0.57429  1.0000
  H   H774      1.0  0.72159  0.05107  0.67496  1.0000
  H   H775      1.0  0.85399  0.45544  0.56524  1.0000
  H   H776      1.0  0.86561  0.26217  0.61089  1.0000
  H   H777      1.0  0.73392  0.16574  0.61974  1.0000
  C   C650      1.0  0.89836  0.16023  0.72937  1.0000
  C   C651      1.0  0.70915  0.10175  0.51241  1.0000
  N   N42       1.0  0.51674  0.19173  0.56727  1.0000
  H   H778      1.0  0.64827  0.99385  0.65611  1.0000
  H   H779      1.0  0.94929  0.40290  0.52767  1.0000
  H   H780      1.0  0.82817  0.16718  0.62269  1.0000
  H   H781      1.0  0.85811  0.19599  0.73797  1.0000
  H   H782      1.0  0.74419  0.15600  0.58941  1.0000
  C   C652      1.0  0.55140  0.13298  0.54503  1.0000
  C   C653      1.0  0.75353  0.14089  0.59433  1.0000
  H   H783      1.0  0.66252  0.03560  0.51638  1.0000
  C   C654      1.0  0.64472  0.02372  0.50635  1.0000
  S   S180      1.0  0.81952  0.08298  0.71609  1.0000
  H   H784      1.0  0.64726  0.09889  0.51096  1.0000
  C   C655      1.0  0.57176  0.16103  0.55302  1.0000
  H   H785      1.0  0.55619  0.23535  0.56224  1.0000
  S   S181      1.0  0.95651  0.31557  0.70172  1.0000
  C   C656      1.0  0.98392  0.30310  0.49746  1.0000
  C   C657      1.0  0.50919  0.14367  0.55094  1.0000
  H   H786      1.0  0.70075  0.16163  0.49665  1.0000
  C   C658      1.0  0.84757  0.11513  0.72811  1.0000
  H   H787      1.0  0.57806  0.20152  0.56642  1.0000
  H   H788      1.0  0.77130  0.14253  0.58465  1.0000
  H   H789      1.0  0.72436  0.05296  0.64168  1.0000
  H   H790      1.0  0.59584  0.16695  0.55454  1.0000
  H   H791      1.0  0.93626  0.43102  0.52337  1.0000
  H   H792      1.0  0.76933  0.20407  0.60259  1.0000
  C   C659      1.0  0.87553  0.13462  0.71994  1.0000
  C   C660      1.0  0.74246  0.14989  0.62459  1.0000
  C   C661      1.0  0.81674  0.23535  0.60660  1.0000
  H   H793      1.0  0.51220  0.17084  0.59295  1.0000
  C   C662      1.0  0.77298  0.12469  0.61920  1.0000
  N   N43       1.0  0.86796  0.22367  0.71425  1.0000
  C   C663      1.0  0.84808  0.19571  0.72447  1.0000
  C   C664      1.0  0.89819  0.22452  0.71202  1.0000
  C   C665      1.0  0.87240  0.25071  0.72534  1.0000
  C   C666      1.0  0.85514  0.22470  0.69639  1.0000
  C   C667      1.0  0.82742  0.20025  0.68923  1.0000
  C   C668      1.0  0.87074  0.25074  0.68545  1.0000
  C   C669      1.0  0.81594  0.20232  0.67235  1.0000
  C   C670      1.0  0.85926  0.25246  0.66855  1.0000
  C   C671      1.0  0.83175  0.22841  0.66208  1.0000
  H   H794      1.0  0.82492  0.19365  0.72676  1.0000
  H   H795      1.0  0.84538  0.17441  0.71755  1.0000
  H   H796      1.0  0.68963  0.14246  0.51778  1.0000
  H   H797      1.0  0.89599  0.20495  0.70342  1.0000
  C   C672      1.0  0.52018  0.12433  0.54396  1.0000
  H   H798      1.0  0.91533  0.24609  0.70576  1.0000
  H   H799      1.0  0.85072  0.25243  0.72608  1.0000
  Fe  Fe89      1.0  0.77235  0.05706  0.72824  1.0000
  H   H800      1.0  0.89056  0.27273  0.72003  1.0000
  H   H801      1.0  0.81412  0.17930  0.69641  1.0000
  H   H802      1.0  0.89203  0.27007  0.68994  1.0000
  H   H803      1.0  0.79460  0.18358  0.66726  1.0000
  H   H804      1.0  0.87180  0.27265  0.66046  1.0000
  H   H805      1.0  0.82268  0.23006  0.64908  1.0000
  N   N44       1.0  0.76640  0.14941  0.61283  1.0000
  H   H806      1.0  0.87959  0.12968  0.70634  1.0000
  C   C673      1.0  0.50330  0.10333  0.58835  1.0000
  H   H807      1.0  0.55971  0.11737  0.54037  1.0000
  C   C674      1.0  0.98480  0.47814  0.53999  1.0000
  C   C675      1.0  0.98111  0.43844  0.49806  1.0000
  H   H808      1.0  0.69058  0.09463  0.52247  1.0000
  H   H809      1.0  0.70840  0.08050  0.50663  1.0000
  N   N45       1.0  0.98392  0.45020  0.53169  1.0000
  C   C676      1.0  0.93747  0.49077  0.58372  1.0000
  S   S182      1.0  0.98200  0.25417  0.72198  1.0000
  Fe  Fe90      1.0  0.71887  0.99396  0.73675  1.0000
  H   H810      1.0  0.95893  0.41827  0.49886  1.0000
  H   H811      1.0  0.97369  0.47329  0.55339  1.0000
  C   C677      1.0  0.94338  0.34758  0.49769  1.0000
  H   H812      1.0  0.49319  0.03723  0.56796  1.0000
  S   S183      1.0  0.68838  0.01514  0.74389  1.0000
  C   C678      1.0  0.49666  0.19660  0.55415  1.0000
  H   H813      1.0  0.97252  0.48722  0.53143  1.0000
  H   H814      1.0  0.51609  0.44222  0.91028  1.0000
  C   C679      1.0  0.64303  0.05409  0.97734  1.0000
  H   H815      1.0  0.95612  0.27356  0.84095  1.0000
  Fe  Fe91      1.0  0.72948  0.05120  0.75914  1.0000
  S   S184      1.0  0.73488  0.07109  0.78786  1.0000
  H   H816      1.0  0.81631  0.28151  0.96831  1.0000
  H   H817      1.0  0.63080  0.15952  0.83243  1.0000
  C   C680      1.0  0.86577  0.28719  0.98977  1.0000
  Fe  Fe92      1.0  0.66116  0.08271  0.88335  1.0000
  S   S185      1.0  0.67951  0.13354  0.88841  1.0000
  S   S186      1.0  0.65023  0.05952  0.85528  1.0000
  Fe  Fe93      1.0  0.65048  0.06855  0.92423  1.0000
  S   S187      1.0  0.66884  0.11836  0.93179  1.0000
  S   S188      1.0  0.62789  0.02751  0.94296  1.0000
  Fe  Fe94      1.0  0.64082  0.11987  0.90813  1.0000
  S   S189      1.0  0.61244  0.14500  0.91120  1.0000
  Fe  Fe95      1.0  0.70583  0.12767  0.91150  1.0000
  S   S190      1.0  0.75748  0.15709  0.91656  1.0000
  S   S191      1.0  0.62055  0.06971  0.90158  1.0000
  S   S192      1.0  0.68942  0.07720  0.90546  1.0000
  Fe  Fe96      1.0  0.94712  0.33847  0.89301  1.0000
  S   S193      1.0  0.91586  0.35990  0.89029  1.0000
  C   C681      1.0  0.49962  0.04338  0.93875  1.0000
  Fe  Fe97      1.0  0.94891  0.34510  0.93498  1.0000
  S   S194      1.0  0.91715  0.36590  0.93455  1.0000
  H   H818      1.0  0.80948  0.24388  0.97564  1.0000
  Fe  Fe98      1.0  0.89020  0.32984  0.91335  1.0000
  S   S195      1.0  0.83789  0.30273  0.91241  1.0000
  Fe  Fe99      1.0  0.94590  0.39389  0.91175  1.0000
  S   S196      1.0  0.96810  0.44611  0.91444  1.0000
  S   S197      1.0  0.91987  0.30707  0.91533  1.0000
  C   C682      1.0  0.51205  0.48837  0.84530  1.0000
  H   H819      1.0  0.98094  0.36879  0.84854  1.0000
  C   C683      1.0  0.52431  0.12963  0.85217  1.0000
  C   C684      1.0  0.91302  0.47861  0.89293  1.0000
  C   C685      1.0  0.95124  0.46960  0.90873  1.0000
  S   S198      1.0  0.95617  0.31245  0.86991  1.0000
  C   C686      1.0  0.92481  0.45871  0.89787  1.0000
  C   C687      1.0  0.55055  0.10473  0.83749  1.0000
  H   H820      1.0  0.91378  0.43513  0.89304  1.0000
  C   C688      1.0  0.62690  0.02734  0.96688  1.0000
  H   H821      1.0  0.81787  0.25475  0.95281  1.0000
  H   H822      1.0  0.78418  0.48449  0.92463  1.0000
  H   H823      1.0  0.65596  0.07589  0.97087  1.0000
  H   H824      1.0  0.66796  0.03545  0.79352  1.0000
  C   C689      1.0  0.52511  0.08850  0.89329  1.0000
  C   C690      1.0  0.55616  0.09960  0.89826  1.0000
  C   C691      1.0  0.57234  0.12825  0.90687  1.0000
  C   C692      1.0  0.55657  0.14471  0.91151  1.0000
  C   C693      1.0  0.52513  0.13306  0.90712  1.0000
  H   H825      1.0  0.56768  0.08623  0.89514  1.0000
  H   H826      1.0  0.56889  0.16685  0.91826  1.0000
  H   H827      1.0  0.50350  0.09421  0.83196  1.0000
  C   C694      1.0  0.77918  0.19764  0.91552  1.0000
  C   C695      1.0  0.81116  0.21155  0.91856  1.0000
  C   C696      1.0  0.82943  0.24363  0.91765  1.0000
  C   C697      1.0  0.81588  0.26222  0.91375  1.0000
  C   C698      1.0  0.78389  0.24835  0.91083  1.0000
  C   C699      1.0  0.76561  0.21621  0.91165  1.0000
  H   H828      1.0  0.82185  0.19732  0.92149  1.0000
  H   H829      1.0  0.85398  0.25389  0.91993  1.0000
  H   H830      1.0  0.77314  0.26251  0.90786  1.0000
  H   H831      1.0  0.74102  0.20582  0.90932  1.0000
  C   C700      1.0  0.97401  0.30162  0.81759  1.0000
  C   C701      1.0  0.87412  0.30171  0.95872  1.0000
  H   H832      1.0  0.95246  0.37998  0.97641  1.0000
  C   C702      1.0  0.96728  0.32052  0.84705  1.0000
  H   H833      1.0  0.85486  0.23243  0.97686  1.0000
  C   C703      1.0  0.55066  0.14754  0.86241  1.0000
  H   H834      1.0  0.49347  0.46509  0.84371  1.0000
  C   C704      1.0  0.82373  0.26351  0.96691  1.0000
  H   H835      1.0  0.66608  0.00446  0.85992  1.0000
  H   H836      1.0  0.59608  0.15712  0.86952  1.0000
  H   H837      1.0  0.57291  0.47385  0.90886  1.0000
  C   C705      1.0  0.60856  0.10447  0.86388  1.0000
  H   H838      1.0  0.62871  0.10024  0.86366  1.0000
  C   C706      1.0  0.67467  0.99816  0.84808  1.0000
  C   C707      1.0  0.67407  0.06410  0.83645  1.0000
  C   C708      1.0  0.70580  0.08373  0.83696  1.0000
  C   C709      1.0  0.72384  0.08567  0.82191  1.0000
  C   C710      1.0  0.71048  0.06825  0.80611  1.0000
  H   H839      1.0  0.55031  0.16346  0.87246  1.0000
  C   C711      1.0  0.66066  0.04687  0.82061  1.0000
  H   H840      1.0  0.71650  0.09706  0.84903  1.0000
  H   H841      1.0  0.52370  0.48129  0.87207  1.0000
  H   H842      1.0  0.85540  0.47346  0.91834  1.0000
  H   H843      1.0  0.63873  0.16334  0.85621  1.0000
  C   C712      1.0  0.80427  0.48214  0.92971  1.0000
  C   C713      1.0  0.70540  0.01531  0.84350  1.0000
  Fe  Fe100     1.0  0.95904  0.24158  0.74887  1.0000
  H   H844      1.0  0.86162  0.15111  0.76899  1.0000
  C   C714      1.0  0.57689  0.14386  0.86049  1.0000
  C   C715      1.0  0.50772  0.48115  0.91196  1.0000
  H   H845      1.0  0.52104  0.09383  0.94051  1.0000
  H   H846      1.0  0.63618  0.03153  0.82006  1.0000
  C   C716      1.0  0.86551  0.14669  0.75524  1.0000
  H   H847      1.0  0.54876  0.08752  0.82780  1.0000
  C   C717      1.0  0.68731  0.01557  0.96506  1.0000
  S   S199      1.0  0.92138  0.19751  0.75976  1.0000
  H   H848      1.0  0.89063  0.25973  0.96730  1.0000
  H   H849      1.0  0.62524  0.09440  0.83144  1.0000
  H   H850      1.0  0.89945  0.31087  0.95995  1.0000
  C   C718      1.0  0.50951  0.10525  0.89757  1.0000
  H   H851      1.0  0.74762  0.01908  0.79509  1.0000
  C   C719      1.0  0.67868  0.04892  0.80553  1.0000
  H   H852      1.0  0.86780  0.29457  0.94443  1.0000
  H   H853      1.0  0.86918  0.32115  0.96151  1.0000
  H   H854      1.0  0.51345  0.14628  0.91038  1.0000
  C   C720      1.0  0.52645  0.46702  0.91089  1.0000
  C   C721      1.0  0.96490  0.29643  0.83568  1.0000
  H   H855      1.0  0.58494  0.07295  0.83392  1.0000
  C   C722      1.0  0.60380  0.09671  0.83202  1.0000
  N   N46       1.0  0.60524  0.11778  0.84688  1.0000
  H   H856      1.0  0.61193  0.11989  0.87564  1.0000
  H   H857      1.0  0.60081  0.10512  0.81876  1.0000
  C   C723      1.0  0.55492  0.07923  0.94199  1.0000
  N   N47       1.0  0.85709  0.27598  0.97100  1.0000
  C   C724      1.0  0.63331  0.14757  0.84437  1.0000
  C   C725      1.0  0.52442  0.07376  0.94054  1.0000
  C   C726      1.0  0.86533  0.25124  0.96702  1.0000
  H   H858      1.0  0.80597  0.46474  0.92084  1.0000
  S   S200      1.0  0.75912  0.02862  0.75314  1.0000
  H   H859      1.0  0.77396  0.14545  0.84693  1.0000
  C   C727      1.0  0.98615  0.33119  0.81065  1.0000
  H   H860      1.0  0.72053  0.03491  0.85185  1.0000
  H   H861      1.0  0.89655  0.46581  0.93160  1.0000
  H   H862      1.0  0.74014  0.02347  0.82475  1.0000
  H   H863      1.0  0.82109  0.10654  0.75215  1.0000
  C   C728      1.0  0.96403  0.37341  0.98649  1.0000
  C   C729      1.0  0.89051  0.48227  0.93772  1.0000
  H   H864      1.0  0.58794  0.08209  0.86638  1.0000
  H   H865      1.0  0.74840  0.10064  0.82253  1.0000
  C   C730      1.0  0.57773  0.12240  0.84792  1.0000
  H   H866      1.0  0.85728  0.24094  0.95337  1.0000
  C   C731      1.0  0.55867  0.48503  0.91011  1.0000
  S   S201      1.0  0.96694  0.33344  0.96061  1.0000
  C   C732      1.0  0.52428  0.10838  0.83969  1.0000
  H   H867      1.0  0.65408  0.14442  0.84254  1.0000
  H   H868      1.0  0.51322  0.06698  0.88588  1.0000
  H   H869      1.0  0.79884  0.47254  0.94343  1.0000
  N   N48       1.0  0.85865  0.26392  0.85900  1.0000
  C   C733      1.0  0.87695  0.26541  0.87519  1.0000
  C   C734      1.0  0.88061  0.27831  0.84419  1.0000
  C   C735      1.0  0.84304  0.28285  0.86240  1.0000
  C   C736      1.0  0.83551  0.23158  0.85525  1.0000
  C   C737      1.0  0.83548  0.21523  0.83938  1.0000
  C   C738      1.0  0.81227  0.21525  0.86789  1.0000
  C   C739      1.0  0.81335  0.18454  0.83645  1.0000
  C   C740      1.0  0.79044  0.18457  0.86491  1.0000
  C   C741      1.0  0.79092  0.16926  0.84919  1.0000
  H   H870      1.0  0.89005  0.25244  0.87309  1.0000
  H   H871      1.0  0.89388  0.28950  0.87874  1.0000
  H   H872      1.0  0.86251  0.25602  0.88713  1.0000
  H   H873      1.0  0.86859  0.27854  0.83155  1.0000
  H   H874      1.0  0.89467  0.26644  0.84166  1.0000
  H   H875      1.0  0.89761  0.30262  0.84753  1.0000
  H   H876      1.0  0.82895  0.27604  0.87472  1.0000
  H   H877      1.0  0.85985  0.30757  0.86457  1.0000
  H   H878      1.0  0.82761  0.28103  0.85096  1.0000
  H   H879      1.0  0.85236  0.22553  0.82905  1.0000
  H   H880      1.0  0.81092  0.22600  0.88031  1.0000
  H   H881      1.0  0.81369  0.17242  0.82427  1.0000
  H   H882      1.0  0.77320  0.17257  0.87496  1.0000
  S   S202      1.0  0.94718  0.28026  0.74978  1.0000
  H   H883      1.0  0.89281  0.47010  0.88430  1.0000
  H   H884      1.0  0.68903  0.02666  0.95233  1.0000
  H   H885      1.0  0.57357  0.10261  0.94305  1.0000
  C   C742      1.0  0.53806  0.02491  0.93964  1.0000
  C   C743      1.0  0.71640  0.00833  0.82781  1.0000
  C   C744      1.0  0.89343  0.16622  0.74710  1.0000
  S   S203      1.0  0.97919  0.37438  0.91300  1.0000
  H   H886      1.0  0.91415  0.29877  0.98718  1.0000
  H   H887      1.0  0.58544  0.05926  0.94259  1.0000
  C   C745      1.0  0.56172  0.05489  0.94159  1.0000
  C   C746      1.0  0.97393  0.35186  0.98214  1.0000
  C   C747      1.0  0.86681  0.48670  0.93029  1.0000
  C   C748      1.0  0.98850  0.35528  0.82200  1.0000
  C   C749      1.0  0.50746  0.01913  0.93816  1.0000
  H   H888      1.0  0.54369  0.00615  0.93918  1.0000
  H   H889      1.0  0.69559  0.00488  0.78387  1.0000
  C   C750      1.0  0.61025  0.99922  0.97562  1.0000
  C   C751      1.0  0.97885  0.34997  0.84002  1.0000
  H   H890      1.0  0.50359  0.13167  0.85429  1.0000
  C   C752      1.0  0.69879  0.03323  0.98069  1.0000
  H   H891      1.0  0.70940  0.05805  0.98001  1.0000
  H   H892      1.0  0.97210  0.28282  0.80912  1.0000
  C   C753      1.0  0.61005  0.99771  0.99454  1.0000
  C   C754      1.0  0.84252  0.12145  0.74573  1.0000
  C   C755      1.0  0.74096  0.99428  0.79661  1.0000
  C   C756      1.0  0.55991  0.97991  0.14967  1.0000
  H   H893      1.0  0.51746  0.97945  0.08359  1.0000
  H   H894      1.0  0.68732  0.93772  0.02815  1.0000
  C   C757      1.0  0.63409  0.96979  0.14288  1.0000
  Fe  Fe101     1.0  0.69948  0.73272  0.23119  1.0000
  S   S204      1.0  0.67210  0.70074  0.20757  1.0000
  S   S205      1.0  0.73408  0.78223  0.22794  1.0000
  Fe  Fe102     1.0  0.62292  0.70361  0.10056  1.0000
  S   S206      1.0  0.57225  0.69015  0.09832  1.0000
  S   S207      1.0  0.65458  0.72691  0.12518  1.0000
  Fe  Fe103     1.0  0.62723  0.69560  0.05931  1.0000
  S   S208      1.0  0.57783  0.68286  0.05490  1.0000
  S   S209      1.0  0.65885  0.69844  0.03626  1.0000
  Fe  Fe104     1.0  0.58554  0.72094  0.07438  1.0000
  S   S210      1.0  0.56143  0.74943  0.06802  1.0000
  Fe  Fe105     1.0  0.56876  0.65299  0.07895  1.0000
  S   S211      1.0  0.53090  0.60521  0.07097  1.0000
  S   S212      1.0  0.63595  0.73617  0.07725  1.0000
  S   S213      1.0  0.61853  0.66419  0.08264  1.0000
  Fe  Fe106     1.0  0.61236  0.97785  0.09087  1.0000
  S   S214      1.0  0.57960  0.92709  0.08914  1.0000
  H   H895      1.0  0.65240  0.77441  0.03381  1.0000
  S   S215      1.0  0.57583  0.93562  0.04509  1.0000
  Fe  Fe107     1.0  0.55241  0.94046  0.06992  1.0000
  H   H896      1.0  0.94848  0.65087  0.00963  1.0000
  Fe  Fe108     1.0  0.60557  0.92642  0.06461  1.0000
  S   S216      1.0  0.62668  0.89485  0.05903  1.0000
  S   S217      1.0  0.64018  0.97654  0.06753  1.0000
  H   H897      1.0  0.62620  0.61760  0.01999  1.0000
  H   H898      1.0  0.61819  0.95092  0.13441  1.0000
  H   H899      1.0  0.91781  0.79754  0.23704  1.0000
  H   H900      1.0  0.53530  0.93224  0.12534  1.0000
  H   H901      1.0  0.71404  0.96134  0.01149  1.0000
  C   C758      1.0  0.58017  0.79024  0.06728  1.0000
  C   C759      1.0  0.61223  0.80765  0.06718  1.0000
  C   C760      1.0  0.62613  0.83973  0.06508  1.0000
  C   C761      1.0  0.60824  0.85492  0.06357  1.0000
  C   C762      1.0  0.57621  0.83766  0.06428  1.0000
  C   C763      1.0  0.56228  0.80546  0.06592  1.0000
  H   H902      1.0  0.62639  0.79645  0.06849  1.0000
  H   H903      1.0  0.65091  0.85284  0.06455  1.0000
  H   H904      1.0  0.56213  0.84898  0.06303  1.0000
  H   H905      1.0  0.53748  0.79228  0.06601  1.0000
  H   H906      1.0  0.69003  0.66582  0.15336  1.0000
  H   H907      1.0  0.52824  0.56683  0.02354  1.0000
  C   C764      1.0  0.68044  0.98659  0.99861  1.0000
  H   H908      1.0  0.52946  0.93212  0.15628  1.0000
  C   C765      1.0  0.64833  0.68536  0.01363  1.0000
  C   C766      1.0  0.61820  0.67414  0.00708  1.0000
  H   H909      1.0  0.69446  0.69546  0.00672  1.0000
  H   H910      1.0  0.60029  0.67204  0.01610  1.0000
  C   C767      1.0  0.66641  0.70905  0.18499  1.0000
  C   C768      1.0  0.64432  0.68541  0.17395  1.0000
  C   C769      1.0  0.63973  0.69054  0.15581  1.0000
  C   C770      1.0  0.65746  0.71941  0.14835  1.0000
  C   C771      1.0  0.67949  0.74309  0.15942  1.0000
  C   C772      1.0  0.68392  0.73801  0.17759  1.0000
  H   H911      1.0  0.63069  0.66288  0.17946  1.0000
  H   H912      1.0  0.62284  0.67202  0.14753  1.0000
  H   H913      1.0  0.69356  0.76543  0.15381  1.0000
  H   H914      1.0  0.70121  0.75637  0.18576  1.0000
  H   H915      1.0  0.63249  0.96864  0.02065  1.0000
  H   H916      1.0  0.58135  0.70950  0.01590  1.0000
  C   C773      1.0  0.58951  0.98031  0.18261  1.0000
  H   H917      1.0  0.51037  0.60125  0.10818  1.0000
  C   C774      1.0  0.61101  0.78830  0.01763  1.0000
  H   H918      1.0  0.66098  0.86575  0.01829  1.0000
  C   C775      1.0  0.63896  0.81627  0.01705  1.0000
  S   S218      1.0  0.66766  0.98007  0.19414  1.0000
  C   C776      1.0  0.50086  0.98179  0.03782  1.0000
  H   H919      1.0  0.65225  0.77337  0.00091  1.0000
  H   H920      1.0  0.57190  0.96195  0.11853  1.0000
  S   S219      1.0  0.58316  0.99110  0.07327  1.0000
  H   H921      1.0  0.68105  0.93440  0.20714  1.0000
  N   N49       1.0  0.77409  0.73375  0.18860  1.0000
  C   C777      1.0  0.79986  0.76568  0.18898  1.0000
  C   C778      1.0  0.75417  0.73095  0.20400  1.0000
  C   C779      1.0  0.78744  0.71272  0.19124  1.0000
  C   C780      1.0  0.75549  0.72532  0.17177  1.0000
  C   C781      1.0  0.76230  0.74567  0.15716  1.0000
  C   C782      1.0  0.72914  0.69607  0.16980  1.0000
  C   C783      1.0  0.74362  0.73712  0.14169  1.0000
  C   C784      1.0  0.71069  0.68781  0.15428  1.0000
  C   C785      1.0  0.71790  0.70830  0.14026  1.0000
  H   H922      1.0  0.79126  0.78280  0.18791  1.0000
  H   H923      1.0  0.81329  0.77123  0.20185  1.0000
  H   H924      1.0  0.81653  0.76933  0.17814  1.0000
  H   H925      1.0  0.74105  0.74372  0.20154  1.0000
  H   H926      1.0  0.76779  0.74010  0.21667  1.0000
  H   H927      1.0  0.73691  0.70680  0.20659  1.0000
  H   H928      1.0  0.80191  0.71878  0.20373  1.0000
  H   H929      1.0  0.76943  0.68845  0.19255  1.0000
  H   H930      1.0  0.80212  0.71366  0.17975  1.0000
  H   H931      1.0  0.78154  0.76850  0.15745  1.0000
  H   H932      1.0  0.72203  0.67968  0.18050  1.0000
  H   H933      1.0  0.74857  0.75316  0.13087  1.0000
  H   H934      1.0  0.70290  0.70221  0.12850  1.0000
  C   C786      1.0  0.62748  0.75623  0.00076  1.0000
  H   H935      1.0  0.50154  0.71129  0.08433  1.0000
  C   C787      1.0  0.54729  0.95597  0.12017  1.0000
  H   H936      1.0  0.68874  0.97951  0.04409  1.0000
  H   H937      1.0  0.63005  0.93547  0.00921  1.0000
  H   H938      1.0  0.65323  0.89502  0.20314  1.0000
  H   H939      1.0  0.53721  0.95502  0.10660  1.0000
  C   C788      1.0  0.88391  0.75252  0.24489  1.0000
  C   C789      1.0  0.56369  0.95374  0.17668  1.0000
  H   H940      1.0  0.56632  0.73178  0.00505  1.0000
  C   C790      1.0  0.62801  0.75626  0.03310  1.0000
  C   C791      1.0  0.51148  0.96893  0.13496  1.0000
  H   H941      1.0  0.63894  0.94095  0.03266  1.0000
  N   N50       1.0  0.69719  0.90837  0.19116  1.0000
  C   C792      1.0  0.73007  0.92896  0.19567  1.0000
  C   C793      1.0  0.68967  0.92010  0.17461  1.0000
  H   H942      1.0  0.96360  0.56905  0.04001  1.0000
  C   C794      1.0  0.69154  0.87618  0.18945  1.0000
  C   C795      1.0  0.69766  0.86190  0.20420  1.0000
  C   C796      1.0  0.67926  0.85791  0.17357  1.0000
  C   C797      1.0  0.69143  0.83122  0.20332  1.0000
  C   C798      1.0  0.67329  0.82722  0.17277  1.0000
  C   C799      1.0  0.67918  0.81387  0.18764  1.0000
  H   H943      1.0  0.73514  0.95344  0.19698  1.0000
  H   H944      1.0  0.68418  0.90507  0.21905  1.0000
  H   H945      1.0  0.74532  0.92741  0.18525  1.0000
  H   H946      1.0  0.70372  0.91972  0.16310  1.0000
  H   H947      1.0  0.62695  0.73346  0.99957  1.0000
  H   H948      1.0  0.66483  0.90674  0.17091  1.0000
  C   C800      1.0  0.67809  0.91072  0.20575  1.0000
  C   C801      1.0  0.49697  0.57962  0.08205  1.0000
  C   C802      1.0  0.84108  0.77575  0.24186  1.0000
  H   H949      1.0  0.70705  0.87430  0.21667  1.0000
  H   H950      1.0  0.67388  0.86666  0.16162  1.0000
  H   H951      1.0  0.69590  0.82079  0.21496  1.0000
  H   H952      1.0  0.66382  0.81352  0.16059  1.0000
  H   H953      1.0  0.67407  0.78998  0.18705  1.0000
  H   H954      1.0  0.66085  0.81631  0.01630  1.0000
  H   H955      1.0  0.97976  0.60790  0.03247  1.0000
  H   H956      1.0  0.62844  0.73396  0.03335  1.0000
  H   H957      1.0  0.57877  0.60108  0.03747  1.0000
  H   H958      1.0  0.56301  0.82054  0.02246  1.0000
  C   C803      1.0  0.54701  0.56351  0.99797  1.0000
  H   H959      1.0  0.56126  0.77081  0.02090  1.0000
  H   H960      1.0  0.98952  0.60070  0.05416  1.0000
  C   C804      1.0  0.63931  0.84473  0.01810  1.0000
  H   H961      1.0  0.56771  0.73040  0.02937  1.0000
  H   H962      1.0  0.98717  0.67474  0.15651  1.0000
  N   N51       1.0  0.54457  0.97861  0.13225  1.0000
  C   C805      1.0  0.67109  0.68693  0.00179  1.0000
  H   H963      1.0  0.73718  0.92344  0.20869  1.0000
  Fe  Fe109     1.0  0.60859  0.98573  0.04962  1.0000
  H   H964      1.0  0.49959  0.96886  0.12215  1.0000
  C   C806      1.0  0.60410  0.60206  0.01386  1.0000
  C   C807      1.0  0.64127  0.96423  0.16037  1.0000
  C   C808      1.0  0.57741  0.59294  0.02371  1.0000
  H   H965      1.0  0.69436  0.94441  0.17641  1.0000
  N   N52       1.0  0.61142  0.75851  0.01703  1.0000
  H   H966      1.0  0.59701  0.97591  0.00096  1.0000
  C   C809      1.0  0.54901  0.95346  0.16048  1.0000
  H   H967      1.0  0.63065  0.94098  0.16520  1.0000
  H   H968      1.0  0.49837  0.95879  0.03876  1.0000
  H   H969      1.0  0.61228  0.86821  0.02120  1.0000
  H   H970      1.0  0.51695  0.67742  0.07063  1.0000
  S   S220      1.0  0.50030  0.91772  0.06995  1.0000
  C   C810      1.0  0.58349  0.79064  0.01950  1.0000
  H   H971      1.0  0.50821  0.67800  0.10437  1.0000
  H   H972      1.0  0.61674  0.75820  0.04557  1.0000
  H   H973      1.0  0.60149  0.98027  0.19488  1.0000
  C   C811      1.0  0.60248  0.59212  0.99601  1.0000
  C   C812      1.0  0.76400  0.90854  0.24316  1.0000
  C   C813      1.0  0.96936  0.65665  0.00237  1.0000
  C   C814      1.0  0.58025  0.73148  0.01678  1.0000
  H   H974      1.0  0.50845  0.98461  0.14465  1.0000
  C   C815      1.0  0.98486  0.59158  0.04008  1.0000
  C   C816      1.0  0.61192  0.84618  0.01970  1.0000
  H   H975      1.0  0.67711  0.93030  0.00501  1.0000
  C   C817      1.0  0.64303  0.95314  0.01972  1.0000
  H   H976      1.0  0.49400  0.63682  0.07062  1.0000
  H   H977      1.0  0.55541  0.93311  0.18453  1.0000
  C   C818      1.0  0.54893  0.57368  0.01579  1.0000
  C   C819      1.0  0.58412  0.81923  0.02041  1.0000
  S   S221      1.0  0.69535  0.97444  0.23945  1.0000
  N   N53       1.0  0.67627  0.97078  0.01592  1.0000
  H   H978      1.0  0.88040  0.81780  0.23423  1.0000
  C   C820      1.0  0.89379  0.78289  0.23984  1.0000
  C   C821      1.0  0.87247  0.79432  0.23824  1.0000
  S   S222      1.0  0.98100  0.72465  0.23967  1.0000
  S   S223      1.0  0.81519  0.79131  0.23913  1.0000
  C   C822      1.0  0.49277  0.65865  0.06956  1.0000
  C   C823      1.0  0.66146  0.98851  0.17178  1.0000
  C   C824      1.0  0.68928  0.94914  0.01504  1.0000
  S   S224      1.0  0.77067  0.96686  0.24095  1.0000
  H   H979      1.0  0.78760  0.91853  0.23883  1.0000
  H   H980      1.0  0.49871  0.94522  0.14007  1.0000
  C   C825      1.0  0.69133  0.99212  0.03140  1.0000
  C   C826      1.0  0.49271  0.96673  0.08257  1.0000
  C   C827      1.0  0.74980  0.92723  0.24522  1.0000
  C   C828      1.0  0.49243  0.58294  0.10028  1.0000
  Fe  Fe110     1.0  0.96216  0.75790  0.24521  1.0000
  H   H981      1.0  0.75900  0.86272  0.24534  1.0000
  C   C829      1.0  0.52416  0.61844  0.36710  1.0000
  N   N54       1.0  0.59515  0.88683  0.46591  1.0000
  H   H982      1.0  0.61386  0.95646  0.33943  1.0000
  H   H983      1.0  0.54993  0.87667  0.45610  1.0000
  H   H984      1.0  0.97821  0.53231  0.39963  1.0000
  H   H985      1.0  0.76999  0.95447  0.28433  1.0000
  C   C830      1.0  0.96626  0.65851  0.48729  1.0000
  H   H986      1.0  0.58053  0.97816  0.47069  1.0000
  H   H987      1.0  0.87798  0.68453  0.27722  1.0000
  Fe  Fe111     1.0  0.71145  0.73590  0.27254  1.0000
  S   S225      1.0  0.70543  0.71513  0.30052  1.0000
  S   S226      1.0  0.74754  0.78551  0.27134  1.0000
  Fe  Fe112     1.0  0.59663  0.67977  0.38920  1.0000
  S   S227      1.0  0.56517  0.69984  0.39543  1.0000
  S   S228      1.0  0.59925  0.67864  0.35848  1.0000
  Fe  Fe113     1.0  0.60264  0.66899  0.43000  1.0000
  S   S229      1.0  0.57253  0.68978  0.43810  1.0000
  S   S230      1.0  0.61605  0.64222  0.45009  1.0000
  Fe  Fe114     1.0  0.54224  0.66163  0.41492  1.0000
  H   H988      1.0  0.69999  0.92750  0.32824  1.0000
  Fe  Fe115     1.0  0.59844  0.72596  0.41758  1.0000
  S   S231      1.0  0.62133  0.77834  0.41913  1.0000
  S   S232      1.0  0.57108  0.63953  0.40738  1.0000
  S   S233      1.0  0.63109  0.70721  0.41092  1.0000
  C   C831      1.0  0.63461  0.97221  0.33276  1.0000
  S   S234      1.0  0.57184  0.93676  0.38245  1.0000
  H   H989      1.0  0.61493  0.60315  0.47872  1.0000
  S   S235      1.0  0.56192  0.93880  0.42641  1.0000
  Fe  Fe116     1.0  0.57737  0.91334  0.40703  1.0000
  S   S236      1.0  0.55513  0.86136  0.40918  1.0000
  Fe  Fe117     1.0  0.56068  0.96492  0.40217  1.0000
  C   C832      1.0  0.88366  0.67725  0.29024  1.0000
  S   S237      1.0  0.62769  0.94587  0.41064  1.0000
  H   H990      1.0  0.92849  0.66779  0.27663  1.0000
  H   H991      1.0  0.86900  0.68026  0.30048  1.0000
  H   H992      1.0  0.53277  0.97297  0.45390  1.0000
  H   H993      1.0  0.94820  0.66112  0.48047  1.0000
  C   C833      1.0  0.60252  0.80088  0.41573  1.0000
  C   C834      1.0  0.57053  0.78773  0.41410  1.0000
  C   C835      1.0  0.55647  0.80659  0.41188  1.0000
  C   C836      1.0  0.57419  0.83869  0.41102  1.0000
  C   C837      1.0  0.60624  0.85180  0.41233  1.0000
  C   C838      1.0  0.62028  0.83298  0.41480  1.0000
  H   H994      1.0  0.55659  0.76308  0.41483  1.0000
  H   H995      1.0  0.53167  0.79622  0.41091  1.0000
  H   H996      1.0  0.62022  0.87641  0.41149  1.0000
  H   H997      1.0  0.64505  0.84334  0.41603  1.0000
  C   C839      1.0  0.62563  0.64992  0.47342  1.0000
  Fe  Fe118     1.0  0.71415  0.79085  0.25302  1.0000
  H   H998      1.0  0.73083  0.96642  0.27666  1.0000
  H   H999      1.0  0.63881  0.69805  0.47276  1.0000
  H   H1000     1.0  0.79291  0.92104  0.28107  1.0000
  H   H1001     1.0  0.67001  0.93892  0.29405  1.0000
  H   H1002     1.0  0.95943  0.70600  0.28145  1.0000
  H   H1003     1.0  0.53697  0.96596  0.33687  1.0000
  C   C840      1.0  0.67592  0.70622  0.31654  1.0000
  C   C841      1.0  0.68175  0.70213  0.33457  1.0000
  C   C842      1.0  0.65894  0.69453  0.34771  1.0000
  C   C843      1.0  0.62974  0.69036  0.34288  1.0000
  C   C844      1.0  0.62393  0.69462  0.32489  1.0000
  C   C845      1.0  0.64691  0.70273  0.31182  1.0000
  H   H1004     1.0  0.70406  0.70464  0.33836  1.0000
  H   H1005     1.0  0.66371  0.69104  0.36142  1.0000
  H   H1006     1.0  0.60146  0.69145  0.32095  1.0000
  H   H1007     1.0  0.64204  0.70576  0.29803  1.0000
  C   C846      1.0  0.66290  0.99197  0.30486  1.0000
  C   C847      1.0  0.75728  0.88337  0.29488  1.0000
  C   C848      1.0  0.68157  0.92423  0.29387  1.0000
  C   C849      1.0  0.97883  0.51532  0.39050  1.0000
  C   C850      1.0  0.77158  0.91305  0.28831  1.0000
  C   C851      1.0  0.93884  0.66787  0.34535  1.0000
  H   H1008     1.0  0.50781  0.58766  0.40908  1.0000
  C   C852      1.0  0.95177  0.66388  0.32966  1.0000
  C   C853      1.0  0.93415  0.69212  0.27928  1.0000
  H   H1009     1.0  0.49663  0.93324  0.47412  1.0000
  H   H1010     1.0  0.49530  0.60019  0.31934  1.0000
  H   H1011     1.0  0.92851  0.70026  0.26665  1.0000
  H   H1012     1.0  0.53777  0.60939  0.35965  1.0000
  N   N55       1.0  0.91691  0.69522  0.29474  1.0000
  H   H1013     1.0  0.51220  0.60229  0.37801  1.0000
  H   H1014     1.0  0.70154  0.96305  0.32226  1.0000
  H   H1015     1.0  0.50309  0.50812  0.45828  1.0000
  H   H1016     1.0  0.53637  0.63826  0.33409  1.0000
  H   H1017     1.0  0.89405  0.69629  0.32809  1.0000
  H   H1018     1.0  0.50615  0.64920  0.33156  1.0000
  H   H1019     1.0  0.54628  0.60571  0.45395  1.0000
  H   H1020     1.0  0.69426  0.88238  0.31299  1.0000
  C   C854      1.0  0.91025  0.68733  0.32803  1.0000
  H   H1021     1.0  0.56389  0.85216  0.44712  1.0000
  C   C855      1.0  0.66004  0.99305  0.34295  1.0000
  C   C856      1.0  0.72959  0.87281  0.30384  1.0000
  H   H1022     1.0  0.54611  0.88284  0.48706  1.0000
  H   H1023     1.0  0.64590  0.93148  0.48368  1.0000
  Fe  Fe119     1.0  0.62141  0.97130  0.38739  1.0000
  N   N56       1.0  0.64652  0.78144  0.36311  1.0000
  C   C857      1.0  0.66101  0.76649  0.37392  1.0000
  C   C858      1.0  0.65631  0.81238  0.37113  1.0000
  C   C859      1.0  0.61274  0.76286  0.36497  1.0000
  C   C860      1.0  0.65473  0.78426  0.34388  1.0000
  C   C861      1.0  0.67596  0.77519  0.33673  1.0000
  C   C862      1.0  0.64164  0.79688  0.33165  1.0000
  C   C863      1.0  0.68320  0.77832  0.31850  1.0000
  C   C864      1.0  0.64870  0.79943  0.31339  1.0000
  C   C865      1.0  0.66927  0.78994  0.30681  1.0000
  H   H1024     1.0  0.68654  0.77979  0.37389  1.0000
  H   H1025     1.0  0.65420  0.76461  0.38826  1.0000
  H   H1026     1.0  0.65379  0.74264  0.36895  1.0000
  H   H1027     1.0  0.65136  0.81115  0.38576  1.0000
  H   H1028     1.0  0.64412  0.82404  0.36495  1.0000
  H   H1029     1.0  0.68146  0.82739  0.36958  1.0000
  H   H1030     1.0  0.60431  0.73967  0.35862  1.0000
  H   H1031     1.0  0.60607  0.75963  0.37935  1.0000
  H   H1032     1.0  0.59981  0.77373  0.35881  1.0000
  H   H1033     1.0  0.68692  0.76501  0.34480  1.0000
  H   H1034     1.0  0.62558  0.80457  0.33611  1.0000
  H   H1035     1.0  0.69917  0.77090  0.31325  1.0000
  H   H1036     1.0  0.63803  0.80853  0.30417  1.0000
  H   H1037     1.0  0.67452  0.79161  0.29261  1.0000
  C   C866      1.0  0.94452  0.67207  0.31311  1.0000
  H   H1038     1.0  0.95632  0.66931  0.30163  1.0000
  C   C867      1.0  0.52105  0.64538  0.34138  1.0000
  H   H1039     1.0  0.90788  0.68233  0.35679  1.0000
  H   H1040     1.0  0.61161  0.85583  0.45629  1.0000
  H   H1041     1.0  0.71645  0.98391  0.29237  1.0000
  C   C868      1.0  0.49679  0.58272  0.45256  1.0000
  H   H1042     1.0  0.60714  0.89734  0.43816  1.0000
  C   C869      1.0  0.71575  0.89168  0.30597  1.0000
  C   C870      1.0  0.91788  0.67928  0.34452  1.0000
  H   H1043     1.0  0.76745  0.86833  0.29276  1.0000
  H   H1044     1.0  0.66685  0.90377  0.30181  1.0000
  H   H1045     1.0  0.70805  0.92809  0.25211  1.0000
  H   H1046     1.0  0.49555  0.60386  0.45060  1.0000
  H   H1047     1.0  0.87651  0.65229  0.28904  1.0000
  H   H1048     1.0  0.71862  0.84967  0.30888  1.0000
  C   C871      1.0  0.55537  0.97629  0.34732  1.0000
  H   H1049     1.0  0.92184  0.73752  0.28369  1.0000
  H   H1050     1.0  0.98985  0.54466  0.36781  1.0000
  H   H1051     1.0  0.55112  0.84684  0.46966  1.0000
  C   C872      1.0  0.62354  0.62603  0.48443  1.0000
  H   H1052     1.0  0.59983  0.92489  0.45026  1.0000
  H   H1053     1.0  0.94551  0.66255  0.35820  1.0000
  H   H1054     1.0  0.54075  0.64048  0.37365  1.0000
  H   H1055     1.0  0.75272  0.98557  0.29672  1.0000
  H   H1056     1.0  0.61602  0.95595  0.30610  1.0000
  N   N57       1.0  0.71366  0.94100  0.30093  1.0000
  H   H1057     1.0  0.91028  0.73215  0.30637  1.0000
  C   C873      1.0  0.63683  0.67938  0.48102  1.0000
  S   S238      1.0  0.69636  0.82500  0.25791  1.0000
  C   C874      1.0  0.72919  0.92175  0.29892  1.0000
  S   S239      1.0  0.52820  0.98484  0.39634  1.0000
  C   C875      1.0  0.49802  0.98204  0.44218  1.0000
  C   C876      1.0  0.97208  0.50985  0.49223  1.0000
  S   S240      1.0  0.73059  0.72170  0.24877  1.0000
  C   C877      1.0  0.61224  0.86921  0.46863  1.0000
  H   H1058     1.0  0.96845  0.65544  0.33041  1.0000
  N   N58       1.0  0.50252  0.62266  0.35504  1.0000
  C   C878      1.0  0.63602  0.97182  0.31385  1.0000
  C   C879      1.0  0.92382  0.68457  0.31183  1.0000
  C   C880      1.0  0.71929  0.91408  0.25070  1.0000
  C   C881      1.0  0.56357  0.86475  0.45958  1.0000
  C   C882      1.0  0.60995  0.90908  0.45141  1.0000
  H   H1059     1.0  0.53686  0.66812  0.34768  1.0000
  C   C883      1.0  0.98762  0.50102  0.36078  1.0000
  H   H1060     1.0  0.67976  0.87275  0.25898  1.0000
  C   C884      1.0  0.59591  0.90370  0.48266  1.0000
  H   H1061     1.0  0.73660  0.96105  0.32604  1.0000
  H   H1062     1.0  0.94930  0.74224  0.30102  1.0000
  C   C885      1.0  0.71292  0.94842  0.32020  1.0000
  Fe  Fe120     1.0  0.76438  0.77174  0.24653  1.0000
  C   C886      1.0  0.72919  0.97043  0.29125  1.0000
  H   H1063     1.0  0.54970  0.55790  0.45767  1.0000
  C   C887      1.0  0.56886  0.89914  0.49176  1.0000
  C   C888      1.0  0.71757  0.86411  0.25277  1.0000
  C   C889      1.0  0.50044  0.52846  0.45674  1.0000
  H   H1064     1.0  0.63693  0.88432  0.47196  1.0000
  H   H1065     1.0  0.60225  0.85265  0.47972  1.0000
  Fe  Fe121     1.0  0.61217  0.97282  0.42873  1.0000
  C   C890      1.0  0.92494  0.72813  0.29660  1.0000
  S   S241      1.0  0.66271  0.99101  0.28095  1.0000
  S   S242      1.0  0.67718  0.74185  0.25526  1.0000
  C   C891      1.0  0.75793  0.93211  0.29027  1.0000
  H   H1066     1.0  0.63507  0.92376  0.45371  1.0000
  C   C892      1.0  0.52725  0.55676  0.45640  1.0000
  C   C893      1.0  0.62443  0.92621  0.49008  1.0000
  C   C894      1.0  0.70332  0.88273  0.25459  1.0000
  C   C895      1.0  0.52542  0.58382  0.45433  1.0000
  H   H1067     1.0  0.68096  0.91647  0.27974  1.0000
  H   H1068     1.0  0.54357  0.96951  0.36045  1.0000
  C   C896      1.0  0.98536  0.52221  0.37249  1.0000
  C   C897      1.0  0.50867  0.96724  0.45383  1.0000
  C   C898      1.0  0.74789  0.87698  0.24686  1.0000
  C   C899      1.0  0.85247  0.73388  0.24840  1.0000
  H   H1069     1.0  0.57038  0.96521  0.34598  1.0000
  C   C900      1.0  0.83120  0.74540  0.24697  1.0000
  H   H1070     1.0  0.80718  0.73078  0.24978  1.0000
  H   H1071     1.0  0.84447  0.71033  0.25226  1.0000
  H   H1072     1.0  0.73178  0.65666  0.49298  1.0000
  C   C901      1.0  0.59848  0.99098  0.48050  1.0000
  H   H1073     1.0  0.50249  0.65963  0.37097  1.0000
  S   S243      1.0  0.90953  0.73646  0.24679  1.0000
  H   H1074     1.0  0.70691  0.59846  0.49504  1.0000
  Fe  Fe122     1.0  0.65389  0.64057  0.55716  1.0000
  S   S244      1.0  0.63983  0.59013  0.55825  1.0000
  S   S245      1.0  0.65950  0.67027  0.53262  1.0000
  Fe  Fe123     1.0  0.66167  0.64868  0.59881  1.0000
  S   S246      1.0  0.64796  0.59883  0.60264  1.0000
  S   S247      1.0  0.67745  0.68740  0.61998  1.0000
  Fe  Fe124     1.0  0.67832  0.60437  0.57891  1.0000
  S   S248      1.0  0.71068  0.58333  0.57959  1.0000
  Fe  Fe125     1.0  0.61075  0.58884  0.58175  1.0000
  S   S249      1.0  0.55878  0.55856  0.58409  1.0000
  S   S250      1.0  0.69424  0.65473  0.57637  1.0000
  S   S251      1.0  0.62279  0.63879  0.57946  1.0000
  Fe  Fe126     1.0  0.94768  0.63104  0.55903  1.0000
  S   S252      1.0  0.89816  0.60053  0.55154  1.0000
  H   H1075     1.0  0.73267  0.58689  0.53364  1.0000
  Fe  Fe127     1.0  0.93289  0.62865  0.59998  1.0000
  S   S253      1.0  0.88255  0.59682  0.59448  1.0000
  S   S254      1.0  0.94670  0.63724  0.63000  1.0000
  Fe  Fe128     1.0  0.89818  0.57203  0.57493  1.0000
  S   S255      1.0  0.87499  0.52004  0.57078  1.0000
  Fe  Fe129     1.0  0.88723  0.62808  0.57183  1.0000
  S   S256      1.0  0.85547  0.64938  0.56738  1.0000
  S   S257      1.0  0.94802  0.60133  0.58179  1.0000
  S   S258      1.0  0.93727  0.66124  0.57791  1.0000
  H   H1076     1.0  0.63057  0.61283  0.51100  1.0000
  C   C902      1.0  0.92361  0.50970  0.58103  1.0000
  S   S259      1.0  0.72245  0.71083  0.73737  1.0000
  Fe  Fe130     1.0  0.69280  0.72821  0.72420  1.0000
  S   S260      1.0  0.65771  0.69363  0.70423  1.0000
  S   S261      1.0  0.73247  0.77320  0.71677  1.0000
  C   C903      1.0  0.97010  0.71211  0.67443  1.0000
  H   H1077     1.0  0.78139  0.58627  0.53770  1.0000
  H   H1078     1.0  0.91149  0.89435  0.69378  1.0000
  C   C904      1.0  0.72374  0.65687  0.50687  1.0000
  C   C905      1.0  0.88445  0.76574  0.73267  1.0000
  H   H1079     1.0  0.60230  0.92050  0.68091  1.0000
  H   H1080     1.0  0.81618  0.82955  0.71380  1.0000
  H   H1081     1.0  0.96068  0.50070  0.58912  1.0000
  C   C906      1.0  0.71087  0.63278  0.53542  1.0000
  H   H1082     1.0  0.80114  0.70342  0.68025  1.0000
  C   C907      1.0  0.95534  0.66665  0.64671  1.0000
  S   S262      1.0  0.98474  0.79016  0.73076  1.0000
  C   C908      1.0  0.94995  0.51084  0.50347  1.0000
  C   C909      1.0  0.50503  0.50396  0.58279  1.0000
  H   H1083     1.0  0.70088  0.65624  0.50558  1.0000
  H   H1084     1.0  0.78490  0.70117  0.70196  1.0000
  Fe  Fe131     1.0  0.98277  0.74529  0.72205  1.0000
  H   H1085     1.0  0.57533  0.51000  0.59194  1.0000
  H   H1086     1.0  0.59635  0.69663  0.68343  1.0000
  H   H1087     1.0  0.67652  0.60254  0.50584  1.0000
  H   H1088     1.0  0.72699  0.67337  0.70493  1.0000
  H   H1089     1.0  0.93616  0.53394  0.58439  1.0000
  C   C910      1.0  0.96373  0.65213  0.50580  1.0000
  C   C911      1.0  0.67289  0.68811  0.64359  1.0000
  C   C912      1.0  0.68452  0.71676  0.65255  1.0000
  C   C913      1.0  0.68070  0.71875  0.67116  1.0000
  C   C914      1.0  0.66496  0.69203  0.68105  1.0000
  C   C915      1.0  0.65331  0.66336  0.67210  1.0000
  C   C916      1.0  0.65783  0.66137  0.65355  1.0000
  H   H1090     1.0  0.69624  0.73760  0.64498  1.0000
  H   H1091     1.0  0.68940  0.74097  0.67780  1.0000
  H   H1092     1.0  0.64083  0.64256  0.67960  1.0000
  H   H1093     1.0  0.64942  0.63920  0.64697  1.0000
  C   C917      1.0  0.75112  0.60258  0.57689  1.0000
  C   C918      1.0  0.76734  0.58565  0.57813  1.0000
  C   C919      1.0  0.79938  0.59977  0.57566  1.0000
  C   C920      1.0  0.81549  0.63095  0.57168  1.0000
  C   C921      1.0  0.79935  0.64799  0.57064  1.0000
  C   C922      1.0  0.76734  0.63394  0.57332  1.0000
  H   H1094     1.0  0.75498  0.56135  0.58084  1.0000
  H   H1095     1.0  0.81149  0.58637  0.57650  1.0000
  H   H1096     1.0  0.81159  0.67210  0.56746  1.0000
  H   H1097     1.0  0.75521  0.64727  0.57233  1.0000
  C   C923      1.0  0.53712  0.51795  0.58542  1.0000
  S   S263      1.0  0.80406  0.76258  0.71732  1.0000
  C   C924      1.0  0.78122  0.68890  0.68876  1.0000
  C   C925      1.0  0.65776  0.97737  0.65688  1.0000
  C   C926      1.0  0.67316  0.89870  0.66029  1.0000
  H   H1098     1.0  0.94393  0.64997  0.51306  1.0000
  H   H1099     1.0  0.95335  0.53909  0.54762  1.0000
  C   C927      1.0  0.64445  0.66113  0.51020  1.0000
  H   H1100     1.0  0.60630  0.92347  0.65698  1.0000
  C   C928      1.0  0.75171  0.71330  0.67954  1.0000
  C   C929      1.0  0.74831  0.66860  0.66209  1.0000
  C   C930      1.0  0.74169  0.68030  0.64624  1.0000
  C   C931      1.0  0.75020  0.64086  0.66016  1.0000
  C   C932      1.0  0.73738  0.66515  0.62962  1.0000
  C   C933      1.0  0.74606  0.62603  0.64344  1.0000
  C   C934      1.0  0.73957  0.63811  0.62820  1.0000
  H   H1101     1.0  0.78109  0.67391  0.50627  1.0000
  H   H1102     1.0  0.72959  0.71070  0.67420  1.0000
  H   H1103     1.0  0.73901  0.70079  0.64627  1.0000
  H   H1104     1.0  0.75423  0.63007  0.67165  1.0000
  H   H1105     1.0  0.73161  0.67417  0.61781  1.0000
  H   H1106     1.0  0.74722  0.60468  0.64230  1.0000
  H   H1107     1.0  0.73568  0.62623  0.61530  1.0000
  H   H1108     1.0  0.68328  0.83659  0.73854  1.0000
  H   H1109     1.0  0.65584  0.70803  0.50475  1.0000
  N   N59       1.0  0.75179  0.68329  0.68006  1.0000
  H   H1110     1.0  0.97557  0.74254  0.65268  1.0000
  N   N60       1.0  0.72187  0.63061  0.51732  1.0000
  C   C935      1.0  0.68995  0.89949  0.67559  1.0000
  H   H1111     1.0  0.72777  0.65396  0.54270  1.0000
  H   H1112     1.0  0.53336  0.57352  0.61631  1.0000
  H   H1113     1.0  0.64627  0.91604  0.64717  1.0000
  H   H1114     1.0  0.70093  0.88499  0.67638  1.0000
  C   C936      1.0  0.67854  0.93775  0.68912  1.0000
  C   C937      1.0  0.80995  0.84127  0.72461  1.0000
  H   H1115     1.0  0.96289  0.70293  0.62854  1.0000
  H   H1116     1.0  0.82898  0.67234  0.51139  1.0000
  H   H1117     1.0  0.60007  0.95186  0.52591  1.0000
  H   H1118     1.0  0.86941  0.85344  0.70976  1.0000
  H   H1119     1.0  0.96292  0.67593  0.69258  1.0000
  C   C938      1.0  0.78081  0.60497  0.53053  1.0000
  N   N61       1.0  0.64560  0.95677  0.67241  1.0000
  H   H1120     1.0  0.78218  0.66738  0.69162  1.0000
  C   C939      1.0  0.75153  0.63007  0.51914  1.0000
  H   H1121     1.0  0.95025  0.63633  0.66845  1.0000
  C   C940      1.0  0.75296  0.60549  0.52803  1.0000
  C   C941      1.0  0.96266  0.68192  0.67870  1.0000
  C   C942      1.0  0.66106  0.93741  0.67376  1.0000
  N   N62       1.0  0.56590  0.61879  0.62631  1.0000
  C   C943      1.0  0.59258  0.61306  0.62421  1.0000
  C   C944      1.0  0.53812  0.58860  0.62850  1.0000
  C   C945      1.0  0.56143  0.63214  0.60950  1.0000
  C   C946      1.0  0.57225  0.64033  0.64170  1.0000
  C   C947      1.0  0.55707  0.63098  0.65839  1.0000
  C   C948      1.0  0.59606  0.67114  0.64078  1.0000
  C   C949      1.0  0.56556  0.65127  0.67317  1.0000
  C   C950      1.0  0.60404  0.69129  0.65556  1.0000
  C   C951      1.0  0.58910  0.68129  0.67178  1.0000
  H   H1122     1.0  0.58868  0.59625  0.61317  1.0000
  H   H1123     1.0  0.61391  0.63438  0.62104  1.0000
  H   H1124     1.0  0.59719  0.60365  0.63667  1.0000
  H   H1125     1.0  0.49428  0.51795  0.57941  1.0000
  C   C952      1.0  0.57053  0.91621  0.50727  1.0000
  C   C953      1.0  0.98224  0.56567  0.50771  1.0000
  H   H1126     1.0  0.58258  0.65279  0.60537  1.0000
  H   H1127     1.0  0.55521  0.61562  0.59790  1.0000
  H   H1128     1.0  0.54281  0.63866  0.61093  1.0000
  H   H1129     1.0  0.53903  0.60795  0.66051  1.0000
  H   H1130     1.0  0.60975  0.67960  0.62888  1.0000
  H   H1131     1.0  0.55431  0.64356  0.68592  1.0000
  Fe  Fe132     1.0  0.76151  0.75686  0.73163  1.0000
  C   C954      1.0  0.64652  0.68497  0.49920  1.0000
  C   C955      1.0  0.65893  0.91737  0.65933  1.0000
  H   H1132     1.0  0.90183  0.56267  0.52221  1.0000
  C   C956      1.0  0.87124  0.91542  0.73188  1.0000
  H   H1133     1.0  0.54971  0.91284  0.51389  1.0000
  H   H1134     1.0  0.63797  0.99045  0.68729  1.0000
  C   C957      1.0  0.95548  0.65946  0.66494  1.0000
  H   H1135     1.0  0.64777  0.96076  0.51072  1.0000
  C   C958      1.0  0.69268  0.91902  0.68992  1.0000
  C   C959      1.0  0.98725  0.64952  0.51494  1.0000
  H   H1136     1.0  0.70581  0.91965  0.70183  1.0000
  C   C960      1.0  0.55071  0.49958  0.58980  1.0000
  H   H1137     1.0  0.77076  0.73016  0.67131  1.0000
  H   H1138     1.0  0.72587  0.64049  0.69383  1.0000
  H   H1139     1.0  0.66511  0.87550  0.73521  1.0000
  H   H1140     1.0  0.73904  0.67931  0.51359  1.0000
  C   C961      1.0  0.69934  0.86077  0.74012  1.0000
  H   H1141     1.0  0.91313  0.55517  0.50064  1.0000
  C   C962      1.0  0.90333  0.51136  0.52579  1.0000
  C   C963      1.0  0.62580  0.94309  0.50558  1.0000
  C   C964      1.0  0.89339  0.49709  0.57443  1.0000
  C   C965      1.0  0.90026  0.90021  0.70446  1.0000
  H   H1142     1.0  0.68171  0.95224  0.70078  1.0000
  H   H1143     1.0  0.70344  0.65747  0.68522  1.0000
  N   N63       1.0  0.86800  0.66593  0.62577  1.0000
  C   C966      1.0  0.85235  0.68266  0.61813  1.0000
  C   C967      1.0  0.88058  0.67966  0.64375  1.0000
  C   C968      1.0  0.89393  0.67125  0.61393  1.0000
  C   C969      1.0  0.84761  0.63245  0.62724  1.0000
  C   C970      1.0  0.85882  0.61353  0.63508  1.0000
  C   C971      1.0  0.81676  0.61753  0.62054  1.0000
  C   C972      1.0  0.84043  0.58176  0.63610  1.0000
  C   C973      1.0  0.79853  0.58571  0.62171  1.0000
  C   C974      1.0  0.81037  0.56786  0.62940  1.0000
  H   H1144     1.0  0.83233  0.67951  0.62630  1.0000
  H   H1145     1.0  0.86813  0.70779  0.61751  1.0000
  H   H1146     1.0  0.84436  0.67492  0.60403  1.0000
  H   H1147     1.0  0.86179  0.67472  0.65339  1.0000
  H   H1148     1.0  0.89518  0.70502  0.64322  1.0000
  H   H1149     1.0  0.89569  0.67084  0.64957  1.0000
  H   H1150     1.0  0.88542  0.66085  0.60040  1.0000
  H   H1151     1.0  0.90984  0.69612  0.61221  1.0000
  H   H1152     1.0  0.90793  0.66085  0.61916  1.0000
  H   H1153     1.0  0.88232  0.62299  0.63996  1.0000
  H   H1154     1.0  0.80635  0.62969  0.61387  1.0000
  H   H1155     1.0  0.84993  0.56779  0.64168  1.0000
  H   H1156     1.0  0.77531  0.57472  0.61615  1.0000
  H   H1157     1.0  0.79642  0.54313  0.62986  1.0000
  C   C975      1.0  0.72600  0.66271  0.69149  1.0000
  H   H1158     1.0  0.51730  0.59142  0.63072  1.0000
  C   C976      1.0  0.96236  0.69677  0.64245  1.0000
  H   H1159     1.0  0.88633  0.51406  0.53438  1.0000
  H   H1160     1.0  0.82979  0.62906  0.52721  1.0000
  C   C977      1.0  0.87625  0.87695  0.71377  1.0000
  N   N64       1.0  0.93121  0.54126  0.52305  1.0000
  H   H1161     1.0  0.62286  0.71444  0.65465  1.0000
  H   H1162     1.0  0.75442  0.72384  0.69319  1.0000
  H   H1163     1.0  0.96450  0.57748  0.54047  1.0000
  C   C978      1.0  0.94494  0.55384  0.54099  1.0000
  C   C979      1.0  0.80758  0.65352  0.51581  1.0000
  C   C980      1.0  0.92109  0.56223  0.51476  1.0000
  H   H1164     1.0  0.70694  0.61291  0.54389  1.0000
  C   C981      1.0  0.63248  0.63146  0.50275  1.0000
  H   H1165     1.0  0.54101  0.57549  0.63971  1.0000
  C   C982      1.0  0.74049  0.92378  0.74428  1.0000
  H   H1166     1.0  0.59959  0.95088  0.66927  1.0000
  H   H1167     1.0  0.86161  0.76546  0.70782  1.0000
  C   C983      1.0  0.83343  0.76196  0.73054  1.0000
  C   C984      1.0  0.61202  0.93700  0.66976  1.0000
  C   C985      1.0  0.80810  0.62906  0.52461  1.0000
  H   H1168     1.0  0.85260  0.82553  0.73446  1.0000
  C   C986      1.0  0.85990  0.76434  0.72227  1.0000
  H   H1169     1.0  0.90496  0.76785  0.72626  1.0000
  H   H1170     1.0  0.92793  0.55544  0.55006  1.0000
  H   H1171     1.0  0.65212  0.96469  0.64381  1.0000
  H   H1172     1.0  0.64108  0.96253  0.70088  1.0000
  C   C987      1.0  0.59892  0.93812  0.51415  1.0000
  H   H1173     1.0  0.67120  0.88355  0.64913  1.0000
  C   C988      1.0  0.65008  0.97638  0.68861  1.0000
  H   H1174     1.0  0.93977  0.58640  0.51468  1.0000
  H   H1175     1.0  0.68872  0.63353  0.53466  1.0000
  C   C989      1.0  0.96972  0.71927  0.65620  1.0000
  S   S264      1.0  0.98075  0.74199  0.69107  1.0000
  C   C990      1.0  0.77977  0.65413  0.51301  1.0000
  S   S265      1.0  0.94777  0.71903  0.74308  1.0000
  C   C991      1.0  0.86116  0.88382  0.72789  1.0000
  H   H1176     1.0  0.56710  0.98910  0.50114  1.0000
  H   H1177     1.0  0.80184  0.85649  0.71823  1.0000
  C   C992      1.0  0.69859  0.60197  0.50826  1.0000
  H   H1178     1.0  0.69263  0.58126  0.51639  1.0000
  C   C993      1.0  0.68910  0.88295  0.73827  1.0000
  S   S266      1.0  0.69503  0.94135  0.73809  1.0000
  C   C994      1.0  0.70955  0.91457  0.74034  1.0000
  S   S267      1.0  0.98635  0.64350  0.53855  1.0000
  C   C995      1.0  0.95439  0.53897  0.51153  1.0000
  C   C996      1.0  0.90978  0.93093  0.70882  1.0000
  H   H1179     1.0  0.92837  0.94892  0.70156  1.0000
  H   H1180     1.0  0.98705  0.58788  0.51326  1.0000
  H   H1181     1.0  0.78985  0.82301  0.73142  1.0000
  C   C997      1.0  0.89525  0.93851  0.72245  1.0000
  H   H1182     1.0  0.90257  0.96247  0.72571  1.0000
  N   N65       1.0  0.83571  0.85870  0.73744  1.0000
  H   H1183     1.0  0.89107  0.50092  0.51291  1.0000
  C   C998      1.0  0.73022  0.86994  0.74427  1.0000
  H   H1184     1.0  0.86087  0.92295  0.74217  1.0000
  Fe  Fe133     1.0  0.72676  0.79112  0.74371  1.0000
  H   H1185     1.0  0.68325  0.99119  0.65787  1.0000
  C   C999      1.0  0.84629  0.83756  0.74500  1.0000
  H   H1186     1.0  0.90896  0.49486  0.53286  1.0000
  H   H1187     1.0  0.67479  0.99306  0.69090  1.0000
  S   S268      1.0  0.74458  0.84319  0.74742  1.0000
  H   H1188     1.0  0.61001  0.62499  0.83983  1.0000
  C   C1000     1.0  0.99006  0.55215  0.97831  1.0000
  H   H1189     1.0  0.98411  0.72051  0.98616  1.0000
  C   C1001     1.0  0.69676  0.98335  0.81631  1.0000
  S   S269      1.0  0.98054  0.69020  0.78041  1.0000
  Fe  Fe134     1.0  0.71662  0.73179  0.76320  1.0000
  S   S270      1.0  0.71439  0.70316  0.78787  1.0000
  S   S271      1.0  0.75853  0.77697  0.75814  1.0000
  H   H1190     1.0  0.62068  0.56950  0.84893  1.0000
  H   H1191     1.0  0.74837  0.98718  0.78412  1.0000
  H   H1192     1.0  0.97754  0.60979  0.82711  1.0000
  Fe  Fe135     1.0  0.65965  0.65091  0.89022  1.0000
  S   S272      1.0  0.67895  0.61787  0.89039  1.0000
  S   S273      1.0  0.65273  0.67425  0.86546  1.0000
  Fe  Fe136     1.0  0.65044  0.64713  0.93180  1.0000
  S   S274      1.0  0.67015  0.61450  0.93452  1.0000
  S   S275      1.0  0.62410  0.65705  0.95392  1.0000
  Fe  Fe137     1.0  0.70592  0.64454  0.91482  1.0000
  S   S276      1.0  0.75824  0.66701  0.91648  1.0000
  Fe  Fe138     1.0  0.64125  0.59085  0.90995  1.0000
  S   S277      1.0  0.61290  0.53888  0.90800  1.0000
  S   S278      1.0  0.68816  0.67915  0.91381  1.0000
  S   S279      1.0  0.61998  0.62185  0.90800  1.0000
  Fe  Fe139     1.0  0.94820  0.64835  0.88808  1.0000
  S   S280      1.0  0.90391  0.60456  0.88566  1.0000
  H   H1193     1.0  0.69901  0.97556  0.77100  1.0000
  Fe  Fe140     1.0  0.95708  0.63760  0.92801  1.0000
  S   S281      1.0  0.91316  0.59294  0.92832  1.0000
  H   H1194     1.0  0.72496  0.72877  0.86019  1.0000
  Fe  Fe141     1.0  0.92701  0.58260  0.90158  1.0000
  S   S282      1.0  0.91190  0.53352  0.89191  1.0000
  Fe  Fe142     1.0  0.89202  0.61708  0.91241  1.0000
  S   S283      1.0  0.84046  0.59880  0.91575  1.0000
  H   H1195     1.0  0.52864  0.51910  0.97099  1.0000
  S   S284      1.0  0.93502  0.66297  0.91412  1.0000
  S   S285      1.0  0.68406  0.74671  0.75045  1.0000
  C   C1002     1.0  0.92722  0.50938  0.89900  1.0000
  H   H1196     1.0  0.81097  0.75863  0.75569  1.0000
  H   H1197     1.0  0.96468  0.54388  0.91471  1.0000
  N   N66       1.0  0.70737  0.97555  0.79942  1.0000
  H   H1198     1.0  0.62407  0.60089  0.98910  1.0000
  H   H1199     1.0  0.64905  0.94767  0.81309  1.0000
  H   H1200     1.0  0.70907  0.93667  0.78684  1.0000
  C   C1003     1.0  0.89989  0.52117  0.96031  1.0000
  C   C1004     1.0  0.78073  0.64766  0.91567  1.0000
  C   C1005     1.0  0.81300  0.66502  0.91553  1.0000
  C   C1006     1.0  0.83172  0.65052  0.91514  1.0000
  C   C1007     1.0  0.81827  0.61847  0.91514  1.0000
  C   C1008     1.0  0.78601  0.60114  0.91514  1.0000
  C   C1009     1.0  0.76730  0.61562  0.91530  1.0000
  H   H1201     1.0  0.82361  0.68982  0.91603  1.0000
  H   H1202     1.0  0.85650  0.66411  0.91532  1.0000
  H   H1203     1.0  0.77539  0.57634  0.91516  1.0000
  H   H1204     1.0  0.74253  0.60200  0.91545  1.0000
  C   C1010     1.0  0.63406  0.66726  0.97695  1.0000
  H   H1205     1.0  0.96304  0.53682  0.86866  1.0000
  H   H1206     1.0  0.56533  0.53342  0.87609  1.0000
  H   H1207     1.0  0.68184  0.67923  0.97469  1.0000
  C   C1011     1.0  0.55298  0.52791  0.96705  1.0000
  C   C1012     1.0  0.57252  0.51728  0.91060  1.0000
  H   H1208     1.0  0.80722  0.53718  0.93351  1.0000
  C   C1013     1.0  0.60111  0.57092  0.95996  1.0000
  C   C1014     1.0  0.55385  0.53144  0.91219  1.0000
  C   C1015     1.0  0.98914  0.57909  0.98301  1.0000
  H   H1209     1.0  0.56413  0.55620  0.91243  1.0000
  H   H1210     1.0  0.98607  0.50906  0.92307  1.0000
  S   S286      1.0  0.97267  0.62560  0.90198  1.0000
  C   C1016     1.0  0.85852  0.50825  0.93787  1.0000
  C   C1017     1.0  0.65475  0.97376  0.83704  1.0000
  H   H1211     1.0  0.59834  0.56215  0.94583  1.0000
  H   H1212     1.0  0.66594  0.96575  0.78432  1.0000
  H   H1213     1.0  0.84167  0.88285  0.76275  1.0000
  H   H1214     1.0  0.82193  0.52688  0.90498  1.0000
  H   H1215     1.0  0.66237  0.97014  0.95374  1.0000
  C   C1018     1.0  0.83138  0.76064  0.74922  1.0000
  C   C1019     1.0  0.98806  0.59520  0.83126  1.0000
  C   C1020     1.0  0.69612  0.69498  0.80913  1.0000
  C   C1021     1.0  0.68028  0.71013  0.81573  1.0000
  C   C1022     1.0  0.66705  0.70335  0.83292  1.0000
  C   C1023     1.0  0.66952  0.68147  0.84378  1.0000
  C   C1024     1.0  0.68485  0.66591  0.83706  1.0000
  C   C1025     1.0  0.69822  0.67280  0.81992  1.0000
  H   H1216     1.0  0.67836  0.72718  0.80763  1.0000
  H   H1217     1.0  0.65500  0.71536  0.83787  1.0000
  H   H1218     1.0  0.68627  0.64843  0.84497  1.0000
  H   H1219     1.0  0.71018  0.66074  0.81491  1.0000
  H   H1220     1.0  0.98532  0.54358  0.96456  1.0000
  H   H1221     1.0  0.61213  0.57171  0.87210  1.0000
  C   C1026     1.0  0.66880  0.96930  0.98239  1.0000
  H   H1222     1.0  0.59896  0.59191  0.82559  1.0000
  H   H1223     1.0  0.63285  0.60606  0.86005  1.0000
  H   H1224     1.0  0.77458  0.90905  0.74956  1.0000
  C   C1027     1.0  0.82630  0.53449  0.93990  1.0000
  N   N67       1.0  0.76162  0.71974  0.86935  1.0000
  C   C1028     1.0  0.74086  0.68620  0.86975  1.0000
  C   C1029     1.0  0.76168  0.73329  0.88727  1.0000
  C   C1030     1.0  0.74839  0.73297  0.85627  1.0000
  C   C1031     1.0  0.79307  0.72535  0.86495  1.0000
  C   C1032     1.0  0.80814  0.73979  0.84892  1.0000
  C   C1033     1.0  0.80938  0.71561  0.87675  1.0000
  C   C1034     1.0  0.83791  0.74467  0.84529  1.0000
  C   C1035     1.0  0.83910  0.72063  0.87301  1.0000
  C   C1036     1.0  0.85342  0.73530  0.85735  1.0000
  H   H1225     1.0  0.74789  0.67475  0.88016  1.0000
  H   H1226     1.0  0.71686  0.68101  0.87284  1.0000
  H   H1227     1.0  0.74056  0.67503  0.85664  1.0000
  H   H1228     1.0  0.76752  0.72193  0.89832  1.0000
  H   H1229     1.0  0.73862  0.73076  0.89058  1.0000
  H   H1230     1.0  0.77854  0.75816  0.88795  1.0000
  H   H1231     1.0  0.74557  0.72235  0.84264  1.0000
  H   H1232     1.0  0.76280  0.75828  0.85536  1.0000
  H   H1233     1.0  0.79744  0.74752  0.83896  1.0000
  H   H1234     1.0  0.79918  0.70390  0.88900  1.0000
  H   H1235     1.0  0.84906  0.75587  0.83304  1.0000
  H   H1236     1.0  0.85101  0.71304  0.88235  1.0000
  H   H1237     1.0  0.87648  0.73913  0.85450  1.0000
  H   H1238     1.0  0.50728  0.52455  0.91347  1.0000
  H   H1239     1.0  0.58790  0.65714  0.98387  1.0000
  H   H1240     1.0  0.87587  0.64457  0.78767  1.0000
  H   H1241     1.0  0.94772  0.63645  0.83767  1.0000
  H   H1242     1.0  0.81292  0.88374  0.74768  1.0000
  H   H1243     1.0  0.55324  0.56929  0.94355  1.0000
  C   C1037     1.0  0.84016  0.52264  0.91121  1.0000
  H   H1244     1.0  0.63070  0.96094  0.84049  1.0000
  H   H1245     1.0  0.53112  0.56788  0.96273  1.0000
  H   H1246     1.0  0.98378  0.59158  0.97289  1.0000
  C   C1038     1.0  0.69124  0.98061  0.78402  1.0000
  H   H1247     1.0  0.59763  0.97839  0.96768  1.0000
  H   H1248     1.0  0.55208  0.51939  0.95299  1.0000
  H   H1249     1.0  0.54627  0.55446  0.82248  1.0000
  C   C1039     1.0  0.97819  0.68915  0.80429  1.0000
  C   C1040     1.0  0.66399  0.67768  0.98361  1.0000
  C   C1041     1.0  0.61122  0.66551  0.98881  1.0000
  C   C1042     1.0  0.85610  0.76258  0.75962  1.0000
  H   H1250     1.0  0.71091  0.93767  0.81103  1.0000
  C   C1043     1.0  0.95346  0.52021  0.91002  1.0000
  H   H1251     1.0  0.86188  0.54461  0.91067  1.0000
  C   C1044     1.0  0.96786  0.65232  0.98353  1.0000
  H   H1252     1.0  0.86671  0.85006  0.75402  1.0000
  N   N68       1.0  0.57100  0.56191  0.96851  1.0000
  H   H1253     1.0  0.85468  0.76221  0.77409  1.0000
  C   C1045     1.0  0.96549  0.50041  0.91476  1.0000
  C   C1046     1.0  0.87585  0.52544  0.95319  1.0000
  N   N69       1.0  0.58451  0.58158  0.85303  1.0000
  C   C1047     1.0  0.59125  0.60121  0.83701  1.0000
  C   C1048     1.0  0.57456  0.59568  0.86749  1.0000
  C   C1049     1.0  0.56027  0.54950  0.84981  1.0000
  Fe  Fe143     1.0  0.95326  0.76443  0.75288  1.0000
  C   C1050     1.0  0.55291  0.52749  0.86346  1.0000
  N   N70       1.0  0.98992  0.59384  0.85106  1.0000
  C   C1051     1.0  0.55494  0.57557  0.95806  1.0000
  H   H1254     1.0  0.84321  0.50600  0.90237  1.0000
  H   H1255     1.0  0.57099  0.60386  0.83269  1.0000
  H   H1256     1.0  0.57109  0.58343  0.88037  1.0000
  H   H1257     1.0  0.59188  0.62009  0.87019  1.0000
  H   H1258     1.0  0.55241  0.59523  0.86388  1.0000
  H   H1259     1.0  0.61461  0.56167  0.96729  1.0000
  H   H1260     1.0  0.84647  0.55786  0.94006  1.0000
  H   H1261     1.0  0.94602  0.64342  0.97645  1.0000
  N   N71       1.0  0.89089  0.69153  0.79587  1.0000
  C   C1052     1.0  0.89710  0.66712  0.78829  1.0000
  C   C1053     1.0  0.86958  0.69542  0.78323  1.0000
  C   C1054     1.0  0.92006  0.72085  0.79642  1.0000
  C   C1055     1.0  0.87878  0.68328  0.81425  1.0000
  C   C1056     1.0  0.89708  0.67995  0.82795  1.0000
  C   C1057     1.0  0.84870  0.67760  0.81904  1.0000
  C   C1058     1.0  0.88611  0.67135  0.84529  1.0000
  C   C1059     1.0  0.83780  0.66875  0.83642  1.0000
  C   C1060     1.0  0.85643  0.66557  0.84950  1.0000
  C   C1061     1.0  0.66553  0.96637  0.82140  1.0000
  H   H1262     1.0  0.90658  0.67261  0.77450  1.0000
  H   H1263     1.0  0.91448  0.66412  0.79633  1.0000
  H   H1264     1.0  0.86473  0.71426  0.78778  1.0000
  H   H1265     1.0  0.84758  0.67384  0.78135  1.0000
  H   H1266     1.0  0.87970  0.70195  0.76964  1.0000
  H   H1267     1.0  0.92978  0.72743  0.78280  1.0000
  H   H1268     1.0  0.91658  0.74006  0.80190  1.0000
  H   H1269     1.0  0.93836  0.71968  0.80455  1.0000
  H   H1270     1.0  0.92009  0.68382  0.82531  1.0000
  H   H1271     1.0  0.83310  0.67967  0.80960  1.0000
  H   H1272     1.0  0.90076  0.66904  0.85547  1.0000
  H   H1273     1.0  0.81476  0.66437  0.83983  1.0000
  H   H1274     1.0  0.84789  0.65861  0.86294  1.0000
  C   C1062     1.0  0.88271  0.76525  0.75138  1.0000
  C   C1063     1.0  0.98758  0.71383  0.83389  1.0000
  C   C1064     1.0  0.52162  0.51344  0.91272  1.0000
  C   C1065     1.0  0.75066  0.90159  0.74633  1.0000
  C   C1066     1.0  0.70033  0.94280  0.79919  1.0000
  C   C1067     1.0  0.98669  0.54537  0.86483  1.0000
  C   C1068     1.0  0.61370  0.58214  0.85875  1.0000
  S   S287      1.0  0.91349  0.76874  0.76499  1.0000
  H   H1275     1.0  0.61508  0.59632  0.95929  1.0000
  H   H1276     1.0  0.98712  0.50574  0.87635  1.0000
  H   H1277     1.0  0.67524  0.92682  0.79921  1.0000
  N   N72       1.0  0.83286  0.51201  0.92993  1.0000
  H   H1278     1.0  0.95846  0.58120  0.87294  1.0000
  C   C1069     1.0  0.82351  0.86955  0.75251  1.0000
  H   H1279     1.0  0.97392  0.57185  0.82522  1.0000
  Fe  Fe144     1.0  0.98808  0.72976  0.76176  1.0000
  H   H1280     1.0  0.87167  0.54269  0.95977  1.0000
  H   H1281     1.0  0.91310  0.53487  0.97181  1.0000
  C   C1070     1.0  0.54249  0.53945  0.83364  1.0000
  H   H1282     1.0  0.56743  0.60113  0.95922  1.0000
  H   H1283     1.0  0.65633  0.94453  0.98238  1.0000
  H   H1284     1.0  0.80477  0.85001  0.75959  1.0000
  H   H1285     1.0  0.94923  0.59918  0.85515  1.0000
  H   H1286     1.0  0.92586  0.49640  0.95806  1.0000
  C   C1071     1.0  0.57376  0.57227  0.98753  1.0000
  C   C1072     1.0  0.51880  0.50925  0.83150  1.0000
  H   H1287     1.0  0.81956  0.52744  0.95397  1.0000
  S   S288      1.0  0.96990  0.68433  0.86616  1.0000
  C   C1073     1.0  0.95849  0.58309  0.85812  1.0000
  C   C1074     1.0  0.96346  0.66048  0.81271  1.0000
  H   H1288     1.0  0.50538  0.50200  0.81911  1.0000
  H   H1289     1.0  0.82797  0.81902  0.75286  1.0000
  C   C1075     1.0  0.52911  0.49748  0.86125  1.0000
  C   C1076     1.0  0.99016  0.71584  0.81503  1.0000
  H   H1290     1.0  0.52433  0.54904  0.99237  1.0000
  C   C1077     1.0  0.97263  0.68520  0.84230  1.0000
  C   C1078     1.0  0.90714  0.49958  0.95262  1.0000
  C   C1079     1.0  0.67220  0.98367  0.96591  1.0000
  H   H1291     1.0  0.61669  0.75944  0.98836  1.0000
  H   H1292     1.0  0.94173  0.56036  0.85227  1.0000
  H   H1293     1.0  0.95390  0.63968  0.80454  1.0000
  H   H1294     1.0  0.56329  0.51679  0.97566  1.0000
  C   C1080     1.0  0.96019  0.65852  0.83153  1.0000
  H   H1295     1.0  0.75457  0.99192  0.80788  1.0000
  H   H1296     1.0  0.75655  0.94796  0.74588  1.0000
