data_image0
_chemical_formula_structural       HNCFeS2HCSHC2SHS2HSNHCSH3NHSC2FeCH2SFeC2H2CHNH5CHCHC8H4S3CHCH2C9H4C2HC7H5CHC2H3C3H2CH3SNCHC3HCHCHCFe2H4CHCH3CSCSFeSCH3FeC3SCH2CHCHCNC9H14CH4FeCHSCH3CHNC9H14CH7CH2C3H2CH4FeC3H2C6HCHFeCH2C5NSCSH3C2HCHC2HSC2FeCH3SFeCSFeSHCS2FeS2FeS2FeSFeS3NH2SCHFeC2HSFeSH2C2SCHC2SC2H4Fe2CH3SHCH7C6H4C6H4C6H4C4H2C6H4CHC3NC2SCHCSCH2CH6C2HFeH2NCHC4HCH5CH3SH2SC2NCH2CH7CHC2HSH7NHC3HCHCH3CHFeCH2CH2CNSFeHCHSCHC2H2SH2C5HCSCHCH2CNHCH2C2NC9H12C2HFeCNC6H10C2HC3HCSCHCH4CSH3FeCHFeCH5CHSFeSFeSFeCS2HFeS2CHC2H2FeS2FeS2FeSFeS3FeSCFeS2FeSFeS3H2FeSCHS2H4C4HCHC3HFeC6H4C6H4C2H2C7H4CFeSC2SH2SH2CH2CH2SHCH6FeH3CNC5H8NH2C5FeH2CHSCHC2HCNC2HCH4C3HCNHNC6H10CH2FeH3CH5CHC2H3CH4C2HSCSHC2H2CHCH4NCH3C2HNC8H9C3H2C2HCNC2HCH5C2HC3SCHCH3CHC4H4CHSHCH2CH2C2H2CH2CHSCHC2H2CSHFeSH5FeCSFeC2S2FeCSFeHSCH2S2FeSCFeS2FeSFeHS2FeS2FeSHFeSFeS3C3H2C6H4CHFeHSC6H4C5H4C6H5CHSHCHCH2SC6HCH2CH2C2H4C3NC6NH13SC2H2C2HCHC5SC2H2NCNHSHC2H2C2HCHCH2CHS2HCHCH3C2SNCH8FeH2CHC2H3NSCHC4SHC2FeSNC4H10C3H2C2HCH2CH5C2H2C2H2CSFeHCSHCH3C2HCH3C3H12C2H2C2H2Fe3S2CHCH3FeHSHCFeHSFeS2FeHFeS2FeS2FeS2FeSFeS3C2HC2H2NHC6H6C6H4CHS3C6H4C2H2CH2SHCSC5H2C6HC2H3NCHC2H8C2H5SH5CNC3NC2HCNC9H14SC3H2C2HCH2CHCH4C2HSH3CSH3CNH5CNCHFe2H3C2H4C2HSH3C4SHC3HC2HCH5C5HC2H3FeHCFe2S2HSHSHFeSFeSHSFeSCFeSFeSFeS2FeS2FeSFeS3FeS2FeS2FeSFeS3FeS2FeSHFeSFeS3C6H4C3HCSHCHCFeCH2CSC5H2CH2C2HCHC2H4C6H4C6H11C7H6C2HSHC2HCHC2HC3H2CSC2HFeH3CH2NC9H14NC2HC3H7CH4C3H2NC9H14NH3C3H3CH2C3HCHCSHCHC2HCHCH2C2S2HNHC3H6CHC3NC8H12CHC6HCH2NC2HC2H5CHSHCH2CH2FeH4CHCH5CH2NC2FeH2C5HSH2FeSFeS2FeSCS2HCSHFeHCSC2H3CSH2CFeHS2HSC2HSH2CH4SH4C3HNHCFeHC2HSH3CSCH3CH4C3SHSCH3C2H3CFeH2C8H4C6H4C2H3CFeH2C6H4NHSCHCH3SHC2HC2HCH3CNC2H2CHFeNCHCHC2SCNC2H2CH2CH2CHCSH3CNC2HC6HC2H3C2HCH3CHFeH2FeH2CH2CHCHCHCFeH2SCHCHCNHCH2C3NC6HCSH4C2HCH3CHC3HCHC3H2CH3CSCH3SCHCH3CH4FeCHCHCH2SHSHSCHC4FeH2FeC2H2CHCH2CH2SCHFeS2FeS2FeSFeS3HC2FeCSCH2SH2SHSH4C8H2SCH2C6H4C6H4C6H4SH2NC6H4C2H3FeC2FeH5CSC3H3CHCHC2HSHC3FeCH2NC9H14NC9H20NHC5H2NH2CSFeSHCHSH4C2H2FeSHFeCH2SCH3FeSFeS2FeSHFeSFeS3FeS2FeS2FeSFeS3CFeSC4H3FeS2HFeSFeCS2HFeSCH3CH3CNHC3HFeC3H2SC3HC5H3CHC6H4C6H5CHC4H3SC2NC2HCHC6H8CH5CHS2HC2HSH4CHC2SC2H2SC2H3NC9H13C2NS2C2FeCHC2H5C2HFeCHNC9H13C2FeC2NC2HSCH4CHFeCHCHSC2NCHSH3CH5CHCH5CH3CHC4H2CH5C2H6SC3H2CH2C3NCH4CH2NCHSC2HCHCHSHC2HC2H5CH4CH3C2HCFeS2FeCHFeHFeCS2Fe2SFeHS3FeS2FeSHFeSFeS3FeS2FeS2FeSFeS4FeSHFeSFeS3HC6H5C2H2C2HCH2C6H4C2HCSC2H2CHC8H4C2FeC6SHC6H6CHCH5C2H2C2HCHCH3SHCHCFeCH2CHC2H2C2NHNH2C2H2CHCH11C3NC6H5NH2C2H2CH2C2H5CHCH2NCH2CSNHCNC8H10SHCHC2H3C2SCFeH3C3H3CHCH2SC2HCNCSCH3NC9H14C2HCHC3H3SH3CH2C2SHS2H6CFeH6C5H3FeSH3FeSCFeSHFeSFeS3FeS2FeS2FeSFeS3HCH3C3H3C3H4C8H4SC5H3C2HC6H4C3H4C4SH3C3H3NCH2SH3CH2C2HC2HCHFeH7C4H2SH2CHC3NC2H8CNC4HSHNHFeCH3C2HC3H5CSC3H2CH2CH9C2NC7H3CS2NHCHCHC2HCH2SH5CH2CH3CH3C4HFeHSCH2FeSHSH3CSCHC2FeS2FeS2FeSFeS3FeS2FeS2FeSFeS3FeCSFeS2FeHFeCS2HC2HCHFeH2C2HC3H2C4H3C6H8C6H4C2H2C6H6C2HC6H4CHC2FeH2C3HCH3FeHC2HC6H5NC9H16CHCH5C2H3CH2CH2CHCHCS2H5CHC2HCS2H2C2H2CHCNHC2H2C2HC2HC2HC3H2NSHCH2CSCN2C2H3CNH3NH2CH8CHCHCHCH4CHCHCHS2H4CNHC2HNHC2H2CH2SH4CHCSHCHC3H2NCNSH4C3SHC2HC2H2C2Fe2CSHS2H3C2SH5FeSCH2FeS2FeS2FeSFeS3FeS2FeS2FeSFeS3FeHSFeCSH3S4HNCHCNHCH2C3H2CHC2HNHC7H4C6H4C6H4C2SH4C7H5C2H3CHNC9H14CH3C3H2CH3C2HSCHSCHCHNC9H13CHCNC2HC3SHCNH3C4H2CH3C2H4SNC4HFeH2CH4C3HCHC4H3CH3CSHCSH2NCH3C2H5SH2C2FeH7C3HC2HSH2CHC2HCHC2H2C2HFeHCHC3HCH2CH4CHCFeC3H2CNH2CH4C2HCH6CHC2H2C4FeHCH2FeSC2FeSHSCFeSHFeSCFeSFeS2C2FeS2FeS2FeSFeS3HC3SH2C7H2CH3SCH3C6H6C4H4CH2C2SH2C6H4CH4CH2CHFeC2HC2SH2CHCHCH2CHC3H2CHCH2CHC4H4CHC3SH2C2H3CHCSC2HCH8C2H2CHC5H2CH7NHNHNC2H2CHCNC2HCHCH4CH5C2H2NH2CSFeHCH2NC2HC2HFeHS4CSFeC2H2SFeSCHFeS2FeS2FeSFeS3FeSHFeS2FeSFeS3FeS2FeS2FeSFeS2C3HCHC2H2C6H4C6H5CH2SHFeCHNHC6HC7H5C3NC4HCHC7H4NH2C3H2C2HC2HNCFeCH2SH3CSCNCH2S2CH4SCH2CH3CH3CHNC9H14NC9H14C5HCH3C3HCH3CHCHFeCH3C3H3CSH5C2H3C3H3CHSH2FeCHSH5FeHNHCHC2H2NC9H15SHCHCHCNH2C2HC2SHC3H2SH2S2HC3NH2CFeSH2CSNSCFeSCSFeSFeSFeS2FeS2FeSFeS3FeSCFeS2FeSFeSHSFeS2FeH5SCHC2H2C2H2CHCSC3H5C9H4C8H6C6H4CH2C3FeH2CH3NC5HCHC2H3CHCH4CH4SH2C5HCSCHC2H2SCNC7SH12C2HCH3CH3CNC2H2CHCFeHCH3C2H4CHCH2CHCH2CH4CHC5H2CNH2CH2CSCSCH2C2H2CHSCH2CH2C2H2C2HFeH4S2H2C3HCNCHCNC7H2C3H3CSHCHC2H3SFeSCH2C2SCH3CH3SHSNCFeCSH4SHFeS2FeS2FeSFeS3C2HCHCFeS2H3CFeS2FeSFeS2H3C2NHC2H5C6H4C6H5C4H4C7H5C2FeC6H4C2FeCHCSCHC2H4CHC2SCFeH3C2HNC9H17C2SH3CH2CH3CHC2SH5FeH2CNC2SH3CHC5H2NCH4CHCH3C2H2SC4HSH2C2HCH4C2HCHC2HC2H3C2H4C2HNSH2C2HCH2SNCSFeSCHSCHFeSHSFeS3HFeHCHSH2SCHSHC3H4CH2CHC2SC6H5CH5CSHC7H3FeCHC2FeC2H2CH2C3H5C7H4CHCHFeHNC2HC3FeC3H2SHC2H3C3H4FeCH2C3HCH5CH3C2H2CFeH2C2HS2CH6C2HC2HCH2FeHSHCH3SHCHC2H2NHCH2NCH2CHFeSHCHCH4CFeHCSHCNC6HCNH3CHC2H3S2HC4SH3CH3CH3CHC2FeH3C3HCH2CH2CHNHCSC4HCSHFeSCSCSH3FeSHFeS2FeSCHS2FeS2FeS2FeHS2FeS2FeS2FeSFeS3FeS2FeS2FeSFeS3HC2FeH2C6H4C3H7NCH2SH2CHCHC2HCHC3HC6H4C6H4C2H2NH2CSHC6H4C4HC2H2FeCH2CH2CFeCHCHCH6CSHCHC2HCH3C3HCNH2CH2SCHNCH2CH2CHCH3CH2SH6CHC2H2CH2NCNCH4CHC2H3NC9H14NC9H14CSCHCHSHNC5H4C3H3C5H2CH3FeH4NHCH2SH2CHC4HCH2SFeSH3SFeSHCFeS2FeS2FeSFeS3HNFeS2FeHSFeHFeS2HC7H4C6HCH5CHCHC2H2CNHC2HCSHC6H4CHC2HNC9H14NC4H2CH7CH3C2HCSH2CHCH2SH4CHSCSC2HCSH3CNHC2HCH7CH2NH2CH2C5HC2H4C2H3C2H3SFeC3HCH2SH5N2HC2H2CHSCHCH3C2HC2HCHSC2H2C3H3C2HCSH2CSHFeHFeHFeS2FeCS2H2CHFeSHCH3FeS2FeS2FeCFeHS2FeS2FeS2FeSFeS3FeS2FeSHFe2S3CH2CH2CH2C6H4C6H4CHCNCH2CSHCSH7C8H7CH2C10H6C3H2C3S2HCHC3H2SC2H4CFeHCH5CNC9H10NC5H10CHNC2HC2H3C4H3NH6NC4H2SH2C4HC3SH5FeH2CHCH3C3H6CHCH5CHC3HCHSCHCH2CHC4H4CNCHC4H3C2H3NH2FeH2C3HCHCSHCHSC2HCHCFeSFeS2FeSFeS2HSFeCH2CSFeSHSH2C2SFeS2FeS2FeSFeS3FeSHFeSCFeSHSHC3H2C6H6CHC6H4CHNHC2H2C2H2SCHSH10C8H4C6HC2HC3H2CHSH4CHC2HCHCHCH2C2H2C4H4FeHCH3C2HNC9H11C2H5CNHCH3NHC4H3C2SCH10C2HCH3CHCHCFeCFeCH2CNCH2C3HC2HNHC2H2C4HCH3NHCHCSHCHC3H6CH5CH2C2SH2CSH2SCHNSH3CH2CH2C2FeCSCH3C2H2CFeHCSCS2CHCSH3FeSH2FeHSFeSCS2HFeSFeSFeS2FeS2FeSFeS3CSCHCHFeS2FeS2CSC3HCH2CHC2HC6H4C4H2C6H4C6H4CSFe2CH2C6H4C2HFeH2NHC2H4FeSNS2CNC9H14NC9H14NH2SHC3H4CH2CSNH3C3HC4H2CSH2FeC2H2C2HCHC2H2NH2CHNC7H11CH2C3HCHSC2H4CHCHCH3CSH4CH3CHCHC2HCFeH3FeHCH2NFe2HSCFeCH2CSFeHSCH3SCHCHCH3SCS3HCHC5H2CHCH3CSHSHCH2CHC2HS2C6H4C2FeSHCHC6H9C2HFeC4H2C6H4CHCH3CNH2CH3CH2CNSH2C6HCH4CHCHCH3NHCHCHCHC3HCSCHCS2CH3C2SHCH2CH3C2H2CH13CHCNC2NH3NHC3H2CHCHCH2SHFeH3NH2C4SHFeH2CH2C7HCHSC2SH2C
_chemical_formula_sum              "H3456 N192 C2880 Fe384 S768"
_cell_length_a       72.7726
_cell_length_b       72.9579
_cell_length_c       73.0229
_cell_angle_alpha    78.2389
_cell_angle_beta     78.1134
_cell_angle_gamma    78.2895

_space_group_name_H-M_alt    "P 1"
_space_group_IT_number       1

loop_
  _space_group_symop_operation_xyz
  'x, y, z'

loop_
  _atom_site_type_symbol
  _atom_site_label
  _atom_site_symmetry_multiplicity
  _atom_site_fract_x
  _atom_site_fract_y
  _atom_site_fract_z
  _atom_site_occupancy
  H   H1        1.0  0.20500  0.16449  0.00373  1.0000
  N   N1        1.0  0.22568  0.45394  0.17641  1.0000
  C   C1        1.0  0.99471  0.01436  0.26036  1.0000
  Fe  Fe1       1.0  0.08066  0.45311  0.23796  1.0000
  S   S1        1.0  0.06618  0.42685  0.24251  1.0000
  S   S2        1.0  0.11218  0.44917  0.22639  1.0000
  H   H2        1.0  0.13534  0.30344  0.00083  1.0000
  C   C2        1.0  0.21095  0.40049  0.04085  1.0000
  S   S3        1.0  0.07585  0.00153  0.26140  1.0000
  H   H3        1.0  0.13415  0.37675  0.02831  1.0000
  C   C3        1.0  0.99800  0.00574  0.24438  1.0000
  C   C4        1.0  0.16496  0.44911  0.16779  1.0000
  S   S4        1.0  0.00431  0.39844  0.20810  1.0000
  H   H4        1.0  0.12270  0.45809  0.12307  1.0000
  S   S5        1.0  0.00412  0.30075  0.24445  1.0000
  S   S6        1.0  0.00395  0.34450  0.20356  1.0000
  H   H5        1.0  0.03397  0.17504  0.29403  1.0000
  S   S7        1.0  0.99231  0.15645  0.20689  1.0000
  N   N2        1.0  0.15484  0.35339  0.01885  1.0000
  H   H6        1.0  0.15970  0.37885  0.99867  1.0000
  C   C5        1.0  0.19504  0.97702  0.26581  1.0000
  S   S8        1.0  0.01185  0.25287  0.06275  1.0000
  H   H7        1.0  0.99017  0.29744  0.20862  1.0000
  H   H8        1.0  0.15428  0.43787  0.12422  1.0000
  H   H9        1.0  0.18058  0.28858  0.03322  1.0000
  N   N3        1.0  0.00749  0.27237  0.19924  1.0000
  H   H10       1.0  0.13383  0.33702  0.00133  1.0000
  S   S9        1.0  0.20928  0.33218  0.99579  1.0000
  C   C6        1.0  0.17139  0.47240  0.29454  1.0000
  C   C7        1.0  0.15776  0.29392  0.01730  1.0000
  Fe  Fe2       1.0  0.98663  0.24268  0.08365  1.0000
  C   C8        1.0  0.10086  0.41308  0.19864  1.0000
  H   H11       1.0  0.16711  0.37274  0.02984  1.0000
  H   H12       1.0  0.15873  0.27911  0.01633  1.0000
  S   S10       1.0  0.06167  0.21869  0.99083  1.0000
  Fe  Fe3       1.0  0.21427  0.45533  0.11302  1.0000
  C   C9        1.0  0.13003  0.41798  0.16612  1.0000
  C   C10       1.0  0.00555  0.23993  0.21881  1.0000
  H   H13       1.0  0.17140  0.43555  0.17488  1.0000
  H   H14       1.0  0.12460  0.36119  0.01830  1.0000
  C   C11       1.0  0.01443  0.98737  0.27601  1.0000
  H   H15       1.0  0.09953  0.45227  0.19087  1.0000
  N   N4        1.0  0.22694  0.97865  0.27426  1.0000
  H   H16       1.0  0.99342  0.27089  0.02256  1.0000
  H   H17       1.0  0.02117  0.26897  0.99786  1.0000
  H   H18       1.0  0.20648  0.46709  0.15676  1.0000
  H   H19       1.0  0.23408  0.15306  0.98236  1.0000
  H   H20       1.0  0.17929  0.32157  0.03497  1.0000
  C   C12       1.0  0.98466  0.17299  0.28947  1.0000
  H   H21       1.0  0.19960  0.18871  0.00726  1.0000
  C   C13       1.0  0.99065  0.14759  0.17226  1.0000
  H   H22       1.0  0.17390  0.44838  0.28062  1.0000
  C   C14       1.0  0.00607  0.25210  0.20091  1.0000
  C   C15       1.0  0.00274  0.22490  0.18747  1.0000
  C   C16       1.0  0.02542  0.24320  0.04273  1.0000
  C   C17       1.0  0.01969  0.22927  0.03560  1.0000
  C   C18       1.0  0.03102  0.22192  0.01974  1.0000
  C   C19       1.0  0.04808  0.22851  0.01073  1.0000
  C   C20       1.0  0.05376  0.24250  0.01782  1.0000
  C   C21       1.0  0.04245  0.24981  0.03372  1.0000
  H   H23       1.0  0.00647  0.22429  0.04210  1.0000
  H   H24       1.0  0.02646  0.21118  0.01427  1.0000
  H   H25       1.0  0.06684  0.24769  0.01104  1.0000
  H   H26       1.0  0.04697  0.26065  0.03907  1.0000
  S   S11       1.0  0.00683  0.05838  0.22803  1.0000
  S   S12       1.0  0.11904  0.21386  0.97886  1.0000
  S   S13       1.0  0.20645  0.12877  0.99199  1.0000
  C   C22       1.0  0.21994  0.39385  0.02383  1.0000
  H   H27       1.0  0.12858  0.01420  0.21859  1.0000
  C   C23       1.0  0.99303  0.26351  0.01127  1.0000
  H   H28       1.0  0.02721  0.15203  0.27778  1.0000
  H   H29       1.0  0.00370  0.21174  0.23463  1.0000
  C   C24       1.0  0.21482  0.03731  0.97226  1.0000
  C   C25       1.0  0.00918  0.26259  0.99705  1.0000
  C   C26       1.0  0.99189  0.30531  0.30018  1.0000
  C   C27       1.0  0.05639  0.01689  0.25210  1.0000
  C   C28       1.0  0.04719  0.03259  0.26085  1.0000
  C   C29       1.0  0.03196  0.04540  0.25376  1.0000
  C   C30       1.0  0.02587  0.04271  0.23768  1.0000
  C   C31       1.0  0.03505  0.02699  0.22895  1.0000
  C   C32       1.0  0.05008  0.01403  0.23620  1.0000
  H   H30       1.0  0.05190  0.03489  0.27320  1.0000
  H   H31       1.0  0.02500  0.05739  0.26065  1.0000
  H   H32       1.0  0.03040  0.02478  0.21654  1.0000
  H   H33       1.0  0.05671  0.00190  0.22945  1.0000
  C   C33       1.0  0.16525  0.46168  0.28371  1.0000
  C   C34       1.0  0.21962  0.01428  0.00704  1.0000
  H   H34       1.0  0.18689  0.98226  0.27838  1.0000
  C   C35       1.0  0.18855  0.14082  0.97877  1.0000
  C   C36       1.0  0.04868  0.41950  0.23285  1.0000
  C   C37       1.0  0.04430  0.40109  0.23955  1.0000
  C   C38       1.0  0.03076  0.39443  0.23230  1.0000
  C   C39       1.0  0.02141  0.40607  0.21808  1.0000
  C   C40       1.0  0.02589  0.42446  0.21127  1.0000
  C   C41       1.0  0.03933  0.43117  0.21863  1.0000
  H   H35       1.0  0.05137  0.39189  0.25056  1.0000
  H   H36       1.0  0.02756  0.38027  0.23773  1.0000
  H   H37       1.0  0.01870  0.43366  0.20035  1.0000
  H   H38       1.0  0.04225  0.44544  0.21343  1.0000
  H   H39       1.0  0.02035  0.98085  0.28865  1.0000
  C   C42       1.0  0.17005  0.29930  0.02677  1.0000
  H   H40       1.0  0.02250  0.27636  0.17033  1.0000
  C   C43       1.0  0.00951  0.28277  0.17937  1.0000
  C   C44       1.0  0.17327  0.45650  0.14935  1.0000
  H   H41       1.0  0.16500  0.35049  0.04529  1.0000
  H   H42       1.0  0.98625  0.02846  0.26026  1.0000
  H   H43       1.0  0.15009  0.17656  0.98107  1.0000
  C   C45       1.0  0.17462  0.15511  0.98604  1.0000
  C   C46       1.0  0.20365  0.02838  0.00590  1.0000
  C   C47       1.0  0.16917  0.31846  0.02760  1.0000
  H   H44       1.0  0.00153  0.19837  0.20678  1.0000
  H   H45       1.0  0.09595  0.45308  0.14887  1.0000
  C   C48       1.0  0.98688  0.18088  0.17414  1.0000
  H   H46       1.0  0.98866  0.27637  0.22572  1.0000
  H   H47       1.0  0.00745  0.19849  0.09278  1.0000
  H   H48       1.0  0.15907  0.41238  0.15147  1.0000
  S   S14       1.0  0.14045  0.45360  0.26407  1.0000
  N   N5        1.0  0.09558  0.42721  0.18199  1.0000
  C   C49       1.0  0.08026  0.42089  0.17546  1.0000
  H   H49       1.0  0.00242  0.26533  0.26991  1.0000
  C   C50       1.0  0.08787  0.44567  0.18858  1.0000
  C   C51       1.0  0.11173  0.42951  0.16608  1.0000
  C   C52       1.0  0.10943  0.44379  0.14991  1.0000
  H   H50       1.0  0.99692  0.28305  0.17286  1.0000
  C   C53       1.0  0.21146  0.17716  0.00345  1.0000
  H   H51       1.0  0.11210  0.41718  0.20453  1.0000
  C   C54       1.0  0.02986  0.14768  0.29225  1.0000
  H   H52       1.0  0.06793  0.41880  0.18718  1.0000
  C   C55       1.0  0.12460  0.44671  0.13499  1.0000
  Fe  Fe4       1.0  0.23076  0.10928  0.97739  1.0000
  Fe  Fe5       1.0  0.99028  0.32976  0.23164  1.0000
  H   H53       1.0  0.02600  0.28931  0.20526  1.0000
  H   H54       1.0  0.00398  0.25223  0.17121  1.0000
  H   H55       1.0  0.18483  0.46745  0.29953  1.0000
  H   H56       1.0  0.20655  0.97710  0.30043  1.0000
  C   C56       1.0  0.98524  0.17173  0.14453  1.0000
  H   H57       1.0  0.98608  0.19187  0.18227  1.0000
  C   C57       1.0  0.14375  0.32688  0.00905  1.0000
  H   H58       1.0  0.08010  0.45613  0.17830  1.0000
  H   H59       1.0  0.99196  0.01325  0.23198  1.0000
  H   H60       1.0  0.19327  0.03055  0.01857  1.0000
  C   C58       1.0  0.14454  0.30767  0.00859  1.0000
  S   S15       1.0  0.00297  0.10942  0.24395  1.0000
  C   C59       1.0  0.98981  0.16181  0.18283  1.0000
  S   S16       1.0  0.08403  0.46623  0.26245  1.0000
  Fe  Fe6       1.0  0.99050  0.08615  0.23731  1.0000
  S   S17       1.0  0.20926  0.37791  0.01522  1.0000
  C   C60       1.0  0.99943  0.27652  0.27833  1.0000
  H   H61       1.0  0.00148  0.21911  0.17532  1.0000
  H   H62       1.0  0.14161  0.45289  0.19102  1.0000
  H   H63       1.0  0.14943  0.36266  0.98998  1.0000
  Fe  Fe7       1.0  0.21900  0.36066  0.99070  1.0000
  C   C61       1.0  0.00397  0.22079  0.22082  1.0000
  C   C62       1.0  0.14800  0.45887  0.17694  1.0000
  C   C63       1.0  0.14504  0.42090  0.15100  1.0000
  S   S18       1.0  0.19355  0.44282  0.13787  1.0000
  C   C64       1.0  0.13524  0.36157  0.02711  1.0000
  H   H64       1.0  0.00044  0.01208  0.28847  1.0000
  H   H65       1.0  0.13079  0.35364  0.04157  1.0000
  C   C65       1.0  0.02424  0.27417  0.20703  1.0000
  H   H66       1.0  0.18883  0.05092  0.98772  1.0000
  C   C66       1.0  0.15598  0.33290  0.01865  1.0000
  H   H67       1.0  0.20162  0.44458  0.19660  1.0000
  C   C67       1.0  0.14237  0.43530  0.13556  1.0000
  N   N6        1.0  0.03777  0.18917  0.08856  1.0000
  C   C68       1.0  0.04184  0.20715  0.09219  1.0000
  C   C69       1.0  0.01925  0.19312  0.08190  1.0000
  C   C70       1.0  0.03572  0.17596  0.10700  1.0000
  C   C71       1.0  0.05283  0.18156  0.07369  1.0000
  C   C72       1.0  0.05759  0.19319  0.05587  1.0000
  C   C73       1.0  0.06263  0.16249  0.07604  1.0000
  C   C74       1.0  0.07125  0.18623  0.04133  1.0000
  C   C75       1.0  0.07637  0.15569  0.06141  1.0000
  C   C76       1.0  0.08065  0.16753  0.04410  1.0000
  H   H68       1.0  0.04044  0.21898  0.07996  1.0000
  H   H69       1.0  0.13327  0.40685  0.17778  1.0000
  H   H70       1.0  0.05650  0.20523  0.09534  1.0000
  H   H71       1.0  0.01911  0.20405  0.06890  1.0000
  H   H72       1.0  0.02288  0.26896  0.22258  1.0000
  H   H73       1.0  0.01573  0.18008  0.07870  1.0000
  H   H74       1.0  0.04925  0.17215  0.11279  1.0000
  H   H75       1.0  0.02455  0.18233  0.11795  1.0000
  H   H76       1.0  0.03093  0.16277  0.10574  1.0000
  H   H77       1.0  0.05061  0.20773  0.05290  1.0000
  H   H78       1.0  0.05985  0.15249  0.08897  1.0000
  H   H79       1.0  0.07443  0.19538  0.02773  1.0000
  H   H80       1.0  0.08368  0.14110  0.06343  1.0000
  H   H81       1.0  0.09119  0.16220  0.03272  1.0000
  C   C77       1.0  0.99006  0.28196  0.21023  1.0000
  H   H82       1.0  0.18315  0.35213  0.02432  1.0000
  H   H83       1.0  0.10573  0.39856  0.19509  1.0000
  H   H84       1.0  0.17465  0.15829  0.99985  1.0000
  H   H85       1.0  0.17389  0.35733  0.99221  1.0000
  Fe  Fe8       1.0  0.11499  0.46451  0.24919  1.0000
  C   C78       1.0  0.16803  0.35724  0.03014  1.0000
  H   H86       1.0  0.98623  0.18474  0.27787  1.0000
  S   S19       1.0  0.99049  0.23042  0.11378  1.0000
  C   C79       1.0  0.00283  0.00517  0.27617  1.0000
  H   H87       1.0  0.20832  0.46745  0.20934  1.0000
  H   H88       1.0  0.20783  0.43376  0.17601  1.0000
  H   H89       1.0  0.07756  0.44407  0.20216  1.0000
  C   C80       1.0  0.99946  0.29544  0.26935  1.0000
  H   H90       1.0  0.07456  0.43138  0.16378  1.0000
  N   N7        1.0  0.10435  0.02689  0.20476  1.0000
  C   C81       1.0  0.09857  0.00825  0.20626  1.0000
  C   C82       1.0  0.11723  0.03084  0.18633  1.0000
  C   C83       1.0  0.11554  0.02522  0.22009  1.0000
  C   C84       1.0  0.08717  0.04181  0.20583  1.0000
  C   C85       1.0  0.07546  0.04572  0.19168  1.0000
  C   C86       1.0  0.08124  0.05245  0.22096  1.0000
  C   C87       1.0  0.05900  0.05952  0.19252  1.0000
  C   C88       1.0  0.06485  0.06633  0.22154  1.0000
  C   C89       1.0  0.05376  0.06985  0.20738  1.0000
  H   H91       1.0  0.09091  0.00777  0.19472  1.0000
  H   H92       1.0  0.11111  0.99669  0.20544  1.0000
  H   H93       1.0  0.08916  0.00461  0.22003  1.0000
  H   H94       1.0  0.11072  0.03016  0.17404  1.0000
  H   H95       1.0  0.12158  0.43315  0.30131  1.0000
  H   H96       1.0  0.12125  0.04514  0.18420  1.0000
  H   H97       1.0  0.10716  0.02078  0.23438  1.0000
  H   H98       1.0  0.19186  0.21074  0.98128  1.0000
  H   H99       1.0  0.12032  0.03882  0.21989  1.0000
  H   H100      1.0  0.07871  0.03783  0.18007  1.0000
  H   H101      1.0  0.08869  0.05001  0.23280  1.0000
  H   H102      1.0  0.04996  0.06193  0.18189  1.0000
  H   H103      1.0  0.06027  0.07394  0.23344  1.0000
  H   H104      1.0  0.04066  0.08011  0.20833  1.0000
  C   C90       1.0  0.15956  0.36353  0.99915  1.0000
  H   H105      1.0  0.19798  0.39562  0.04855  1.0000
  H   H106      1.0  0.08552  0.40716  0.17018  1.0000
  H   H107      1.0  0.03168  0.21238  0.10439  1.0000
  H   H108      1.0  0.21143  0.41828  0.06117  1.0000
  H   H109      1.0  0.08850  0.41187  0.21045  1.0000
  H   H110      1.0  0.13058  0.02012  0.18544  1.0000
  H   H111      1.0  0.01055  0.29798  0.17859  1.0000
  C   C91       1.0  0.99508  0.27207  0.29821  1.0000
  H   H112      1.0  0.18241  0.26586  0.97551  1.0000
  H   H113      1.0  0.20606  0.00057  0.28625  1.0000
  C   C92       1.0  0.21310  0.47067  0.16773  1.0000
  C   C93       1.0  0.00432  0.24405  0.18528  1.0000
  C   C94       1.0  0.21857  0.41338  0.04808  1.0000
  H   H114      1.0  0.99632  0.23649  0.96983  1.0000
  H   H115      1.0  0.23223  0.44132  0.15092  1.0000
  C   C95       1.0  0.21399  0.43918  0.18625  1.0000
  H   H116      1.0  0.03761  0.26622  0.19993  1.0000
  H   H117      1.0  0.00618  0.24520  0.23145  1.0000
  H   H118      1.0  0.02453  0.11935  0.29416  1.0000
  H   H119      1.0  0.22270  0.42684  0.19398  1.0000
  Fe  Fe9       1.0  0.99032  0.37160  0.21487  1.0000
  C   C96       1.0  0.21546  0.98705  0.29080  1.0000
  C   C97       1.0  0.20120  0.03983  0.98853  1.0000
  C   C98       1.0  0.00268  0.21326  0.20516  1.0000
  H   H120      1.0  0.02330  0.25146  0.97173  1.0000
  H   H121      1.0  0.22220  0.03531  0.05759  1.0000
  C   C99       1.0  0.22360  0.46673  0.20641  1.0000
  C   C100      1.0  0.02834  0.12923  0.30146  1.0000
  C   C101      1.0  0.14800  0.46803  0.27684  1.0000
  C   C102      1.0  0.21090  0.18688  0.96979  1.0000
  C   C103      1.0  0.99568  0.30984  0.28030  1.0000
  C   C104      1.0  0.16474  0.47395  0.14022  1.0000
  H   H122      1.0  0.99306  0.13281  0.17883  1.0000
  C   C105      1.0  0.16062  0.16542  0.97547  1.0000
  H   H123      1.0  0.99603  0.32441  0.27346  1.0000
  Fe  Fe10      1.0  0.08964  0.22471  0.97150  1.0000
  C   C106      1.0  0.98867  0.15255  0.15302  1.0000
  H   H124      1.0  0.98941  0.14155  0.14482  1.0000
  H   H125      1.0  0.19163  0.29735  0.97305  1.0000
  C   C107      1.0  0.00977  0.98804  0.24395  1.0000
  C   C108      1.0  0.23398  0.02814  0.04853  1.0000
  C   C109      1.0  0.99527  0.24413  0.98139  1.0000
  C   C110      1.0  0.01042  0.25271  0.98230  1.0000
  C   C111      1.0  0.98429  0.18587  0.15516  1.0000
  N   N8        1.0  0.22310  0.18249  0.98459  1.0000
  S   S20       1.0  0.23214  0.99759  0.07756  1.0000
  C   C112      1.0  0.01864  0.97843  0.25972  1.0000
  S   S21       1.0  0.21167  0.46981  0.08304  1.0000
  H   H126      1.0  0.22029  0.21151  0.98900  1.0000
  H   H127      1.0  0.22465  0.99044  0.29970  1.0000
  H   H128      1.0  0.22015  0.17350  0.01498  1.0000
  C   C113      1.0  0.23180  0.47307  0.21917  1.0000
  C   C114      1.0  0.23135  0.19946  0.98481  1.0000
  H   H129      1.0  0.01199  0.98242  0.23096  1.0000
  C   C115      1.0  0.17818  0.29648  0.96942  1.0000
  H   H130      1.0  0.23081  0.00544  0.25643  1.0000
  C   C116      1.0  0.17287  0.27862  0.97086  1.0000
  C   C117      1.0  0.19527  0.20214  0.97023  1.0000
  H   H131      1.0  0.22164  0.00561  0.02068  1.0000
  S   S22       1.0  0.22859  0.08151  0.96963  1.0000
  C   C118      1.0  0.23152  0.02337  0.97297  1.0000
  C   C119      1.0  0.23342  0.01175  0.99090  1.0000
  Fe  Fe11      1.0  0.98429  0.12914  0.22471  1.0000
  C   C120      1.0  0.03380  0.16081  0.30184  1.0000
  H   H132      1.0  0.20981  0.42728  0.61733  1.0000
  H   H133      1.0  0.22086  0.03678  0.44624  1.0000
  H   H134      1.0  0.16566  0.08670  0.45006  1.0000
  S   S23       1.0  0.19381  0.43146  0.37994  1.0000
  Fe  Fe12      1.0  0.18405  0.33107  0.49270  1.0000
  C   C121      1.0  0.02434  0.28868  0.57498  1.0000
  S   S24       1.0  0.15599  0.32016  0.50017  1.0000
  Fe  Fe13      1.0  0.20236  0.35214  0.51462  1.0000
  S   S25       1.0  0.19070  0.36978  0.53808  1.0000
  H   H135      1.0  0.02820  0.24697  0.60568  1.0000
  C   C122      1.0  0.13926  0.36600  0.59324  1.0000
  S   S26       1.0  0.18691  0.36166  0.48975  1.0000
  S   S27       1.0  0.19781  0.32220  0.51853  1.0000
  Fe  Fe14      1.0  0.11640  0.25012  0.46175  1.0000
  S   S28       1.0  0.13283  0.22854  0.48143  1.0000
  S   S29       1.0  0.12659  0.27758  0.44720  1.0000
  Fe  Fe15      1.0  0.08739  0.22467  0.46226  1.0000
  S   S30       1.0  0.10182  0.20073  0.48224  1.0000
  S   S31       1.0  0.05867  0.22680  0.45275  1.0000
  Fe  Fe16      1.0  0.10414  0.22359  0.49804  1.0000
  S   S32       1.0  0.09993  0.21833  0.53032  1.0000
  Fe  Fe17      1.0  0.12954  0.20755  0.46424  1.0000
  S   S33       1.0  0.15670  0.18960  0.45167  1.0000
  S   S34       1.0  0.08779  0.24700  0.47961  1.0000
  S   S35       1.0  0.11497  0.22967  0.44316  1.0000
  N   N9        1.0  0.04007  0.16930  0.33196  1.0000
  H   H136      1.0  0.19199  0.37992  0.43512  1.0000
  H   H137      1.0  0.17987  0.41965  0.59599  1.0000
  S   S36       1.0  0.19227  0.10767  0.49022  1.0000
  C   C123      1.0  0.04188  0.18838  0.32048  1.0000
  H   H138      1.0  0.17917  0.44121  0.34694  1.0000
  Fe  Fe18      1.0  0.22518  0.98343  0.37366  1.0000
  C   C124      1.0  0.19857  0.27760  0.49876  1.0000
  C   C125      1.0  0.04808  0.27456  0.37457  1.0000
  H   H139      1.0  0.13594  0.41973  0.36710  1.0000
  S   S37       1.0  0.21836  0.99384  0.34419  1.0000
  Fe  Fe19      1.0  0.00433  0.21658  0.37069  1.0000
  S   S38       1.0  0.03250  0.20567  0.38188  1.0000
  H   H140      1.0  0.14498  0.42460  0.32242  1.0000
  H   H141      1.0  0.14572  0.47000  0.36000  1.0000
  C   C126      1.0  0.22914  0.20078  0.46295  1.0000
  C   C127      1.0  0.21054  0.45121  0.58433  1.0000
  S   S39       1.0  0.00840  0.22751  0.33918  1.0000
  C   C128      1.0  0.03158  0.25320  0.53329  1.0000
  H   H142      1.0  0.17866  0.40278  0.40894  1.0000
  C   C129      1.0  0.14440  0.35800  0.57669  1.0000
  C   C130      1.0  0.19285  0.40299  0.41114  1.0000
  S   S40       1.0  0.07502  0.28514  0.57896  1.0000
  C   C131      1.0  0.21150  0.36519  0.59437  1.0000
  C   C132      1.0  0.03657  0.15565  0.32107  1.0000
  H   H143      1.0  0.20589  0.24221  0.51850  1.0000
  H   H144      1.0  0.01029  0.17670  0.34242  1.0000
  H   H145      1.0  0.14405  0.28258  0.55008  1.0000
  H   H146      1.0  0.04474  0.19819  0.32906  1.0000
  Fe  Fe20      1.0  0.07628  0.28342  0.61009  1.0000
  Fe  Fe21      1.0  0.21540  0.35367  0.47178  1.0000
  C   C133      1.0  0.18450  0.43358  0.59456  1.0000
  H   H147      1.0  0.22550  0.05473  0.55708  1.0000
  H   H148      1.0  0.16336  0.23671  0.50530  1.0000
  H   H149      1.0  0.15461  0.31468  0.56827  1.0000
  S   S41       1.0  0.07388  0.31243  0.61748  1.0000
  H   H150      1.0  0.17340  0.27447  0.47684  1.0000
  C   C134      1.0  0.02399  0.17187  0.34786  1.0000
  H   H151      1.0  0.06059  0.21702  0.55558  1.0000
  H   H152      1.0  0.16041  0.31797  0.54270  1.0000
  H   H153      1.0  0.02095  0.30688  0.62397  1.0000
  H   H154      1.0  0.22315  0.39995  0.52489  1.0000
  H   H155      1.0  0.99305  0.27423  0.57566  1.0000
  H   H156      1.0  0.14898  0.37339  0.59717  1.0000
  H   H157      1.0  0.04831  0.23436  0.58169  1.0000
  C   C135      1.0  0.05196  0.22099  0.43268  1.0000
  C   C136      1.0  0.03268  0.22561  0.43051  1.0000
  C   C137      1.0  0.02656  0.22137  0.41493  1.0000
  C   C138      1.0  0.03964  0.21225  0.40132  1.0000
  C   C139      1.0  0.05894  0.20768  0.40345  1.0000
  C   C140      1.0  0.06511  0.21214  0.41892  1.0000
  H   H158      1.0  0.02235  0.23245  0.44103  1.0000
  H   H159      1.0  0.01165  0.22488  0.41363  1.0000
  H   H160      1.0  0.06921  0.20057  0.39309  1.0000
  H   H161      1.0  0.07997  0.20846  0.42035  1.0000
  C   C141      1.0  0.09388  0.23719  0.54350  1.0000
  C   C142      1.0  0.09398  0.23315  0.56316  1.0000
  C   C143      1.0  0.08851  0.24771  0.57423  1.0000
  C   C144      1.0  0.08277  0.26641  0.56569  1.0000
  C   C145      1.0  0.08276  0.27045  0.54603  1.0000
  C   C146      1.0  0.08840  0.25594  0.53495  1.0000
  H   H162      1.0  0.09821  0.21866  0.56987  1.0000
  H   H163      1.0  0.08860  0.24443  0.58934  1.0000
  H   H164      1.0  0.07836  0.28490  0.53931  1.0000
  H   H165      1.0  0.08824  0.25922  0.51985  1.0000
  C   C147      1.0  0.16659  0.16726  0.46333  1.0000
  C   C148      1.0  0.15611  0.15714  0.47895  1.0000
  C   C149      1.0  0.16420  0.13891  0.48721  1.0000
  C   C150      1.0  0.18289  0.13088  0.48010  1.0000
  C   C151      1.0  0.19352  0.14117  0.46476  1.0000
  C   C152      1.0  0.18531  0.15922  0.45629  1.0000
  H   H166      1.0  0.14166  0.16322  0.48441  1.0000
  H   H167      1.0  0.15590  0.13101  0.49906  1.0000
  H   H168      1.0  0.20796  0.13515  0.45926  1.0000
  H   H169      1.0  0.19345  0.16701  0.44419  1.0000
  C   C153      1.0  0.19884  0.36705  0.55984  1.0000
  C   C154      1.0  0.18824  0.37790  0.57349  1.0000
  C   C155      1.0  0.19436  0.37673  0.59079  1.0000
  C   C156      1.0  0.21568  0.35498  0.56362  1.0000
  H   H170      1.0  0.17530  0.38741  0.57058  1.0000
  H   H171      1.0  0.18603  0.38508  0.60115  1.0000
  C   C157      1.0  0.13524  0.28900  0.46193  1.0000
  C   C158      1.0  0.14797  0.30177  0.45388  1.0000
  C   C159      1.0  0.15481  0.31116  0.46547  1.0000
  C   C160      1.0  0.14846  0.30823  0.48510  1.0000
  C   C161      1.0  0.13557  0.29564  0.49308  1.0000
  C   C162      1.0  0.12928  0.28576  0.48160  1.0000
  H   H172      1.0  0.15258  0.30435  0.43865  1.0000
  H   H173      1.0  0.16462  0.32097  0.45919  1.0000
  H   H174      1.0  0.13043  0.29346  0.50821  1.0000
  H   H175      1.0  0.11941  0.27601  0.48793  1.0000
  C   C163      1.0  0.20361  0.41611  0.39907  1.0000
  H   H176      1.0  0.99452  0.27578  0.59942  1.0000
  C   C164      1.0  0.21902  0.02062  0.42507  1.0000
  C   C165      1.0  0.20272  0.24361  0.50393  1.0000
  C   C166      1.0  0.20036  0.39000  0.42603  1.0000
  N   N10       1.0  0.20209  0.07646  0.54918  1.0000
  C   C167      1.0  0.21182  0.06273  0.56367  1.0000
  C   C168      1.0  0.19948  0.06561  0.53503  1.0000
  S   S42       1.0  0.23125  0.34609  0.49668  1.0000
  C   C169      1.0  0.18352  0.08701  0.55714  1.0000
  H   H177      1.0  0.15366  0.09411  0.59911  1.0000
  C   C170      1.0  0.17226  0.10012  0.54493  1.0000
  S   S43       1.0  0.22686  0.47333  0.36571  1.0000
  C   C171      1.0  0.15489  0.11062  0.55205  1.0000
  H   H178      1.0  0.19710  0.23069  0.50338  1.0000
  H   H179      1.0  0.20292  0.05191  0.57144  1.0000
  C   C172      1.0  0.22789  0.01381  0.40811  1.0000
  H   H180      1.0  0.21131  0.40610  0.60798  1.0000
  H   H181      1.0  0.18896  0.05594  0.54135  1.0000
  H   H182      1.0  0.22920  0.08266  0.53373  1.0000
  H   H183      1.0  0.19447  0.07500  0.52236  1.0000
  H   H184      1.0  0.20947  0.10006  0.52743  1.0000
  H   H185      1.0  0.13475  0.11664  0.57698  1.0000
  C   C173      1.0  0.21499  0.09014  0.53958  1.0000
  C   C174      1.0  0.03095  0.12372  0.32028  1.0000
  H   H186      1.0  0.17690  0.10256  0.52972  1.0000
  Fe  Fe22      1.0  0.09742  0.29881  0.63386  1.0000
  H   H187      1.0  0.14666  0.12064  0.54236  1.0000
  H   H188      1.0  0.99148  0.30356  0.61360  1.0000
  N   N11       1.0  0.19291  0.09070  0.43268  1.0000
  C   C175      1.0  0.20278  0.10721  0.42437  1.0000
  H   H189      1.0  0.23044  0.41979  0.60099  1.0000
  C   C176      1.0  0.20293  0.07853  0.44771  1.0000
  C   C177      1.0  0.19324  0.07933  0.41794  1.0000
  C   C178      1.0  0.21075  0.07283  0.40655  1.0000
  C   C179      1.0  0.04472  0.23655  0.53600  1.0000
  H   H190      1.0  0.01376  0.27613  0.54544  1.0000
  C   C180      1.0  0.21163  0.06113  0.39333  1.0000
  H   H191      1.0  0.20333  0.27717  0.51242  1.0000
  H   H192      1.0  0.15599  0.41307  0.34924  1.0000
  H   H193      1.0  0.19656  0.11593  0.41202  1.0000
  H   H194      1.0  0.20169  0.11666  0.43491  1.0000
  H   H195      1.0  0.02496  0.27067  0.61000  1.0000
  C   C181      1.0  0.04293  0.24010  0.56862  1.0000
  H   H196      1.0  0.17373  0.10736  0.45237  1.0000
  H   H197      1.0  0.20265  0.08627  0.45942  1.0000
  H   H198      1.0  0.16834  0.33254  0.55532  1.0000
  S   S44       1.0  0.22964  0.37283  0.44635  1.0000
  H   H199      1.0  0.21520  0.20844  0.46049  1.0000
  H   H200      1.0  0.02738  0.25828  0.51947  1.0000
  S   S45       1.0  0.98807  0.19788  0.31155  1.0000
  C   C182      1.0  0.17340  0.09828  0.44187  1.0000
  C   C183      1.0  0.17130  0.26085  0.51356  1.0000
  N   N12       1.0  0.02173  0.26858  0.58172  1.0000
  C   C184      1.0  0.03076  0.26155  0.59891  1.0000
  H   H201      1.0  0.05706  0.14861  0.35029  1.0000
  H   H202      1.0  0.20511  0.01736  0.43186  1.0000
  C   C185      1.0  0.02973  0.25734  0.56626  1.0000
  H   H203      1.0  0.20313  0.46095  0.57330  1.0000
  H   H204      1.0  0.16281  0.07720  0.42346  1.0000
  H   H205      1.0  0.04640  0.26153  0.59543  1.0000
  H   H206      1.0  0.07026  0.15912  0.32841  1.0000
  H   H207      1.0  0.20660  0.45793  0.59735  1.0000
  H   H208      1.0  0.16000  0.41928  0.37007  1.0000
  H   H209      1.0  0.17298  0.28473  0.52697  1.0000
  C   C186      1.0  0.99072  0.30686  0.62751  1.0000
  H   H210      1.0  0.02076  0.29707  0.58677  1.0000
  C   C187      1.0  0.15012  0.42298  0.35952  1.0000
  C   C188      1.0  0.15969  0.24702  0.51475  1.0000
  H   H211      1.0  0.17629  0.44401  0.58463  1.0000
  S   S46       1.0  0.21133  0.32344  0.47263  1.0000
  H   H212      1.0  0.17111  0.43848  0.32633  1.0000
  H   H213      1.0  0.02845  0.19536  0.31510  1.0000
  H   H214      1.0  0.21564  0.07002  0.57401  1.0000
  H   H215      1.0  0.19625  0.06571  0.45399  1.0000
  H   H216      1.0  0.11806  0.37005  0.61799  1.0000
  H   H217      1.0  0.19754  0.26430  0.46881  1.0000
  H   H218      1.0  0.15575  0.45008  0.37527  1.0000
  N   N13       1.0  0.14876  0.44325  0.35032  1.0000
  H   H219      1.0  0.13075  0.45361  0.37473  1.0000
  C   C189      1.0  0.22209  0.35423  0.58076  1.0000
  C   C190      1.0  0.14492  0.45477  0.36572  1.0000
  C   C191      1.0  0.13413  0.44837  0.33788  1.0000
  H   H220      1.0  0.99855  0.25296  0.59222  1.0000
  C   C192      1.0  0.00108  0.26788  0.58748  1.0000
  H   H221      1.0  0.22033  0.17343  0.46837  1.0000
  C   C193      1.0  0.00737  0.30878  0.63336  1.0000
  H   H222      1.0  0.18897  0.29132  0.49538  1.0000
  H   H223      1.0  0.03654  0.13182  0.34468  1.0000
  H   H224      1.0  0.21166  0.27784  0.48773  1.0000
  C   C194      1.0  0.16527  0.27359  0.52686  1.0000
  H   H225      1.0  0.16521  0.05637  0.40075  1.0000
  Fe  Fe23      1.0  0.22532  0.31657  0.49849  1.0000
  C   C195      1.0  0.05789  0.16196  0.33988  1.0000
  H   H226      1.0  0.22397  0.34660  0.55318  1.0000
  H   H227      1.0  0.22614  0.45063  0.57931  1.0000
  C   C196      1.0  0.18488  0.26231  0.48005  1.0000
  H   H228      1.0  0.23046  0.42606  0.39282  1.0000
  H   H229      1.0  0.17988  0.43842  0.60858  1.0000
  C   C197      1.0  0.22786  0.03178  0.43321  1.0000
  N   N14       1.0  0.20543  0.43196  0.58820  1.0000
  S   S47       1.0  0.10102  0.27032  0.62505  1.0000
  Fe  Fe24      1.0  0.22328  0.09602  0.48116  1.0000
  H   H230      1.0  0.18393  0.07570  0.58740  1.0000
  C   C198      1.0  0.21469  0.42075  0.60425  1.0000
  H   H231      1.0  0.16492  0.10724  0.43122  1.0000
  S   S48       1.0  0.21194  0.46267  0.32984  1.0000
  C   C199      1.0  0.16743  0.44620  0.33860  1.0000
  H   H232      1.0  0.06108  0.17227  0.34770  1.0000
  C   C200      1.0  0.14297  0.24623  0.52811  1.0000
  C   C201      1.0  0.17783  0.06131  0.40221  1.0000
  H   H233      1.0  0.06642  0.28989  0.35258  1.0000
  H   H234      1.0  0.19175  0.44431  0.55460  1.0000
  S   S49       1.0  0.22071  0.36520  0.61500  1.0000
  H   H235      1.0  0.03879  0.27330  0.36517  1.0000
  H   H236      1.0  0.16753  0.46152  0.33288  1.0000
  C   C202      1.0  0.05014  0.22989  0.55368  1.0000
  C   C203      1.0  0.20235  0.43158  0.55457  1.0000
  C   C204      1.0  0.22521  0.40688  0.56908  1.0000
  C   C205      1.0  0.12090  0.44178  0.31199  1.0000
  C   C206      1.0  0.14820  0.10840  0.57152  1.0000
  H   H237      1.0  0.03940  0.28955  0.56826  1.0000
  C   C207      1.0  0.02401  0.26338  0.54821  1.0000
  S   S50       1.0  0.21533  0.00111  0.39772  1.0000
  C   C208      1.0  0.17671  0.07327  0.41531  1.0000
  H   H238      1.0  0.19625  0.04531  0.38173  1.0000
  C   C209      1.0  0.15888  0.09569  0.58394  1.0000
  H   H239      1.0  0.13420  0.23571  0.52854  1.0000
  H   H240      1.0  0.05093  0.22885  0.52433  1.0000
  C   C210      1.0  0.13742  0.25899  0.54083  1.0000
  N   N15       1.0  0.18905  0.26123  0.49935  1.0000
  H   H241      1.0  0.21716  0.09885  0.54958  1.0000
  C   C211      1.0  0.19527  0.05517  0.39134  1.0000
  H   H242      1.0  0.03252  0.25920  0.39908  1.0000
  H   H243      1.0  0.21814  0.07341  0.44214  1.0000
  C   C212      1.0  0.14856  0.27258  0.54025  1.0000
  C   C213      1.0  0.15615  0.32551  0.55513  1.0000
  N   N16       1.0  0.08578  0.27874  0.41166  1.0000
  C   C214      1.0  0.08781  0.29881  0.41052  1.0000
  C   C215      1.0  0.07957  0.27113  0.43199  1.0000
  C   C216      1.0  0.10474  0.26774  0.40535  1.0000
  C   C217      1.0  0.07247  0.27749  0.39927  1.0000
  C   C218      1.0  0.07574  0.28528  0.37963  1.0000
  C   C219      1.0  0.05648  0.26801  0.40596  1.0000
  C   C220      1.0  0.06365  0.28387  0.36753  1.0000
  C   C221      1.0  0.04453  0.26665  0.39372  1.0000
  C   C222      1.0  0.17632  0.08513  0.57696  1.0000
  H   H244      1.0  0.07370  0.30772  0.41430  1.0000
  H   H245      1.0  0.09712  0.30010  0.42044  1.0000
  H   H246      1.0  0.09450  0.30515  0.39619  1.0000
  H   H247      1.0  0.06522  0.27853  0.43767  1.0000
  H   H248      1.0  0.08952  0.27280  0.44104  1.0000
  H   H249      1.0  0.07923  0.25567  0.43421  1.0000
  H   H250      1.0  0.11114  0.27351  0.39067  1.0000
  H   H251      1.0  0.11509  0.26782  0.41466  1.0000
  H   H252      1.0  0.10372  0.25262  0.40568  1.0000
  H   H253      1.0  0.08784  0.29230  0.37343  1.0000
  H   H254      1.0  0.05296  0.26127  0.42055  1.0000
  H   H255      1.0  0.21648  0.24353  0.49386  1.0000
  C   C223      1.0  0.22197  0.41615  0.40205  1.0000
  C   C224      1.0  0.21888  0.38977  0.42877  1.0000
  H   H256      1.0  0.02565  0.18261  0.35604  1.0000
  Fe  Fe25      1.0  0.20441  0.45802  0.36196  1.0000
  C   C225      1.0  0.22024  0.40677  0.53731  1.0000
  N   N17       1.0  0.13822  0.33928  0.55390  1.0000
  C   C226      1.0  0.14163  0.35448  0.53726  1.0000
  C   C227      1.0  0.12394  0.32906  0.55031  1.0000
  C   C228      1.0  0.13226  0.34771  0.57146  1.0000
  C   C229      1.0  0.11468  0.34580  0.58393  1.0000
  C   C230      1.0  0.10963  0.35397  0.60040  1.0000
  C   C231      1.0  0.12184  0.36412  0.60499  1.0000
  H   H257      1.0  0.15353  0.36167  0.53782  1.0000
  H   H258      1.0  0.14562  0.34878  0.52369  1.0000
  H   H259      1.0  0.12873  0.36556  0.53625  1.0000
  H   H260      1.0  0.12129  0.31684  0.56188  1.0000
  H   H261      1.0  0.11018  0.33871  0.54879  1.0000
  H   H262      1.0  0.12881  0.32313  0.53685  1.0000
  H   H263      1.0  0.10471  0.33780  0.58151  1.0000
  H   H264      1.0  0.09642  0.35194  0.60999  1.0000
  H   H265      1.0  0.15812  0.35972  0.56809  1.0000
  H   H266      1.0  0.12439  0.25839  0.55110  1.0000
  C   C232      1.0  0.10735  0.45820  0.31269  1.0000
  C   C233      1.0  0.21113  0.42342  0.57069  1.0000
  H   H267      1.0  0.01525  0.29625  0.56437  1.0000
  C   C234      1.0  0.13422  0.43698  0.32423  1.0000
  C   C235      1.0  0.22961  0.40293  0.41671  1.0000
  C   C236      1.0  0.98478  0.17546  0.30804  1.0000
  H   H268      1.0  0.02264  0.15859  0.35826  1.0000
  C   C237      1.0  0.12023  0.46518  0.33808  1.0000
  S   S51       1.0  0.12511  0.30957  0.63045  1.0000
  C   C238      1.0  0.22964  0.39880  0.55257  1.0000
  H   H269      1.0  0.18005  0.24937  0.47829  1.0000
  C   C239      1.0  0.03504  0.13667  0.32998  1.0000
  H   H270      1.0  0.11947  0.47512  0.34740  1.0000
  H   H271      1.0  0.21830  0.10291  0.41951  1.0000
  H   H272      1.0  0.15695  0.32700  0.62999  1.0000
  H   H273      1.0  0.22411  0.07596  0.40835  1.0000
  C   C240      1.0  0.20673  0.42322  0.53823  1.0000
  S   S52       1.0  0.23076  0.06415  0.48597  1.0000
  H   H274      1.0  0.19940  0.42928  0.52632  1.0000
  H   H275      1.0  0.99454  0.25752  0.30503  1.0000
  H   H276      1.0  0.05380  0.18756  0.30823  1.0000
  Fe  Fe26      1.0  0.98598  0.21079  0.33801  1.0000
  C   C241      1.0  0.10704  0.46990  0.32566  1.0000
  H   H277      1.0  0.21313  0.05678  0.52947  1.0000
  Fe  Fe27      1.0  0.98423  0.25069  0.34625  1.0000
  C   C242      1.0  0.99122  0.28649  0.30915  1.0000
  H   H278      1.0  0.14482  0.97761  0.32069  1.0000
  H   H279      1.0  0.98924  0.31646  0.30863  1.0000
  H   H280      1.0  0.22526  0.05586  0.38524  1.0000
  H   H281      1.0  0.23257  0.39944  0.58058  1.0000
  H   H282      1.0  0.02936  0.10944  0.32747  1.0000
  C   C243      1.0  0.23198  0.18102  0.46738  1.0000
  H   H283      1.0  0.09746  0.46213  0.30273  1.0000
  S   S53       1.0  0.05455  0.27406  0.63525  1.0000
  Fe  Fe28      1.0  0.19914  0.38166  0.68129  1.0000
  S   S54       1.0  0.17152  0.40206  0.68153  1.0000
  Fe  Fe29      1.0  0.16363  0.38331  0.66451  1.0000
  S   S55       1.0  0.13401  0.37600  0.67031  1.0000
  Fe  Fe30      1.0  0.18578  0.41647  0.65366  1.0000
  C   C244      1.0  0.01781  0.28256  0.70804  1.0000
  S   S56       1.0  0.19012  0.36165  0.66638  1.0000
  S   S57       1.0  0.21410  0.39728  0.65435  1.0000
  H   H284      1.0  0.06281  0.14686  0.88152  1.0000
  Fe  Fe31      1.0  0.07914  0.26389  0.65113  1.0000
  S   S58       1.0  0.07752  0.29133  0.66099  1.0000
  S   S59       1.0  0.07979  0.23630  0.67206  1.0000
  C   C245      1.0  0.13645  0.28802  0.70911  1.0000
  H   H285      1.0  0.14641  0.17939  0.87480  1.0000
  C   C246      1.0  0.18864  0.10257  0.85749  1.0000
  C   C247      1.0  0.12834  0.24445  0.66877  1.0000
  H   H286      1.0  0.12894  0.27375  0.65843  1.0000
  H   H287      1.0  0.13730  0.30293  0.70987  1.0000
  Fe  Fe32      1.0  0.07254  0.21575  0.78145  1.0000
  S   S60       1.0  0.04591  0.22733  0.80024  1.0000
  S   S61       1.0  0.08692  0.23588  0.75749  1.0000
  Fe  Fe33      1.0  0.07156  0.17518  0.80185  1.0000
  S   S62       1.0  0.04437  0.18364  0.82133  1.0000
  S   S63       1.0  0.08254  0.14358  0.80500  1.0000
  Fe  Fe34      1.0  0.03441  0.20250  0.79564  1.0000
  S   S64       1.0  0.00740  0.20771  0.78290  1.0000
  Fe  Fe35      1.0  0.05844  0.20755  0.82434  1.0000
  S   S65       1.0  0.05602  0.21026  0.85543  1.0000
  S   S66       1.0  0.06054  0.19193  0.77587  1.0000
  S   S67       1.0  0.08615  0.19804  0.80589  1.0000
  Fe  Fe36      1.0  0.21695  0.05420  0.79740  1.0000
  S   S68       1.0  0.20834  0.02934  0.81920  1.0000
  C   C248      1.0  0.15159  0.15743  0.85771  1.0000
  Fe  Fe37      1.0  0.18177  0.08152  0.81182  1.0000
  S   S69       1.0  0.17000  0.05869  0.83381  1.0000
  S   S70       1.0  0.16962  0.11280  0.81016  1.0000
  Fe  Fe38      1.0  0.20000  0.05013  0.83994  1.0000
  S   S71       1.0  0.20252  0.04467  0.87142  1.0000
  Fe  Fe39      1.0  0.17935  0.04003  0.81125  1.0000
  S   S72       1.0  0.16073  0.02347  0.80156  1.0000
  S   S73       1.0  0.21135  0.07380  0.81880  1.0000
  S   S74       1.0  0.18840  0.06401  0.78860  1.0000
  H   H288      1.0  0.12202  0.12880  0.91564  1.0000
  H   H289      1.0  0.12066  0.43475  0.72505  1.0000
  Fe  Fe40      1.0  0.10526  0.23727  0.92947  1.0000
  S   S75       1.0  0.10223  0.24873  0.89857  1.0000
  C   C249      1.0  0.02979  0.25042  0.72095  1.0000
  H   H290      1.0  0.20125  0.04638  0.91061  1.0000
  S   S76       1.0  0.13554  0.22798  0.93406  1.0000
  S   S77       1.0  0.09682  0.25280  0.95464  1.0000
  H   H291      1.0  0.17691  0.19853  0.93214  1.0000
  H   H292      1.0  0.13743  0.29747  0.87300  1.0000
  H   H293      1.0  0.12073  0.45450  0.73617  1.0000
  H   H294      1.0  0.22061  0.40999  0.88416  1.0000
  C   C250      1.0  0.21472  0.05711  0.88236  1.0000
  C   C251      1.0  0.19806  0.46386  0.68864  1.0000
  C   C252      1.0  0.22729  0.06906  0.87176  1.0000
  C   C253      1.0  0.22579  0.01389  0.73969  1.0000
  H   H295      1.0  0.18901  0.32531  0.91457  1.0000
  C   C254      1.0  0.23334  0.36761  0.87837  1.0000
  H   H296      1.0  0.20376  0.00888  0.78581  1.0000
  C   C255      1.0  0.16412  0.99870  0.80141  1.0000
  C   C256      1.0  0.15270  0.99190  0.79179  1.0000
  C   C257      1.0  0.19237  0.02096  0.75176  1.0000
  H   H297      1.0  0.14211  0.00182  0.78471  1.0000
  Fe  Fe41      1.0  0.12592  0.20176  0.95181  1.0000
  C   C258      1.0  0.06922  0.22123  0.86679  1.0000
  C   C259      1.0  0.08306  0.23205  0.85673  1.0000
  C   C260      1.0  0.09310  0.24038  0.86659  1.0000
  C   C261      1.0  0.08975  0.23761  0.88658  1.0000
  C   C262      1.0  0.07615  0.22651  0.89660  1.0000
  C   C263      1.0  0.06583  0.21857  0.88676  1.0000
  H   H298      1.0  0.08580  0.23426  0.84137  1.0000
  H   H299      1.0  0.10351  0.24903  0.85868  1.0000
  H   H300      1.0  0.07324  0.22440  0.91194  1.0000
  H   H301      1.0  0.05514  0.21026  0.89469  1.0000
  C   C264      1.0  0.10683  0.13519  0.80619  1.0000
  C   C265      1.0  0.11948  0.14772  0.80469  1.0000
  C   C266      1.0  0.13868  0.14063  0.80605  1.0000
  C   C267      1.0  0.14541  0.12101  0.80865  1.0000
  C   C268      1.0  0.13277  0.10845  0.81028  1.0000
  C   C269      1.0  0.11350  0.11555  0.80910  1.0000
  H   H302      1.0  0.11457  0.16287  0.80221  1.0000
  H   H303      1.0  0.14844  0.15041  0.80470  1.0000
  H   H304      1.0  0.13786  0.09329  0.81229  1.0000
  H   H305      1.0  0.10379  0.10576  0.81028  1.0000
  C   C270      1.0  0.11346  0.35258  0.66101  1.0000
  C   C271      1.0  0.18816  0.13659  0.96103  1.0000
  H   H306      1.0  0.22885  0.00618  0.77652  1.0000
  H   H307      1.0  0.09735  0.33396  0.65387  1.0000
  C   C272      1.0  0.00058  0.25801  0.70634  1.0000
  C   C273      1.0  0.08099  0.23665  0.69594  1.0000
  C   C274      1.0  0.08500  0.25253  0.70137  1.0000
  C   C275      1.0  0.08645  0.25223  0.72033  1.0000
  C   C276      1.0  0.08379  0.23609  0.73409  1.0000
  C   C277      1.0  0.07951  0.22029  0.72874  1.0000
  C   C278      1.0  0.07817  0.22055  0.70973  1.0000
  H   H308      1.0  0.08777  0.26476  0.69090  1.0000
  H   H309      1.0  0.08996  0.26443  0.72430  1.0000
  H   H310      1.0  0.07783  0.20763  0.73908  1.0000
  H   H311      1.0  0.07518  0.20815  0.70567  1.0000
  C   C279      1.0  0.13139  0.35793  0.65877  1.0000
  Fe  Fe42      1.0  0.05415  0.30193  0.64377  1.0000
  S   S78       1.0  0.21022  0.37004  0.70897  1.0000
  C   C280      1.0  0.14318  0.29378  0.96044  1.0000
  C   C281      1.0  0.11120  0.33800  0.65209  1.0000
  S   S79       1.0  0.14994  0.25402  0.96805  1.0000
  H   H312      1.0  0.22643  0.35961  0.90888  1.0000
  H   H313      1.0  0.01200  0.29265  0.69615  1.0000
  S   S80       1.0  0.20806  0.36990  0.96286  1.0000
  H   H314      1.0  0.23131  0.46103  0.75326  1.0000
  H   H315      1.0  0.16153  0.26844  0.88241  1.0000
  C   C282      1.0  0.14193  0.44676  0.69175  1.0000
  H   H316      1.0  0.22411  0.00939  0.72654  1.0000
  H   H317      1.0  0.11014  0.12429  0.88836  1.0000
  C   C283      1.0  0.15148  0.16445  0.87412  1.0000
  H   H318      1.0  0.15830  0.13348  0.84364  1.0000
  H   H319      1.0  0.13870  0.43218  0.69365  1.0000
  S   S81       1.0  0.18217  0.44842  0.64458  1.0000
  H   H320      1.0  0.17365  0.14328  0.93694  1.0000
  C   C284      1.0  0.14917  0.29349  0.67587  1.0000
  H   H321      1.0  0.19987  0.43776  0.67828  1.0000
  H   H322      1.0  0.04635  0.11982  0.74410  1.0000
  H   H323      1.0  0.04418  0.25396  0.72003  1.0000
  H   H324      1.0  0.12701  0.21572  0.68277  1.0000
  H   H325      1.0  0.21343  0.07589  0.71963  1.0000
  H   H326      1.0  0.21452  0.07049  0.75406  1.0000
  Fe  Fe43      1.0  0.12675  0.24115  0.96045  1.0000
  H   H327      1.0  0.16655  0.33995  0.89240  1.0000
  H   H328      1.0  0.11738  0.16062  0.92438  1.0000
  H   H329      1.0  0.99938  0.23623  0.73218  1.0000
  C   C285      1.0  0.13346  0.25113  0.70358  1.0000
  N   N18       1.0  0.08944  0.15227  0.86395  1.0000
  C   C286      1.0  0.06837  0.15664  0.86871  1.0000
  C   C287      1.0  0.09590  0.16579  0.84683  1.0000
  C   C288      1.0  0.09461  0.13296  0.85879  1.0000
  C   C289      1.0  0.09779  0.15423  0.88019  1.0000
  C   C290      1.0  0.09542  0.17223  0.88574  1.0000
  H   H330      1.0  0.06146  0.15555  0.85678  1.0000
  H   H331      1.0  0.09052  0.18089  0.84841  1.0000
  H   H332      1.0  0.09052  0.16389  0.83425  1.0000
  H   H333      1.0  0.11170  0.16379  0.84328  1.0000
  H   H334      1.0  0.08835  0.13219  0.84629  1.0000
  H   H335      1.0  0.11032  0.12892  0.85475  1.0000
  H   H336      1.0  0.08904  0.12207  0.87047  1.0000
  H   H337      1.0  0.08777  0.18471  0.87814  1.0000
  N   N19       1.0  0.01970  0.26247  0.70579  1.0000
  H   H338      1.0  0.04655  0.26277  0.68661  1.0000
  H   H339      1.0  0.13901  0.32448  0.95433  1.0000
  C   C291      1.0  0.17466  0.41168  0.73201  1.0000
  C   C292      1.0  0.98861  0.17868  0.80408  1.0000
  C   C293      1.0  0.17389  0.14662  0.95064  1.0000
  C   C294      1.0  0.18643  0.42084  0.73853  1.0000
  C   C295      1.0  0.14700  0.34873  0.64746  1.0000
  Fe  Fe44      1.0  0.20245  0.37917  0.63929  1.0000
  H   H340      1.0  0.15648  0.44675  0.68321  1.0000
  H   H341      1.0  0.02193  0.25236  0.73540  1.0000
  C   C296      1.0  0.18328  0.44058  0.73615  1.0000
  H   H342      1.0  0.10132  0.35976  0.66966  1.0000
  S   S82       1.0  0.17215  0.33598  0.96146  1.0000
  C   C297      1.0  0.21457  0.01321  0.77331  1.0000
  H   H343      1.0  0.13165  0.22152  0.71359  1.0000
  C   C298      1.0  0.15964  0.42224  0.72314  1.0000
  C   C299      1.0  0.98994  0.19284  0.78798  1.0000
  H   H344      1.0  0.19376  0.08741  0.85599  1.0000
  C   C300      1.0  0.12911  0.22964  0.68414  1.0000
  N   N20       1.0  0.21056  0.00869  0.75575  1.0000
  C   C301      1.0  0.16022  0.16118  0.95774  1.0000
  C   C302      1.0  0.98947  0.26786  0.69234  1.0000
  H   H345      1.0  0.22192  0.36430  0.74509  1.0000
  C   C303      1.0  0.15613  0.09714  0.86511  1.0000
  H   H346      1.0  0.15444  0.10324  0.85019  1.0000
  H   H347      1.0  0.16009  0.08151  0.86538  1.0000
  H   H348      1.0  0.14203  0.09985  0.87435  1.0000
  H   H349      1.0  0.10042  0.18841  0.90535  1.0000
  C   C304      1.0  0.10250  0.17446  0.90140  1.0000
  C   C305      1.0  0.21020  0.98811  0.75811  1.0000
  C   C306      1.0  0.98863  0.31644  0.66309  1.0000
  H   H350      1.0  0.19304  0.03633  0.75041  1.0000
  C   C307      1.0  0.03198  0.25984  0.68727  1.0000
  N   N21       1.0  0.14060  0.45326  0.71007  1.0000
  H   H351      1.0  0.20020  0.10776  0.86183  1.0000
  N   N22       1.0  0.04044  0.14033  0.77312  1.0000
  C   C308      1.0  0.04867  0.12153  0.78300  1.0000
  C   C309      1.0  0.05600  0.14906  0.76002  1.0000
  C   C310      1.0  0.03236  0.15262  0.78774  1.0000
  C   C311      1.0  0.02624  0.13789  0.76226  1.0000
  C   C312      1.0  0.03175  0.12661  0.74768  1.0000
  C   C313      1.0  0.00669  0.14617  0.76592  1.0000
  H   H352      1.0  0.22489  0.16393  0.95365  1.0000
  H   H353      1.0  0.99482  0.27846  0.68097  1.0000
  H   H354      1.0  0.22545  0.02750  0.93656  1.0000
  H   H355      1.0  0.03729  0.11426  0.79252  1.0000
  H   H356      1.0  0.05670  0.11197  0.77296  1.0000
  H   H357      1.0  0.05891  0.12288  0.79191  1.0000
  H   H358      1.0  0.06678  0.15131  0.76786  1.0000
  H   H359      1.0  0.05031  0.16316  0.75217  1.0000
  H   H360      1.0  0.06393  0.14010  0.74940  1.0000
  H   H361      1.0  0.02092  0.14669  0.79853  1.0000
  C   C314      1.0  0.15542  0.27711  0.96629  1.0000
  H   H362      1.0  0.02651  0.16728  0.78122  1.0000
  H   H363      1.0  0.19815  0.41263  0.74527  1.0000
  Fe  Fe45      1.0  0.20057  0.34049  0.96712  1.0000
  H   H364      1.0  0.20471  0.45685  0.70076  1.0000
  H   H365      1.0  0.21426  0.02871  0.77224  1.0000
  H   H366      1.0  0.22552  0.02946  0.73640  1.0000
  C   C315      1.0  0.11517  0.29870  0.68667  1.0000
  H   H367      1.0  0.14729  0.29408  0.66104  1.0000
  H   H368      1.0  0.10285  0.29340  0.69664  1.0000
  H   H369      1.0  0.11496  0.31359  0.68836  1.0000
  H   H370      1.0  0.11260  0.29947  0.67204  1.0000
  H   H371      1.0  0.13485  0.25272  0.71759  1.0000
  C   C316      1.0  0.11460  0.14089  0.90716  1.0000
  H   H372      1.0  0.21654  0.06472  0.92671  1.0000
  C   C317      1.0  0.99354  0.14315  0.75581  1.0000
  C   C318      1.0  0.14477  0.33408  0.63868  1.0000
  H   H373      1.0  0.15811  0.15789  0.90233  1.0000
  H   H374      1.0  0.22804  0.42343  0.85011  1.0000
  H   H375      1.0  0.19881  0.12557  0.95534  1.0000
  C   C319      1.0  0.18681  0.46187  0.66016  1.0000
  H   H376      1.0  0.15080  0.41443  0.71855  1.0000
  H   H377      1.0  0.99814  0.17695  0.81412  1.0000
  H   H378      1.0  0.23024  0.07050  0.85644  1.0000
  H   H379      1.0  0.10989  0.45806  0.71537  1.0000
  C   C320      1.0  0.21116  0.05539  0.90229  1.0000
  C   C321      1.0  0.99218  0.24440  0.72081  1.0000
  H   H380      1.0  0.02646  0.26963  0.67508  1.0000
  S   S83       1.0  0.02668  0.31693  0.65859  1.0000
  C   C322      1.0  0.23282  0.07729  0.90090  1.0000
  S   S84       1.0  0.22882  0.32822  0.95156  1.0000
  H   H381      1.0  0.04335  0.15413  0.79568  1.0000
  C   C323      1.0  0.16606  0.31314  0.96339  1.0000
  C   C324      1.0  0.19539  0.45301  0.67587  1.0000
  H   H382      1.0  0.18878  0.01907  0.73825  1.0000
  H   H383      1.0  0.03356  0.24501  0.68471  1.0000
  C   C325      1.0  0.20188  0.18068  0.94127  1.0000
  H   H384      1.0  0.12961  0.29292  0.95715  1.0000
  C   C326      1.0  0.22602  0.37747  0.73704  1.0000
  H   H385      1.0  0.00112  0.15503  0.77657  1.0000
  H   H386      1.0  0.18034  0.01807  0.76355  1.0000
  H   H387      1.0  0.16722  0.46655  0.72531  1.0000
  H   H388      1.0  0.20398  0.17195  0.93040  1.0000
  N   N23       1.0  0.13339  0.28628  0.69008  1.0000
  C   C327      1.0  0.00628  0.31376  0.65111  1.0000
  H   H389      1.0  0.17800  0.07753  0.88876  1.0000
  H   H390      1.0  0.16311  0.28433  0.67770  1.0000
  H   H391      1.0  0.16176  0.09453  0.90120  1.0000
  C   C328      1.0  0.13258  0.26663  0.68820  1.0000
  C   C329      1.0  0.11201  0.15881  0.91215  1.0000
  H   H392      1.0  0.99102  0.38105  0.68017  1.0000
  N   N24       1.0  0.14065  0.28398  0.90162  1.0000
  C   C330      1.0  0.12860  0.29374  0.88716  1.0000
  C   C331      1.0  0.15094  0.26583  0.89562  1.0000
  C   C332      1.0  0.12774  0.27969  0.91990  1.0000
  C   C333      1.0  0.15436  0.29533  0.90421  1.0000
  C   C334      1.0  0.15442  0.31460  0.89537  1.0000
  C   C335      1.0  0.16767  0.28738  0.91664  1.0000
  C   C336      1.0  0.16693  0.32517  0.89899  1.0000
  C   C337      1.0  0.17972  0.31693  0.91135  1.0000
  H   H393      1.0  0.11882  0.28453  0.88528  1.0000
  H   H394      1.0  0.11922  0.30679  0.89143  1.0000
  H   H395      1.0  0.14099  0.25734  0.89280  1.0000
  H   H396      1.0  0.15859  0.25645  0.90665  1.0000
  H   H397      1.0  0.12013  0.29294  0.92521  1.0000
  H   H398      1.0  0.11677  0.27168  0.91845  1.0000
  H   H399      1.0  0.13551  0.27093  0.93118  1.0000
  H   H400      1.0  0.14476  0.32196  0.88582  1.0000
  H   H401      1.0  0.16803  0.27306  0.92445  1.0000
  C   C338      1.0  0.10770  0.13853  0.89138  1.0000
  C   C339      1.0  0.18024  0.29802  0.91997  1.0000
  C   C340      1.0  0.21385  0.17621  0.95485  1.0000
  H   H402      1.0  0.15021  0.30828  0.67692  1.0000
  H   H403      1.0  0.06329  0.17135  0.87172  1.0000
  C   C341      1.0  0.15808  0.15229  0.88962  1.0000
  C   C342      1.0  0.12693  0.32861  0.64105  1.0000
  H   H404      1.0  0.18995  0.29177  0.92987  1.0000
  C   C343      1.0  0.13173  0.23295  0.70147  1.0000
  N   N25       1.0  0.17075  0.10483  0.87144  1.0000
  C   C344      1.0  0.17445  0.09290  0.88982  1.0000
  C   C345      1.0  0.18333  0.20638  0.95666  1.0000
  H   H405      1.0  0.22092  0.36322  0.87571  1.0000
  C   C346      1.0  0.22173  0.38390  0.71867  1.0000
  H   H406      1.0  0.18685  0.11048  0.84306  1.0000
  H   H407      1.0  0.18691  0.09622  0.89445  1.0000
  H   H408      1.0  0.12448  0.28389  0.72045  1.0000
  H   H409      1.0  0.23119  0.00290  0.94660  1.0000
  H   H410      1.0  0.19271  0.44766  0.74095  1.0000
  C   C347      1.0  0.18661  0.19565  0.94222  1.0000
  C   C348      1.0  0.13007  0.26267  0.67069  1.0000
  H   H411      1.0  0.15005  0.27912  0.71257  1.0000
  C   C349      1.0  0.16429  0.12523  0.87260  1.0000
  C   C350      1.0  0.15800  0.13815  0.85687  1.0000
  C   C351      1.0  0.99941  0.13201  0.74162  1.0000
  S   S85       1.0  0.09613  0.21028  0.94572  1.0000
  C   C352      1.0  0.16449  0.13297  0.88895  1.0000
  H   H412      1.0  0.98429  0.37714  0.65161  1.0000
  C   C353      1.0  0.15634  0.44241  0.71996  1.0000
  H   H413      1.0  0.00818  0.28536  0.72150  1.0000
  H   H414      1.0  0.14692  0.16701  0.84548  1.0000
  H   H415      1.0  0.16960  0.12444  0.90140  1.0000
  C   C354      1.0  0.21994  0.06563  0.91150  1.0000
  H   H416      1.0  0.12574  0.24193  0.65546  1.0000
  C   C355      1.0  0.12215  0.45001  0.72218  1.0000
  C   C356      1.0  0.17769  0.98574  0.81061  1.0000
  C   C357      1.0  0.16846  0.45131  0.72706  1.0000
  C   C358      1.0  0.22618  0.06809  0.72484  1.0000
  H   H417      1.0  0.03209  0.23509  0.71984  1.0000
  H   H418      1.0  0.03186  0.28634  0.70821  1.0000
  H   H419      1.0  0.17742  0.39629  0.73356  1.0000
  H   H420      1.0  0.18647  0.99075  0.81817  1.0000
  C   C359      1.0  0.23156  0.41884  0.87927  1.0000
  H   H421      1.0  0.98777  0.31997  0.67696  1.0000
  S   S86       1.0  0.14304  0.17398  0.94398  1.0000
  H   H422      1.0  0.16083  0.35286  0.64548  1.0000
  C   C360      1.0  0.14852  0.31168  0.95895  1.0000
  H   H423      1.0  0.99289  0.39923  0.70388  1.0000
  H   H424      1.0  0.98909  0.12976  0.73386  1.0000
  C   C361      1.0  0.22687  0.40102  0.70841  1.0000
  H   H425      1.0  0.13179  0.45601  0.68286  1.0000
  H   H426      1.0  0.22350  0.40615  0.69430  1.0000
  C   C362      1.0  0.01850  0.12379  0.73752  1.0000
  C   C363      1.0  0.22672  0.06491  0.74440  1.0000
  H   H427      1.0  0.18086  0.98991  0.75362  1.0000
  H   H428      1.0  0.02302  0.11513  0.72645  1.0000
  C   C364      1.0  0.14061  0.47407  0.70577  1.0000
  H   H429      1.0  0.17119  0.21777  0.95760  1.0000
  H   H430      1.0  0.21234  0.04664  0.95917  1.0000
  C   C365      1.0  0.19411  0.98085  0.75616  1.0000
  H   H431      1.0  0.98505  0.35572  0.66924  1.0000
  S   S87       1.0  0.17526  0.39962  0.63655  1.0000
  C   C366      1.0  0.04962  0.96081  0.26557  1.0000
  H   H432      1.0  0.04016  0.70584  0.18272  1.0000
  C   C367      1.0  0.06093  0.75100  0.15696  1.0000
  C   C368      1.0  0.03464  0.73352  0.16583  1.0000
  H   H433      1.0  0.07503  0.54283  0.20050  1.0000
  H   H434      1.0  0.12623  0.51912  0.19169  1.0000
  C   C369      1.0  0.04210  0.74976  0.15659  1.0000
  S   S88       1.0  0.11151  0.49329  0.23106  1.0000
  H   H435      1.0  0.04822  0.56142  0.25124  1.0000
  Fe  Fe46      1.0  0.08036  0.49428  0.24260  1.0000
  S   S89       1.0  0.06182  0.52187  0.24956  1.0000
  H   H436      1.0  0.03328  0.76151  0.14905  1.0000
  H   H437      1.0  0.08576  0.76812  0.16797  1.0000
  H   H438      1.0  0.11598  0.54942  0.16019  1.0000
  H   H439      1.0  0.09007  0.53324  0.21785  1.0000
  H   H440      1.0  0.12365  0.49033  0.27554  1.0000
  Fe  Fe47      1.0  0.09623  0.93355  0.24691  1.0000
  C   C370      1.0  0.22757  0.70397  0.07729  1.0000
  S   S90       1.0  0.07689  0.91119  0.25309  1.0000
  Fe  Fe48      1.0  0.12983  0.94565  0.25863  1.0000
  C   C371      1.0  0.18779  0.86747  0.16454  1.0000
  C   C372      1.0  0.06483  0.71967  0.17611  1.0000
  S   S91       1.0  0.09874  0.94722  0.27126  1.0000
  S   S92       1.0  0.12771  0.92979  0.23576  1.0000
  Fe  Fe49      1.0  0.08286  0.61350  0.27760  1.0000
  C   C373      1.0  0.08940  0.53478  0.20255  1.0000
  S   S93       1.0  0.09858  0.58443  0.27188  1.0000
  Fe  Fe50      1.0  0.06802  0.65577  0.26406  1.0000
  H   H441      1.0  0.20987  0.91580  0.14112  1.0000
  S   S94       1.0  0.05865  0.67767  0.23946  1.0000
  C   C374      1.0  0.09674  0.59876  0.18302  1.0000
  H   H442      1.0  0.13531  0.54111  0.18646  1.0000
  H   H443      1.0  0.09028  0.52015  0.19972  1.0000
  S   S95       1.0  0.09729  0.63871  0.26481  1.0000
  S   S96       1.0  0.05376  0.62989  0.27406  1.0000
  Fe  Fe51      1.0  0.20093  0.81660  0.07304  1.0000
  S   S97       1.0  0.20531  0.78809  0.09185  1.0000
  C   C375      1.0  0.02237  0.94498  0.27322  1.0000
  Fe  Fe52      1.0  0.19168  0.79887  0.04164  1.0000
  S   S98       1.0  0.19446  0.76933  0.05848  1.0000
  S   S99       1.0  0.18823  0.80680  0.01065  1.0000
  Fe  Fe53      1.0  0.17894  0.78323  0.08348  1.0000
  S   S100      1.0  0.16011  0.76910  0.10878  1.0000
  Fe  Fe54      1.0  0.22048  0.77614  0.06567  1.0000
  H   H444      1.0  0.13488  0.59931  0.26950  1.0000
  S   S101      1.0  0.17350  0.81225  0.06599  1.0000
  S   S102      1.0  0.21880  0.80517  0.04738  1.0000
  Fe  Fe55      1.0  0.06178  0.82964  0.19806  1.0000
  S   S103      1.0  0.08324  0.80481  0.18897  1.0000
  S   S104      1.0  0.07503  0.85617  0.19577  1.0000
  Fe  Fe56      1.0  0.02821  0.80902  0.19895  1.0000
  S   S105      1.0  0.04743  0.78343  0.18928  1.0000
  H   H445      1.0  0.16916  0.97420  0.25736  1.0000
  Fe  Fe57      1.0  0.06497  0.78610  0.21011  1.0000
  S   S106      1.0  0.07788  0.76064  0.22972  1.0000
  Fe  Fe58      1.0  0.06399  0.80425  0.16896  1.0000
  S   S107      1.0  0.07406  0.80151  0.13808  1.0000
  S   S108      1.0  0.04500  0.81083  0.22122  1.0000
  S   S109      1.0  0.04317  0.82986  0.17672  1.0000
  C   C376      1.0  0.17747  0.79379  0.99911  1.0000
  C   C377      1.0  0.16798  0.77897  0.00913  1.0000
  C   C378      1.0  0.15947  0.76906  0.99942  1.0000
  H   H446      1.0  0.16710  0.77525  0.02437  1.0000
  H   H447      1.0  0.15208  0.75766  0.00728  1.0000
  C   C379      1.0  0.13675  0.78020  0.11617  1.0000
  C   C380      1.0  0.12363  0.78570  0.10372  1.0000
  C   C381      1.0  0.10441  0.79234  0.11059  1.0000
  C   C382      1.0  0.09836  0.79394  0.12980  1.0000
  C   C383      1.0  0.11167  0.78910  0.14207  1.0000
  C   C384      1.0  0.13072  0.78190  0.13535  1.0000
  H   H448      1.0  0.12814  0.78413  0.08896  1.0000
  H   H449      1.0  0.09418  0.79608  0.10101  1.0000
  H   H450      1.0  0.10733  0.79071  0.15676  1.0000
  H   H451      1.0  0.14084  0.77758  0.14504  1.0000
  C   C385      1.0  0.17992  0.93881  0.29629  1.0000
  H   H452      1.0  0.16472  0.90822  0.19313  1.0000
  Fe  Fe59      1.0  0.09306  0.64429  0.29466  1.0000
  H   H453      1.0  0.17905  0.72892  0.97137  1.0000
  S   S110      1.0  0.22671  0.52006  0.07736  1.0000
  C   C386      1.0  0.06414  0.70062  0.23688  1.0000
  C   C387      1.0  0.05578  0.71543  0.22408  1.0000
  C   C388      1.0  0.06002  0.73384  0.22152  1.0000
  C   C389      1.0  0.07264  0.73758  0.23187  1.0000
  C   C390      1.0  0.08099  0.72274  0.24467  1.0000
  C   C391      1.0  0.07677  0.70432  0.24719  1.0000
  H   H454      1.0  0.04597  0.71259  0.21617  1.0000
  H   H455      1.0  0.05349  0.74507  0.21160  1.0000
  H   H456      1.0  0.09076  0.72551  0.25274  1.0000
  H   H457      1.0  0.08337  0.69298  0.25704  1.0000
  C   C392      1.0  0.09251  0.75471  0.17597  1.0000
  C   C393      1.0  0.10435  0.54303  0.17027  1.0000
  C   C394      1.0  0.14969  0.87728  0.13676  1.0000
  C   C395      1.0  0.10004  0.58627  0.21558  1.0000
  C   C396      1.0  0.21291  0.90282  0.13450  1.0000
  H   H458      1.0  0.10646  0.52796  0.16822  1.0000
  H   H459      1.0  0.19335  0.85569  0.15698  1.0000
  H   H460      1.0  0.21531  0.73369  0.07570  1.0000
  H   H461      1.0  0.21392  0.69924  0.08169  1.0000
  C   C397      1.0  0.07558  0.87086  0.21229  1.0000
  C   C398      1.0  0.08672  0.88538  0.20645  1.0000
  C   C399      1.0  0.08747  0.89763  0.21883  1.0000
  C   C400      1.0  0.07693  0.89561  0.23723  1.0000
  C   C401      1.0  0.06575  0.88113  0.24310  1.0000
  C   C402      1.0  0.06513  0.86875  0.23075  1.0000
  H   H462      1.0  0.09479  0.88722  0.19221  1.0000
  H   H463      1.0  0.09609  0.90872  0.21408  1.0000
  H   H464      1.0  0.05756  0.87942  0.25730  1.0000
  H   H465      1.0  0.05649  0.85768  0.23544  1.0000
  H   H466      1.0  0.01618  0.73750  0.20775  1.0000
  C   C403      1.0  0.99063  0.77466  0.25540  1.0000
  H   H467      1.0  0.19858  0.74391  0.02160  1.0000
  S   S111      1.0  0.07452  0.48142  0.21923  1.0000
  H   H468      1.0  0.22586  0.56044  0.06975  1.0000
  C   C404      1.0  0.14945  0.95961  0.29953  1.0000
  H   H469      1.0  0.03172  0.93077  0.27340  1.0000
  C   C405      1.0  0.01752  0.70837  0.28790  1.0000
  H   H470      1.0  0.22215  0.76552  0.01334  1.0000
  H   H471      1.0  0.02007  0.78183  0.23053  1.0000
  S   S112      1.0  0.12006  0.64967  0.30187  1.0000
  C   C406      1.0  0.07226  0.53925  0.25550  1.0000
  C   C407      1.0  0.06220  0.55787  0.25522  1.0000
  C   C408      1.0  0.07001  0.57190  0.26029  1.0000
  C   C409      1.0  0.08798  0.56734  0.26565  1.0000
  C   C410      1.0  0.09816  0.54879  0.26564  1.0000
  C   C411      1.0  0.09034  0.53479  0.26062  1.0000
  H   H472      1.0  0.09869  0.57907  0.16483  1.0000
  C   C412      1.0  0.17837  0.79860  0.97933  1.0000
  H   H473      1.0  0.11212  0.54517  0.26968  1.0000
  H   H474      1.0  0.09820  0.52048  0.26096  1.0000
  C   C413      1.0  0.10324  0.72125  0.17834  1.0000
  H   H475      1.0  0.12418  0.53238  0.21011  1.0000
  H   H476      1.0  0.00647  0.55850  0.29410  1.0000
  C   C414      1.0  0.07287  0.73609  0.16687  1.0000
  C   C415      1.0  0.19722  0.88335  0.16185  1.0000
  H   H477      1.0  0.02005  0.73259  0.16541  1.0000
  H   H478      1.0  0.07269  0.70758  0.18409  1.0000
  H   H479      1.0  0.19650  0.93701  0.20006  1.0000
  H   H480      1.0  0.13420  0.50907  0.29514  1.0000
  C   C416      1.0  0.16603  0.96361  0.16199  1.0000
  C   C417      1.0  0.04600  0.71849  0.17551  1.0000
  C   C418      1.0  0.13367  0.87978  0.15082  1.0000
  N   N26       1.0  0.13715  0.84234  0.11090  1.0000
  C   C419      1.0  0.15212  0.82562  0.11463  1.0000
  C   C420      1.0  0.11912  0.83535  0.11188  1.0000
  C   C421      1.0  0.14227  0.85242  0.09120  1.0000
  C   C422      1.0  0.13573  0.85507  0.12475  1.0000
  C   C423      1.0  0.15089  0.86491  0.12407  1.0000
  C   C424      1.0  0.11978  0.85761  0.13956  1.0000
  N   N27       1.0  0.21539  0.88509  0.14856  1.0000
  H   H481      1.0  0.09619  0.71878  0.19351  1.0000
  H   H482      1.0  0.22559  0.85531  0.14737  1.0000
  H   H483      1.0  0.15327  0.81527  0.10499  1.0000
  H   H484      1.0  0.16646  0.82964  0.11252  1.0000
  H   H485      1.0  0.14904  0.81789  0.12944  1.0000
  H   H486      1.0  0.11514  0.82622  0.12573  1.0000
  H   H487      1.0  0.12037  0.82642  0.10085  1.0000
  H   H488      1.0  0.10712  0.84728  0.10966  1.0000
  H   H489      1.0  0.15685  0.85596  0.08818  1.0000
  H   H490      1.0  0.14224  0.84356  0.08045  1.0000
  H   H491      1.0  0.13213  0.86588  0.08832  1.0000
  H   H492      1.0  0.16381  0.86305  0.11369  1.0000
  H   H493      1.0  0.10777  0.85035  0.14170  1.0000
  S   S113      1.0  0.99670  0.80675  0.20732  1.0000
  C   C425      1.0  0.11887  0.86980  0.15235  1.0000
  C   C426      1.0  0.21960  0.88959  0.08974  1.0000
  H   H494      1.0  0.98523  0.76630  0.24708  1.0000
  H   H495      1.0  0.09036  0.54990  0.16610  1.0000
  C   C427      1.0  0.00062  0.72202  0.23235  1.0000
  C   C428      1.0  0.12341  0.53387  0.19482  1.0000
  H   H496      1.0  0.23230  0.87317  0.17043  1.0000
  C   C429      1.0  0.10212  0.56417  0.19364  1.0000
  H   H497      1.0  0.99051  0.67817  0.27927  1.0000
  C   C430      1.0  0.23037  0.88594  0.15926  1.0000
  C   C431      1.0  0.03329  0.71708  0.27977  1.0000
  C   C432      1.0  0.21363  0.85930  0.08444  1.0000
  C   C433      1.0  0.14298  0.49591  0.29187  1.0000
  C   C434      1.0  0.99669  0.73713  0.27687  1.0000
  S   S114      1.0  0.15559  0.93503  0.27358  1.0000
  C   C435      1.0  0.98594  0.74447  0.20821  1.0000
  C   C436      1.0  0.01670  0.77828  0.26914  1.0000
  H   H498      1.0  0.00866  0.94382  0.26938  1.0000
  H   H499      1.0  0.06210  0.58617  0.26014  1.0000
  N   N28       1.0  0.10476  0.54439  0.19021  1.0000
  C   C437      1.0  0.22248  0.86908  0.13779  1.0000
  N   N29       1.0  0.14652  0.58838  0.29531  1.0000
  H   H500      1.0  0.22603  0.90408  0.12365  1.0000
  S   S115      1.0  0.06484  0.66353  0.29289  1.0000
  H   H501      1.0  0.10436  0.55625  0.22370  1.0000
  C   C438      1.0  0.03663  0.95384  0.24073  1.0000
  C   C439      1.0  0.18841  0.89789  0.17265  1.0000
  H   H502      1.0  0.14897  0.88021  0.19732  1.0000
  H   H503      1.0  0.01522  0.79344  0.26204  1.0000
  C   C440      1.0  0.13698  0.48533  0.28074  1.0000
  C   C441      1.0  0.16841  0.95045  0.19481  1.0000
  H   H504      1.0  0.21724  0.49645  0.03224  1.0000
  C   C442      1.0  0.09919  0.58030  0.17919  1.0000
  H   H505      1.0  0.16127  0.88493  0.13572  1.0000
  C   C443      1.0  0.16009  0.48936  0.29901  1.0000
  H   H506      1.0  0.99198  0.62402  0.29168  1.0000
  H   H507      1.0  0.10652  0.87145  0.16353  1.0000
  C   C444      1.0  0.15736  0.95998  0.18109  1.0000
  H   H508      1.0  0.23030  0.95013  0.28980  1.0000
  S   S116      1.0  0.11712  0.48794  0.17819  1.0000
  S   S117      1.0  0.22114  0.93951  0.16413  1.0000
  H   H509      1.0  0.03558  0.53540  0.29289  1.0000
  C   C445      1.0  0.22425  0.96676  0.24502  1.0000
  H   H510      1.0  0.16000  0.59941  0.26722  1.0000
  C   C446      1.0  0.18569  0.95764  0.15658  1.0000
  H   H511      1.0  0.10035  0.58865  0.22970  1.0000
  H   H512      1.0  0.14076  0.49682  0.14195  1.0000
  H   H513      1.0  0.09448  0.61088  0.17185  1.0000
  C   C447      1.0  0.00626  0.65902  0.29938  1.0000
  C   C448      1.0  0.10240  0.56776  0.21196  1.0000
  S   S118      1.0  0.08943  0.96149  0.22781  1.0000
  N   N30       1.0  0.09268  0.73800  0.16727  1.0000
  C   C449      1.0  0.10349  0.74078  0.14759  1.0000
  H   H514      1.0  0.10459  0.70817  0.17222  1.0000
  H   H515      1.0  0.11800  0.72326  0.17842  1.0000
  H   H516      1.0  0.09741  0.75403  0.13874  1.0000
  H   H517      1.0  0.10357  0.72878  0.14030  1.0000
  H   H518      1.0  0.11858  0.74204  0.14726  1.0000
  H   H519      1.0  0.08453  0.75326  0.19075  1.0000
  H   H520      1.0  0.10715  0.75667  0.17654  1.0000
  H   H521      1.0  0.06603  0.76389  0.14947  1.0000
  Fe  Fe60      1.0  0.23178  0.48807  0.08706  1.0000
  H   H522      1.0  0.22073  0.95636  0.22049  1.0000
  H   H523      1.0  0.03197  0.77369  0.27057  1.0000
  C   C450      1.0  0.20259  0.73754  0.99328  1.0000
  H   H524      1.0  0.03798  0.76461  0.23987  1.0000
  C   C451      1.0  0.16193  0.94536  0.29087  1.0000
  C   C452      1.0  0.21530  0.97428  0.26177  1.0000
  H   H525      1.0  0.01334  0.71453  0.23795  1.0000
  H   H526      1.0  0.23015  0.49534  0.05097  1.0000
  H   H527      1.0  0.00758  0.80588  0.16685  1.0000
  N   N31       1.0  0.01046  0.76632  0.25821  1.0000
  S   S119      1.0  0.19686  0.84480  0.08398  1.0000
  C   C453      1.0  0.14604  0.60149  0.27689  1.0000
  H   H528      1.0  0.15751  0.97096  0.15133  1.0000
  C   C454      1.0  0.03090  0.73586  0.27028  1.0000
  C   C455      1.0  0.16231  0.88105  0.18751  1.0000
  C   C456      1.0  0.14758  0.48357  0.14927  1.0000
  C   C457      1.0  0.01842  0.56226  0.29827  1.0000
  S   S120      1.0  0.13273  0.96747  0.18758  1.0000
  H   H529      1.0  0.13275  0.88938  0.16065  1.0000
  C   C458      1.0  0.20656  0.74603  0.00725  1.0000
  C   C459      1.0  0.98962  0.66964  0.29329  1.0000
  Fe  Fe61      1.0  0.12117  0.95877  0.21857  1.0000
  S   S121      1.0  0.23182  0.47538  0.11768  1.0000
  N   N32       1.0  0.03155  0.95989  0.25965  1.0000
  C   C460      1.0  0.16034  0.77390  0.97966  1.0000
  C   C461      1.0  0.18804  0.94452  0.18941  1.0000
  C   C462      1.0  0.02259  0.76744  0.23915  1.0000
  C   C463      1.0  0.21987  0.75823  0.00263  1.0000
  H   H530      1.0  0.04353  0.96458  0.22983  1.0000
  H   H531      1.0  0.00821  0.77765  0.28373  1.0000
  H   H532      1.0  0.04362  0.74206  0.26458  1.0000
  H   H533      1.0  0.13592  0.56763  0.28467  1.0000
  H   H534      1.0  0.22295  0.47824  0.23158  1.0000
  H   H535      1.0  0.21214  0.86793  0.12892  1.0000
  H   H536      1.0  0.01985  0.75725  0.23106  1.0000
  H   H537      1.0  0.14251  0.61670  0.27859  1.0000
  H   H538      1.0  0.98739  0.58671  0.28407  1.0000
  H   H539      1.0  0.09522  0.61605  0.20413  1.0000
  C   C464      1.0  0.17118  0.89678  0.18517  1.0000
  C   C465      1.0  0.23327  0.85277  0.08147  1.0000
  C   C466      1.0  0.09716  0.60173  0.20117  1.0000
  H   H540      1.0  0.20100  0.90334  0.12690  1.0000
  H   H541      1.0  0.22384  0.52792  0.01704  1.0000
  C   C467      1.0  0.19381  0.96499  0.23757  1.0000
  C   C468      1.0  0.14784  0.56880  0.29163  1.0000
  H   H542      1.0  0.19145  0.72900  0.99774  1.0000
  C   C469      1.0  0.20688  0.87776  0.08862  1.0000
  H   H543      1.0  0.21423  0.90389  0.09248  1.0000
  H   H544      1.0  0.18967  0.92781  0.28962  1.0000
  C   C470      1.0  0.99375  0.80160  0.17165  1.0000
  H   H545      1.0  0.17101  0.47970  0.12597  1.0000
  H   H546      1.0  0.22124  0.71639  0.11850  1.0000
  H   H547      1.0  0.11601  0.59066  0.30240  1.0000
  H   H548      1.0  0.20115  0.47639  0.17832  1.0000
  H   H549      1.0  0.99033  0.79917  0.14364  1.0000
  C   C471      1.0  0.17061  0.86641  0.17726  1.0000
  C   C472      1.0  0.19671  0.94809  0.17031  1.0000
  H   H550      1.0  0.16130  0.56440  0.28196  1.0000
  H   H551      1.0  0.00981  0.60994  0.27673  1.0000
  C   C473      1.0  0.01254  0.74642  0.26831  1.0000
  C   C474      1.0  0.21213  0.74093  0.97413  1.0000
  H   H552      1.0  0.19173  0.88303  0.09076  1.0000
  H   H553      1.0  0.22698  0.89863  0.16637  1.0000
  C   C475      1.0  0.16984  0.78870  0.96962  1.0000
  S   S122      1.0  0.22520  0.94570  0.10669  1.0000
  Fe  Fe62      1.0  0.10619  0.47823  0.20928  1.0000
  H   H554      1.0  0.02401  0.95116  0.23595  1.0000
  C   C476      1.0  0.21361  0.96223  0.23314  1.0000
  S   S123      1.0  0.12547  0.97440  0.24040  1.0000
  H   H555      1.0  0.01986  0.65939  0.29004  1.0000
  C   C477      1.0  0.98535  0.80058  0.19076  1.0000
  H   H556      1.0  0.16361  0.85420  0.17912  1.0000
  H   H557      1.0  0.16184  0.94760  0.20956  1.0000
  H   H558      1.0  0.19482  0.91027  0.17148  1.0000
  C   C478      1.0  0.00225  0.73490  0.21538  1.0000
  C   C479      1.0  0.22832  0.72355  0.07378  1.0000
  H   H559      1.0  0.04695  0.94024  0.24094  1.0000
  C   C480      1.0  0.23164  0.49261  0.03627  1.0000
  H   H560      1.0  0.18561  0.81012  0.97153  1.0000
  H   H561      1.0  0.19228  0.96037  0.14181  1.0000
  H   H562      1.0  0.98726  0.75457  0.19502  1.0000
  C   C481      1.0  0.03506  0.54869  0.29768  1.0000
  C   C482      1.0  0.18457  0.97246  0.25379  1.0000
  C   C483      1.0  0.22601  0.75303  0.97005  1.0000
  H   H563      1.0  0.04750  0.70922  0.28087  1.0000
  H   H564      1.0  0.98971  0.78942  0.24723  1.0000
  H   H565      1.0  0.22878  0.74872  0.11340  1.0000
  H   H566      1.0  0.06433  0.54198  0.30153  1.0000
  H   H567      1.0  0.13557  0.96477  0.29551  1.0000
  H   H568      1.0  0.04778  0.96262  0.28060  1.0000
  H   H569      1.0  0.06013  0.94753  0.26433  1.0000
  H   H570      1.0  0.05620  0.97287  0.25670  1.0000
  H   H571      1.0  0.01589  0.61838  0.29563  1.0000
  H   H572      1.0  0.18558  0.96111  0.22857  1.0000
  H   H573      1.0  0.01928  0.94792  0.28800  1.0000
  H   H574      1.0  0.98702  0.71151  0.29313  1.0000
  C   C484      1.0  0.99925  0.71838  0.28654  1.0000
  C   C485      1.0  0.00467  0.61251  0.29159  1.0000
  H   H575      1.0  0.22123  0.48234  0.16070  1.0000
  H   H576      1.0  0.19704  0.70825  0.97610  1.0000
  C   C486      1.0  0.13910  0.47600  0.16759  1.0000
  C   C487      1.0  0.22967  0.76163  0.98410  1.0000
  H   H577      1.0  0.01949  0.69388  0.29544  1.0000
  H   H578      1.0  0.23377  0.50435  0.99801  1.0000
  Fe  Fe63      1.0  0.09406  0.97497  0.25112  1.0000
  Fe  Fe64      1.0  0.19079  0.48989  0.33049  1.0000
  Fe  Fe65      1.0  0.20477  0.49977  0.36354  1.0000
  S   S124      1.0  0.19805  0.51960  0.38510  1.0000
  S   S125      1.0  0.21216  0.50772  0.33198  1.0000
  C   C488      1.0  0.17710  0.92386  0.38129  1.0000
  H   H579      1.0  0.16344  0.91978  0.38948  1.0000
  C   C489      1.0  0.15691  0.92251  0.35198  1.0000
  H   H580      1.0  0.22141  0.74883  0.47344  1.0000
  H   H581      1.0  0.00509  0.60456  0.32908  1.0000
  H   H582      1.0  0.20034  0.89251  0.38980  1.0000
  Fe  Fe66      1.0  0.00456  0.73009  0.59767  1.0000
  H   H583      1.0  0.13187  0.61108  0.60640  1.0000
  S   S126      1.0  0.03259  0.72066  0.57917  1.0000
  H   H584      1.0  0.99117  0.58594  0.33449  1.0000
  C   C490      1.0  0.20644  0.72430  0.48322  1.0000
  Fe  Fe67      1.0  0.18816  0.64002  0.42078  1.0000
  H   H585      1.0  0.07974  0.77363  0.60676  1.0000
  S   S127      1.0  0.18923  0.63240  0.45230  1.0000
  Fe  Fe68      1.0  0.16345  0.64936  0.38988  1.0000
  S   S128      1.0  0.18864  0.65203  0.36672  1.0000
  S   S129      1.0  0.13320  0.65289  0.38438  1.0000
  Fe  Fe69      1.0  0.20273  0.62531  0.38319  1.0000
  H   H586      1.0  0.08735  0.64644  0.60087  1.0000
  Fe  Fe70      1.0  0.19876  0.66781  0.38514  1.0000
  S   S130      1.0  0.17689  0.62179  0.40554  1.0000
  S   S131      1.0  0.17224  0.66728  0.40720  1.0000
  Fe  Fe71      1.0  0.18188  0.69440  0.56707  1.0000
  S   S132      1.0  0.18758  0.67028  0.55052  1.0000
  S   S133      1.0  0.20061  0.71703  0.56233  1.0000
  Fe  Fe72      1.0  0.13978  0.68996  0.58155  1.0000
  S   S134      1.0  0.14221  0.66658  0.56510  1.0000
  S   S135      1.0  0.11395  0.69747  0.60377  1.0000
  Fe  Fe73      1.0  0.16968  0.65542  0.57616  1.0000
  S   S136      1.0  0.17052  0.62442  0.58904  1.0000
  Fe  Fe74      1.0  0.15967  0.68332  0.54110  1.0000
  S   S137      1.0  0.15572  0.69032  0.51027  1.0000
  S   S138      1.0  0.16662  0.67825  0.59359  1.0000
  S   S139      1.0  0.15451  0.70807  0.55654  1.0000
  C   C491      1.0  0.18082  0.61508  0.60948  1.0000
  C   C492      1.0  0.19299  0.62459  0.61513  1.0000
  H   H587      1.0  0.21293  0.70175  0.52784  1.0000
  C   C493      1.0  0.21715  0.73509  0.50880  1.0000
  C   C494      1.0  0.16370  0.60887  0.30741  1.0000
  H   H588      1.0  0.20333  0.59831  0.32793  1.0000
  H   H589      1.0  0.19629  0.63796  0.60682  1.0000
  N   N33       1.0  0.14201  0.71210  0.37157  1.0000
  H   H590      1.0  0.16756  0.59012  0.61575  1.0000
  C   C495      1.0  0.16512  0.67401  0.49441  1.0000
  C   C496      1.0  0.16263  0.67942  0.47536  1.0000
  C   C497      1.0  0.17011  0.66693  0.46225  1.0000
  C   C498      1.0  0.18003  0.64883  0.46813  1.0000
  C   C499      1.0  0.18257  0.64348  0.48718  1.0000
  C   C500      1.0  0.17522  0.65603  0.50026  1.0000
  H   H591      1.0  0.15476  0.69329  0.47080  1.0000
  H   H592      1.0  0.16800  0.67120  0.44767  1.0000
  H   H593      1.0  0.19020  0.62950  0.49185  1.0000
  H   H594      1.0  0.17723  0.65169  0.51489  1.0000
  H   H595      1.0  0.16145  0.71396  0.43868  1.0000
  H   H596      1.0  0.20141  0.88167  0.37003  1.0000
  C   C501      1.0  0.12298  0.65101  0.32490  1.0000
  C   C502      1.0  0.14092  0.65309  0.32762  1.0000
  C   C503      1.0  0.14415  0.65377  0.34574  1.0000
  C   C504      1.0  0.12938  0.65265  0.36132  1.0000
  C   C505      1.0  0.11128  0.65093  0.35858  1.0000
  C   C506      1.0  0.10812  0.64990  0.34044  1.0000
  H   H597      1.0  0.18635  0.92383  0.39172  1.0000
  H   H598      1.0  0.15806  0.65529  0.34754  1.0000
  H   H599      1.0  0.09972  0.65018  0.37055  1.0000
  H   H600      1.0  0.11144  0.71771  0.37974  1.0000
  C   C507      1.0  0.19880  0.71277  0.45676  1.0000
  H   H601      1.0  0.98896  0.65624  0.62963  1.0000
  S   S140      1.0  0.02603  0.63437  0.32511  1.0000
  S   S141      1.0  0.08027  0.61817  0.30754  1.0000
  S   S142      1.0  0.18185  0.48409  0.36206  1.0000
  C   C508      1.0  0.05489  0.71367  0.58666  1.0000
  C   C509      1.0  0.07118  0.70977  0.57303  1.0000
  C   C510      1.0  0.08935  0.70478  0.57814  1.0000
  C   C511      1.0  0.09134  0.70373  0.59695  1.0000
  C   C512      1.0  0.07505  0.70752  0.61067  1.0000
  C   C513      1.0  0.05683  0.71245  0.60555  1.0000
  H   H602      1.0  0.06976  0.71069  0.55839  1.0000
  H   H603      1.0  0.10181  0.70185  0.56749  1.0000
  H   H604      1.0  0.07652  0.70662  0.62528  1.0000
  H   H605      1.0  0.04433  0.71524  0.61619  1.0000
  C   C514      1.0  0.16945  0.89566  0.32781  1.0000
  C   C515      1.0  0.10249  0.62617  0.63259  1.0000
  H   H606      1.0  0.12524  0.60814  0.31008  1.0000
  H   H607      1.0  0.09419  0.64845  0.33845  1.0000
  C   C516      1.0  0.09928  0.65161  0.60453  1.0000
  H   H608      1.0  0.20018  0.93228  0.34853  1.0000
  H   H609      1.0  0.21796  0.54019  0.35071  1.0000
  S   S143      1.0  0.21542  0.64135  0.39953  1.0000
  H   H610      1.0  0.18250  0.72359  0.40838  1.0000
  C   C517      1.0  0.17263  0.96018  0.31936  1.0000
  S   S144      1.0  0.21784  0.60296  0.36504  1.0000
  C   C518      1.0  0.13511  0.70731  0.40781  1.0000
  C   C519      1.0  0.20444  0.54238  0.37950  1.0000
  C   C520      1.0  0.21274  0.57963  0.37103  1.0000
  C   C521      1.0  0.20354  0.57274  0.38914  1.0000
  C   C522      1.0  0.19951  0.55412  0.39339  1.0000
  H   H611      1.0  0.19967  0.58168  0.39994  1.0000
  H   H612      1.0  0.19236  0.54887  0.40744  1.0000
  C   C523      1.0  0.23123  0.73168  0.56571  1.0000
  C   C524      1.0  0.00529  0.64809  0.31754  1.0000
  C   C525      1.0  0.15474  0.96686  0.31380  1.0000
  C   C526      1.0  0.03490  0.79930  0.61582  1.0000
  C   C527      1.0  0.18533  0.94626  0.31036  1.0000
  C   C528      1.0  0.23125  0.69872  0.58001  1.0000
  H   H613      1.0  0.12690  0.62916  0.58706  1.0000
  C   C529      1.0  0.16386  0.71907  0.39095  1.0000
  C   C530      1.0  0.21391  0.54917  0.36146  1.0000
  H   H614      1.0  0.13541  0.65157  0.60456  1.0000
  H   H615      1.0  0.10692  0.65872  0.59097  1.0000
  H   H616      1.0  0.15725  0.73418  0.35467  1.0000
  N   N34       1.0  0.04479  0.77361  0.59569  1.0000
  C   C531      1.0  0.03249  0.76056  0.60806  1.0000
  H   H617      1.0  0.22545  0.57286  0.34333  1.0000
  C   C532      1.0  0.06182  0.76188  0.58611  1.0000
  C   C533      1.0  0.04941  0.78579  0.60747  1.0000
  H   H618      1.0  0.20222  0.69324  0.51235  1.0000
  H   H619      1.0  0.02037  0.80123  0.61351  1.0000
  H   H620      1.0  0.21183  0.90860  0.34639  1.0000
  H   H621      1.0  0.12210  0.70197  0.40876  1.0000
  H   H622      1.0  0.02897  0.75079  0.59993  1.0000
  H   H623      1.0  0.23235  0.73169  0.50220  1.0000
  H   H624      1.0  0.10911  0.61477  0.59892  1.0000
  H   H625      1.0  0.13893  0.63314  0.62407  1.0000
  C   C534      1.0  0.03454  0.58328  0.30867  1.0000
  C   C535      1.0  0.18018  0.89628  0.34145  1.0000
  H   H626      1.0  0.03178  0.77648  0.57094  1.0000
  H   H627      1.0  0.20760  0.72767  0.42872  1.0000
  H   H628      1.0  0.15239  0.65424  0.31559  1.0000
  H   H629      1.0  0.19091  0.70096  0.48569  1.0000
  H   H630      1.0  0.12176  0.69280  0.38138  1.0000
  S   S145      1.0  0.17805  0.96916  0.33810  1.0000
  H   H631      1.0  0.14461  0.90830  0.31519  1.0000
  H   H632      1.0  0.11960  0.70687  0.35887  1.0000
  H   H633      1.0  0.17588  0.71936  0.51076  1.0000
  H   H634      1.0  0.21667  0.73311  0.52443  1.0000
  H   H635      1.0  0.03513  0.59649  0.31291  1.0000
  C   C536      1.0  0.14039  0.70783  0.42507  1.0000
  N   N35       1.0  0.11213  0.63589  0.61437  1.0000
  C   C537      1.0  0.01766  0.58005  0.30383  1.0000
  C   C538      1.0  0.22117  0.70641  0.38400  1.0000
  C   C539      1.0  0.14627  0.92170  0.33832  1.0000
  N   N36       1.0  0.00036  0.59485  0.30458  1.0000
  C   C540      1.0  0.14262  0.73069  0.35877  1.0000
  C   C541      1.0  0.16904  0.71943  0.40825  1.0000
  H   H636      1.0  0.15326  0.69616  0.34862  1.0000
  C   C542      1.0  0.17680  0.59764  0.62021  1.0000
  N   N37       1.0  0.14317  0.59202  0.37665  1.0000
  C   C543      1.0  0.15630  0.60500  0.36550  1.0000
  C   C544      1.0  0.12379  0.60351  0.37971  1.0000
  C   C545      1.0  0.14879  0.58473  0.39555  1.0000
  C   C546      1.0  0.14432  0.57584  0.36680  1.0000
  C   C547      1.0  0.16208  0.56416  0.36198  1.0000
  C   C548      1.0  0.12805  0.57063  0.36252  1.0000
  C   C549      1.0  0.16356  0.54818  0.35364  1.0000
  C   C550      1.0  0.12970  0.55463  0.35404  1.0000
  C   C551      1.0  0.14742  0.54343  0.34962  1.0000
  H   H637      1.0  0.15279  0.61055  0.35105  1.0000
  H   H638      1.0  0.15546  0.61745  0.37246  1.0000
  H   H639      1.0  0.17153  0.59816  0.36398  1.0000
  H   H640      1.0  0.11874  0.60966  0.36600  1.0000
  H   H641      1.0  0.12353  0.61571  0.38686  1.0000
  H   H642      1.0  0.11331  0.59506  0.38912  1.0000
  H   H643      1.0  0.16378  0.57730  0.39443  1.0000
  H   H644      1.0  0.14766  0.59642  0.40367  1.0000
  H   H645      1.0  0.13970  0.57444  0.40424  1.0000
  H   H646      1.0  0.17496  0.56712  0.36502  1.0000
  H   H647      1.0  0.11389  0.57854  0.36573  1.0000
  H   H648      1.0  0.17730  0.53920  0.35064  1.0000
  H   H649      1.0  0.11713  0.55075  0.35107  1.0000
  H   H650      1.0  0.14868  0.53089  0.34329  1.0000
  S   S146      1.0  0.98943  0.75908  0.58696  1.0000
  C   C552      1.0  0.14673  0.71301  0.39014  1.0000
  C   C553      1.0  0.06785  0.78374  0.61214  1.0000
  C   C554      1.0  0.12025  0.62210  0.60121  1.0000
  H   H651      1.0  0.17099  0.70035  0.36034  1.0000
  H   H652      1.0  0.17377  0.72298  0.37820  1.0000
  C   C555      1.0  0.22239  0.71552  0.57010  1.0000
  C   C556      1.0  0.21492  0.73844  0.46956  1.0000
  H   H653      1.0  0.22459  0.68618  0.58344  1.0000
  C   C557      1.0  0.21807  0.56772  0.35729  1.0000
  H   H654      1.0  0.15599  0.68326  0.37179  1.0000
  H   H655      1.0  0.17450  0.88563  0.31803  1.0000
  C   C558      1.0  0.19814  0.71170  0.47620  1.0000
  H   H656      1.0  0.17964  0.74347  0.50633  1.0000
  C   C559      1.0  0.21208  0.70299  0.51258  1.0000
  H   H657      1.0  0.98676  0.63911  0.34353  1.0000
  H   H658      1.0  0.12824  0.58410  0.32237  1.0000
  H   H659      1.0  0.09678  0.48293  0.32577  1.0000
  H   H660      1.0  0.06398  0.57268  0.31114  1.0000
  C   C560      1.0  0.05110  0.56964  0.30794  1.0000
  C   C561      1.0  0.12283  0.70724  0.37304  1.0000
  H   H661      1.0  0.19350  0.88654  0.34164  1.0000
  S   S147      1.0  0.21123  0.95769  0.37713  1.0000
  H   H662      1.0  0.04235  0.79648  0.57202  1.0000
  H   H663      1.0  0.22441  0.74476  0.55811  1.0000
  H   H664      1.0  0.18389  0.72823  0.52825  1.0000
  C   C562      1.0  0.12785  0.64408  0.61789  1.0000
  S   S148      1.0  0.20831  0.69608  0.37188  1.0000
  H   H665      1.0  0.15161  0.93378  0.36023  1.0000
  H   H666      1.0  0.13331  0.74239  0.36565  1.0000
  H   H667      1.0  0.22609  0.68176  0.40541  1.0000
  C   C563      1.0  0.98756  0.64756  0.32946  1.0000
  N   N38       1.0  0.18639  0.91080  0.36760  1.0000
  H   H668      1.0  0.19913  0.94095  0.31445  1.0000
  H   H669      1.0  0.17432  0.93891  0.37401  1.0000
  H   H670      1.0  0.13346  0.93199  0.33656  1.0000
  H   H671      1.0  0.17924  0.88533  0.38618  1.0000
  H   H672      1.0  0.13155  0.70307  0.43841  1.0000
  C   C564      1.0  0.15729  0.71389  0.42528  1.0000
  N   N39       1.0  0.20542  0.72289  0.50392  1.0000
  C   C565      1.0  0.15618  0.69742  0.36265  1.0000
  H   H673      1.0  0.09337  0.66303  0.61324  1.0000
  Fe  Fe75      1.0  0.20690  0.96693  0.34677  1.0000
  Fe  Fe76      1.0  0.23279  0.48011  0.33363  1.0000
  H   H674      1.0  0.07202  0.77085  0.57703  1.0000
  H   H675      1.0  0.06931  0.75113  0.59649  1.0000
  H   H676      1.0  0.01874  0.76836  0.61464  1.0000
  C   C566      1.0  0.19199  0.89177  0.37884  1.0000
  C   C567      1.0  0.20382  0.91784  0.35674  1.0000
  H   H677      1.0  0.01988  0.79237  0.58658  1.0000
  H   H678      1.0  0.21184  0.75045  0.50439  1.0000
  H   H679      1.0  0.13784  0.73086  0.34518  1.0000
  H   H680      1.0  0.20178  0.56613  0.32276  1.0000
  C   C568      1.0  0.22429  0.72520  0.37728  1.0000
  C   C569      1.0  0.20721  0.72677  0.44378  1.0000
  H   H681      1.0  0.03956  0.75170  0.61981  1.0000
  S   S149      1.0  0.99803  0.73436  0.62819  1.0000
  H   H682      1.0  0.22188  0.75035  0.43991  1.0000
  H   H683      1.0  0.05786  0.75351  0.57675  1.0000
  H   H684      1.0  0.19277  0.70263  0.45179  1.0000
  C   C570      1.0  0.03431  0.78531  0.58069  1.0000
  C   C571      1.0  0.99416  0.59896  0.32421  1.0000
  C   C572      1.0  0.15254  0.90835  0.32625  1.0000
  C   C573      1.0  0.17419  0.90967  0.35406  1.0000
  S   S150      1.0  0.16670  0.50250  0.31378  1.0000
  H   H685      1.0  0.21368  0.91868  0.36627  1.0000
  C   C574      1.0  0.18537  0.72874  0.51268  1.0000
  C   C575      1.0  0.17653  0.57530  0.30993  1.0000
  C   C576      1.0  0.22845  0.69622  0.40008  1.0000
  H   H686      1.0  0.07394  0.64361  0.63302  1.0000
  C   C577      1.0  0.21522  0.73957  0.45015  1.0000
  C   C578      1.0  0.12823  0.59302  0.30812  1.0000
  H   H687      1.0  0.12236  0.65469  0.62745  1.0000
  C   C579      1.0  0.03857  0.81007  0.62802  1.0000
  H   H688      1.0  0.02711  0.82000  0.63454  1.0000
  H   H689      1.0  0.08545  0.79270  0.62795  1.0000
  H   H690      1.0  0.21865  0.73318  0.36487  1.0000
  H   H691      1.0  0.17916  0.62553  0.31812  1.0000
  H   H692      1.0  0.22641  0.69740  0.50510  1.0000
  C   C580      1.0  0.05673  0.80767  0.63239  1.0000
  C   C581      1.0  0.16237  0.59072  0.30407  1.0000
  C   C582      1.0  0.19204  0.59614  0.32134  1.0000
  C   C583      1.0  0.19112  0.57808  0.31841  1.0000
  C   C584      1.0  0.20142  0.61645  0.63123  1.0000
  H   H693      1.0  0.14694  0.55822  0.30500  1.0000
  C   C585      1.0  0.17838  0.61150  0.31581  1.0000
  C   C586      1.0  0.07136  0.79461  0.62439  1.0000
  H   H694      1.0  0.17669  0.56091  0.30819  1.0000
  H   H695      1.0  0.15336  0.62123  0.30355  1.0000
  H   H696      1.0  0.21113  0.62368  0.63536  1.0000
  Fe  Fe77      1.0  0.05239  0.63671  0.30297  1.0000
  H   H697      1.0  0.98617  0.72471  0.50526  1.0000
  C   C587      1.0  0.05133  0.55234  0.30256  1.0000
  Fe  Fe78      1.0  0.02021  0.58136  0.74307  1.0000
  Fe  Fe79      1.0  0.98606  0.73650  0.84048  1.0000
  S   S151      1.0  0.04640  0.55973  0.74903  1.0000
  S   S152      1.0  0.02037  0.61223  0.74217  1.0000
  H   H698      1.0  0.10731  0.88538  0.66091  1.0000
  S   S153      1.0  0.01719  0.69698  0.86979  1.0000
  H   H699      1.0  0.14944  0.66792  0.65250  1.0000
  S   S154      1.0  0.01568  0.72407  0.82879  1.0000
  H   H700      1.0  0.04051  0.84565  0.76250  1.0000
  Fe  Fe80      1.0  0.00760  0.69587  0.84268  1.0000
  S   S155      1.0  0.02105  0.67225  0.82549  1.0000
  Fe  Fe81      1.0  0.02329  0.72619  0.85648  1.0000
  S   S156      1.0  0.05212  0.73592  0.85143  1.0000
  H   H701      1.0  0.01687  0.79938  0.81040  1.0000
  S   S157      1.0  0.01350  0.86495  0.69497  1.0000
  Fe  Fe82      1.0  0.00704  0.84131  0.74813  1.0000
  S   S158      1.0  0.03250  0.83304  0.72674  1.0000
  C   C588      1.0  0.13624  0.88400  0.87801  1.0000
  Fe  Fe83      1.0  0.03189  0.86428  0.71683  1.0000
  S   S159      1.0  0.06205  0.87142  0.71163  1.0000
  Fe  Fe84      1.0  0.01226  0.83411  0.70692  1.0000
  S   S160      1.0  0.01834  0.80820  0.69194  1.0000
  Fe  Fe85      1.0  0.19333  0.55285  0.72762  1.0000
  S   S161      1.0  0.21034  0.54243  0.70148  1.0000
  S   S162      1.0  0.20700  0.54921  0.75368  1.0000
  Fe  Fe86      1.0  0.15618  0.56333  0.71057  1.0000
  S   S163      1.0  0.17070  0.55264  0.68345  1.0000
  S   S164      1.0  0.12728  0.58252  0.71108  1.0000
  Fe  Fe87      1.0  0.18555  0.52803  0.70239  1.0000
  S   S165      1.0  0.19295  0.49599  0.70412  1.0000
  Fe  Fe88      1.0  0.19403  0.56788  0.68521  1.0000
  S   S166      1.0  0.20726  0.58991  0.66276  1.0000
  S   S167      1.0  0.16895  0.53753  0.72946  1.0000
  S   S168      1.0  0.17907  0.57950  0.71148  1.0000
  Fe  Fe89      1.0  0.15983  0.91926  0.78267  1.0000
  S   S169      1.0  0.18271  0.89567  0.77323  1.0000
  S   S170      1.0  0.17062  0.93451  0.80164  1.0000
  Fe  Fe90      1.0  0.13118  0.90802  0.76289  1.0000
  S   S171      1.0  0.15227  0.88398  0.75217  1.0000
  S   S172      1.0  0.10060  0.91502  0.75724  1.0000
  Fe  Fe91      1.0  0.15982  0.87760  0.78143  1.0000
  S   S173      1.0  0.16606  0.84711  0.79606  1.0000
  Fe  Fe92      1.0  0.17328  0.90426  0.74504  1.0000
  S   S174      1.0  0.19305  0.90862  0.71658  1.0000
  S   S175      1.0  0.13743  0.90038  0.79283  1.0000
  S   S176      1.0  0.15162  0.92912  0.75375  1.0000
  Fe  Fe93      1.0  0.12829  0.75339  0.90950  1.0000
  S   S177      1.0  0.14803  0.76418  0.88333  1.0000
  S   S178      1.0  0.10100  0.74136  0.91258  1.0000
  Fe  Fe94      1.0  0.15003  0.76542  0.93633  1.0000
  S   S179      1.0  0.17109  0.77778  0.91219  1.0000
  H   H702      1.0  0.17203  0.64067  0.65062  1.0000
  Fe  Fe95      1.0  0.14571  0.78945  0.89740  1.0000
  S   S180      1.0  0.13657  0.81977  0.88353  1.0000
  Fe  Fe96      1.0  0.17177  0.75153  0.90022  1.0000
  S   S181      1.0  0.19829  0.73173  0.88947  1.0000
  S   S182      1.0  0.12464  0.77938  0.92272  1.0000
  S   S183      1.0  0.15218  0.73847  0.92514  1.0000
  C   C589      1.0  0.15728  0.83966  0.82027  1.0000
  C   C590      1.0  0.16391  0.82114  0.82893  1.0000
  C   C591      1.0  0.15757  0.81481  0.84830  1.0000
  C   C592      1.0  0.14448  0.82699  0.85910  1.0000
  C   C593      1.0  0.13760  0.84542  0.85039  1.0000
  C   C594      1.0  0.14399  0.85176  0.83104  1.0000
  H   H703      1.0  0.17415  0.81170  0.82065  1.0000
  H   H704      1.0  0.16293  0.80059  0.85488  1.0000
  H   H705      1.0  0.12739  0.85486  0.85866  1.0000
  H   H706      1.0  0.13866  0.86600  0.82452  1.0000
  C   C595      1.0  0.16805  0.95935  0.80090  1.0000
  C   C596      1.0  0.21070  0.94846  0.76204  1.0000
  C   C597      1.0  0.00139  0.65514  0.68093  1.0000
  H   H707      1.0  0.18990  0.95622  0.81781  1.0000
  C   C598      1.0  0.18475  0.90605  0.84367  1.0000
  S   S184      1.0  0.00707  0.87268  0.73932  1.0000
  H   H708      1.0  0.14540  0.90342  0.85346  1.0000
  C   C599      1.0  0.00385  0.78108  0.65469  1.0000
  H   H709      1.0  0.17049  0.79264  0.95443  1.0000
  C   C600      1.0  0.17954  0.96615  0.81044  1.0000
  Fe  Fe97      1.0  0.00582  0.61652  0.71695  1.0000
  C   C601      1.0  0.18355  0.49254  0.67019  1.0000
  H   H710      1.0  0.17870  0.50773  0.66809  1.0000
  H   H711      1.0  0.00779  0.76714  0.65070  1.0000
  C   C602      1.0  0.17244  0.86211  0.87128  1.0000
  S   S185      1.0  0.14969  0.76078  0.96810  1.0000
  C   C603      1.0  0.00945  0.64368  0.78798  1.0000
  C   C604      1.0  0.21746  0.89850  0.71540  1.0000
  C   C605      1.0  0.00529  0.79618  0.80506  1.0000
  C   C606      1.0  0.22125  0.49868  0.74913  1.0000
  C   C607      1.0  0.01220  0.78547  0.66872  1.0000
  H   H712      1.0  0.23170  0.60916  0.83823  1.0000
  H   H713      1.0  0.21497  0.88590  0.74492  1.0000
  C   C608      1.0  0.23384  0.57195  0.73615  1.0000
  H   H714      1.0  0.03332  0.65484  0.79211  1.0000
  H   H715      1.0  0.12338  0.86029  0.79489  1.0000
  C   C609      1.0  0.22065  0.73081  0.89575  1.0000
  C   C610      1.0  0.11207  0.85551  0.79044  1.0000
  H   H716      1.0  0.22133  0.50210  0.76330  1.0000
  C   C611      1.0  0.22640  0.74693  0.89888  1.0000
  H   H717      1.0  0.21671  0.76033  0.89811  1.0000
  C   C612      1.0  0.08280  0.84309  0.77809  1.0000
  C   C613      1.0  0.01848  0.65373  0.79710  1.0000
  H   H718      1.0  0.15346  0.61490  0.65346  1.0000
  H   H719      1.0  0.00166  0.77574  0.73515  1.0000
  H   H720      1.0  0.20960  0.49042  0.75055  1.0000
  H   H721      1.0  0.14872  0.64163  0.70146  1.0000
  C   C614      1.0  0.07212  0.88278  0.72562  1.0000
  C   C615      1.0  0.06142  0.89740  0.73504  1.0000
  C   C616      1.0  0.07030  0.90697  0.74482  1.0000
  C   C617      1.0  0.08985  0.90180  0.74567  1.0000
  C   C618      1.0  0.10038  0.88670  0.73688  1.0000
  C   C619      1.0  0.09165  0.87751  0.72660  1.0000
  H   H722      1.0  0.04642  0.90172  0.73430  1.0000
  H   H723      1.0  0.06199  0.91861  0.75161  1.0000
  H   H724      1.0  0.11530  0.88232  0.73773  1.0000
  H   H725      1.0  0.10011  0.86634  0.71926  1.0000
  C   C620      1.0  0.06587  0.73628  0.86870  1.0000
  C   C621      1.0  0.08441  0.74055  0.86263  1.0000
  C   C622      1.0  0.09560  0.74170  0.87586  1.0000
  C   C623      1.0  0.08820  0.73887  0.89529  1.0000
  C   C624      1.0  0.06977  0.73435  0.90133  1.0000
  C   C625      1.0  0.05865  0.73303  0.88813  1.0000
  H   H726      1.0  0.09010  0.74314  0.84762  1.0000
  H   H727      1.0  0.10986  0.74490  0.87104  1.0000
  H   H728      1.0  0.06398  0.73204  0.91635  1.0000
  H   H729      1.0  0.04441  0.72977  0.89298  1.0000
  H   H730      1.0  0.16207  0.84244  0.89574  1.0000
  H   H731      1.0  0.05547  0.82436  0.79937  1.0000
  H   H732      1.0  0.07265  0.80761  0.78701  1.0000
  H   H733      1.0  0.08819  0.81776  0.75396  1.0000
  H   H734      1.0  0.02262  0.77482  0.67532  1.0000
  H   H735      1.0  0.06529  0.82474  0.74713  1.0000
  H   H736      1.0  0.08130  0.84146  0.74195  1.0000
  C   C626      1.0  0.00727  0.80350  0.67419  1.0000
  C   C627      1.0  0.06890  0.56572  0.73787  1.0000
  C   C628      1.0  0.07041  0.58356  0.72675  1.0000
  C   C629      1.0  0.08842  0.58845  0.71880  1.0000
  C   C630      1.0  0.10511  0.57542  0.72147  1.0000
  C   C631      1.0  0.10368  0.55748  0.73242  1.0000
  C   C632      1.0  0.08560  0.55271  0.74071  1.0000
  H   H737      1.0  0.05770  0.59366  0.72431  1.0000
  H   H738      1.0  0.08941  0.60239  0.71046  1.0000
  H   H739      1.0  0.11646  0.54737  0.73462  1.0000
  H   H740      1.0  0.08456  0.53888  0.74930  1.0000
  H   H741      1.0  0.08907  0.68035  0.65745  1.0000
  H   H742      1.0  0.05481  0.86342  0.75761  1.0000
  C   C633      1.0  0.00848  0.66208  0.81284  1.0000
  C   C634      1.0  0.22527  0.72100  0.95009  1.0000
  H   H743      1.0  0.04731  0.56159  0.81282  1.0000
  S   S186      1.0  0.01695  0.63490  0.68964  1.0000
  H   H744      1.0  0.12720  0.82706  0.79053  1.0000
  C   C635      1.0  0.17018  0.63804  0.66641  1.0000
  C   C636      1.0  0.14081  0.86691  0.89003  1.0000
  H   H745      1.0  0.05256  0.59136  0.76432  1.0000
  C   C637      1.0  0.19180  0.48358  0.68611  1.0000
  H   H746      1.0  0.07791  0.59932  0.68074  1.0000
  C   C638      1.0  0.21010  0.61815  0.80882  1.0000
  C   C639      1.0  0.19726  0.59910  0.64207  1.0000
  H   H747      1.0  0.13997  0.60618  0.67595  1.0000
  C   C640      1.0  0.10170  0.67063  0.66108  1.0000
  C   C641      1.0  0.13604  0.66311  0.65853  1.0000
  C   C642      1.0  0.10399  0.60108  0.66070  1.0000
  H   H748      1.0  0.05934  0.81579  0.64222  1.0000
  H   H749      1.0  0.12912  0.48183  0.69772  1.0000
  C   C643      1.0  0.99893  0.80779  0.78901  1.0000
  S   S187      1.0  0.98668  0.83995  0.72943  1.0000
  C   C644      1.0  0.08477  0.60684  0.66753  1.0000
  C   C645      1.0  0.02389  0.61825  0.83425  1.0000
  H   H750      1.0  0.18889  0.90644  0.85741  1.0000
  Fe  Fe98      1.0  0.99114  0.61258  0.75963  1.0000
  H   H751      1.0  0.16513  0.60247  0.67293  1.0000
  H   H752      1.0  0.17449  0.48864  0.64508  1.0000
  H   H753      1.0  0.07658  0.90238  0.67550  1.0000
  C   C646      1.0  0.23343  0.71359  0.89656  1.0000
  H   H754      1.0  0.01033  0.62470  0.84158  1.0000
  H   H755      1.0  0.16389  0.61901  0.70044  1.0000
  N   N40       1.0  0.07688  0.69063  0.82286  1.0000
  C   C647      1.0  0.06514  0.68373  0.84115  1.0000
  C   C648      1.0  0.09116  0.70041  0.82711  1.0000
  C   C649      1.0  0.06445  0.70501  0.81123  1.0000
  C   C650      1.0  0.08548  0.67444  0.81275  1.0000
  C   C651      1.0  0.10544  0.66766  0.80933  1.0000
  C   C652      1.0  0.07375  0.66470  0.80621  1.0000
  C   C653      1.0  0.11300  0.65234  0.79966  1.0000
  C   C654      1.0  0.08142  0.64947  0.79654  1.0000
  C   C655      1.0  0.10102  0.64331  0.79323  1.0000
  H   H756      1.0  0.07377  0.67266  0.85026  1.0000
  H   H757      1.0  0.05865  0.69549  0.84932  1.0000
  H   H758      1.0  0.05311  0.67752  0.83912  1.0000
  H   H759      1.0  0.10005  0.69094  0.83712  1.0000
  H   H760      1.0  0.08421  0.71282  0.83421  1.0000
  H   H761      1.0  0.10047  0.70602  0.81392  1.0000
  H   H762      1.0  0.05157  0.69978  0.80976  1.0000
  H   H763      1.0  0.05889  0.71802  0.81778  1.0000
  H   H764      1.0  0.07226  0.70945  0.79673  1.0000
  H   H765      1.0  0.11552  0.67398  0.81392  1.0000
  H   H766      1.0  0.05847  0.66886  0.80848  1.0000
  H   H767      1.0  0.12826  0.64749  0.79707  1.0000
  H   H768      1.0  0.07201  0.64250  0.79157  1.0000
  H   H769      1.0  0.10694  0.63153  0.78564  1.0000
  N   N41       1.0  0.18235  0.88661  0.84248  1.0000
  C   C656      1.0  0.20150  0.87452  0.84126  1.0000
  C   C657      1.0  0.17542  0.88729  0.82462  1.0000
  H   H770      1.0  0.06891  0.56946  0.79977  1.0000
  C   C658      1.0  0.16832  0.87958  0.85884  1.0000
  C   C659      1.0  0.99809  0.76821  0.72485  1.0000
  C   C660      1.0  0.14972  0.89024  0.86258  1.0000
  H   H771      1.0  0.01584  0.57887  0.80453  1.0000
  H   H772      1.0  0.19679  0.74290  0.93255  1.0000
  H   H773      1.0  0.06775  0.59866  0.77656  1.0000
  H   H774      1.0  0.20763  0.87339  0.85429  1.0000
  H   H775      1.0  0.20097  0.86000  0.83899  1.0000
  H   H776      1.0  0.21175  0.88044  0.82900  1.0000
  H   H777      1.0  0.17371  0.87294  0.82292  1.0000
  C   C661      1.0  0.04075  0.62176  0.83796  1.0000
  H   H778      1.0  0.18972  0.71507  0.95336  1.0000
  H   H779      1.0  0.04340  0.85592  0.78170  1.0000
  H   H780      1.0  0.18550  0.89281  0.81205  1.0000
  H   H781      1.0  0.13827  0.48035  0.71890  1.0000
  C   C662      1.0  0.05257  0.59848  0.77642  1.0000
  C   C663      1.0  0.22839  0.60076  0.78427  1.0000
  C   C664      1.0  0.22449  0.88813  0.73155  1.0000
  H   H782      1.0  0.13026  0.86182  0.90175  1.0000
  H   H783      1.0  0.07585  0.92344  0.69820  1.0000
  N   N42       1.0  0.08242  0.80383  0.88416  1.0000
  C   C665      1.0  0.08584  0.82257  0.88649  1.0000
  C   C666      1.0  0.07547  0.79367  0.90339  1.0000
  C   C667      1.0  0.10093  0.79306  0.87639  1.0000
  C   C668      1.0  0.06868  0.80523  0.87130  1.0000
  C   C669      1.0  0.06214  0.82253  0.85967  1.0000
  C   C670      1.0  0.06198  0.78880  0.86957  1.0000
  C   C671      1.0  0.04924  0.82326  0.84760  1.0000
  C   C672      1.0  0.04914  0.78967  0.85745  1.0000
  C   C673      1.0  0.04269  0.80688  0.84656  1.0000
  H   H784      1.0  0.09548  0.82100  0.89698  1.0000
  H   H785      1.0  0.09323  0.83017  0.87305  1.0000
  H   H786      1.0  0.07233  0.83170  0.89167  1.0000
  H   H787      1.0  0.08480  0.79363  0.91373  1.0000
  H   H788      1.0  0.07541  0.77839  0.90362  1.0000
  H   H789      1.0  0.06078  0.80028  0.90907  1.0000
  H   H790      1.0  0.10670  0.80009  0.86192  1.0000
  H   H791      1.0  0.11176  0.79191  0.88547  1.0000
  H   H792      1.0  0.09980  0.77834  0.87552  1.0000
  H   H793      1.0  0.06676  0.83569  0.85966  1.0000
  H   H794      1.0  0.06666  0.77507  0.87755  1.0000
  H   H795      1.0  0.04422  0.83663  0.83904  1.0000
  H   H796      1.0  0.04417  0.77686  0.85652  1.0000
  H   H797      1.0  0.03259  0.80748  0.83731  1.0000
  N   N43       1.0  0.15185  0.63138  0.67519  1.0000
  H   H798      1.0  0.12211  0.89232  0.88053  1.0000
  H   H799      1.0  0.15429  0.47733  0.69686  1.0000
  H   H800      1.0  0.18254  0.61495  0.77744  1.0000
  C   C674      1.0  0.13488  0.64496  0.67001  1.0000
  C   C675      1.0  0.00721  0.66612  0.66332  1.0000
  C   C676      1.0  0.11635  0.64037  0.67694  1.0000
  H   H801      1.0  0.22237  0.71427  0.93881  1.0000
  H   H802      1.0  0.18267  0.62722  0.67015  1.0000
  H   H803      1.0  0.05441  0.56065  0.78786  1.0000
  C   C677      1.0  0.23008  0.90095  0.69803  1.0000
  H   H804      1.0  0.22476  0.90881  0.68541  1.0000
  H   H805      1.0  0.13877  0.62045  0.70368  1.0000
  C   C678      1.0  0.20119  0.74840  0.94387  1.0000
  C   C679      1.0  0.18112  0.48169  0.65722  1.0000
  C   C680      1.0  0.19451  0.96131  0.75802  1.0000
  H   H806      1.0  0.18179  0.57623  0.64468  1.0000
  C   C681      1.0  0.22990  0.74418  0.83875  1.0000
  H   H807      1.0  0.11434  0.62692  0.68595  1.0000
  C   C682      1.0  0.06124  0.82015  0.78521  1.0000
  S   S188      1.0  0.99389  0.74115  0.86728  1.0000
  H   H808      1.0  0.09411  0.88285  0.78868  1.0000
  C   C683      1.0  0.05819  0.61400  0.82818  1.0000
  H   H809      1.0  0.07261  0.59746  0.80700  1.0000
  C   C684      1.0  0.11962  0.67571  0.65425  1.0000
  C   C685      1.0  0.02430  0.60734  0.82045  1.0000
  H   H810      1.0  0.20824  0.62414  0.82156  1.0000
  C   C686      1.0  0.22836  0.55808  0.75147  1.0000
  H   H811      1.0  0.02140  0.66248  0.65553  1.0000
  C   C687      1.0  0.02390  0.58648  0.79157  1.0000
  H   H812      1.0  0.10219  0.81592  0.77994  1.0000
  H   H813      1.0  0.04533  0.61343  0.77304  1.0000
  C   C688      1.0  0.08982  0.90438  0.67885  1.0000
  C   C689      1.0  0.05387  0.56929  0.79902  1.0000
  S   S189      1.0  0.00760  0.58546  0.71659  1.0000
  S   S190      1.0  0.99172  0.58114  0.76253  1.0000
  H   H814      1.0  0.01721  0.63739  0.77587  1.0000
  N   N44       1.0  0.06799  0.83627  0.77125  1.0000
  H   H815      1.0  0.12083  0.68935  0.64514  1.0000
  C   C690      1.0  0.99456  0.68160  0.65556  1.0000
  C   C691      1.0  0.10007  0.65301  0.67245  1.0000
  C   C692      1.0  0.99665  0.78047  0.81437  1.0000
  H   H816      1.0  0.18190  0.95603  0.75701  1.0000
  H   H817      1.0  0.11207  0.58912  0.66880  1.0000
  H   H818      1.0  0.02520  0.57805  0.78013  1.0000
  H   H819      1.0  0.17156  0.91665  0.84222  1.0000
  H   H820      1.0  0.21228  0.75714  0.93670  1.0000
  H   H821      1.0  0.07126  0.61677  0.83116  1.0000
  C   C693      1.0  0.04184  0.59952  0.80992  1.0000
  H   H822      1.0  0.98695  0.73046  0.93110  1.0000
  C   C694      1.0  0.08294  0.63183  0.64013  1.0000
  C   C695      1.0  0.15884  0.85602  0.88665  1.0000
  C   C696      1.0  0.21223  0.60324  0.77594  1.0000
  N   N45       1.0  0.14234  0.90905  0.69504  1.0000
  C   C697      1.0  0.15504  0.91794  0.67850  1.0000
  C   C698      1.0  0.13970  0.92033  0.71046  1.0000
  C   C699      1.0  0.15211  0.88965  0.70186  1.0000
  C   C700      1.0  0.12422  0.90802  0.68934  1.0000
  C   C701      1.0  0.12414  0.89656  0.67579  1.0000
  C   C702      1.0  0.10631  0.91810  0.69694  1.0000
  C   C703      1.0  0.10714  0.89467  0.67081  1.0000
  C   C704      1.0  0.08944  0.91625  0.69167  1.0000
  H   H823      1.0  0.14815  0.93247  0.67278  1.0000
  H   H824      1.0  0.16874  0.91914  0.68243  1.0000
  H   H825      1.0  0.15882  0.90956  0.66674  1.0000
  H   H826      1.0  0.13340  0.93542  0.70606  1.0000
  H   H827      1.0  0.15349  0.92060  0.71464  1.0000
  H   H828      1.0  0.13044  0.91425  0.72347  1.0000
  H   H829      1.0  0.15704  0.88090  0.69044  1.0000
  H   H830      1.0  0.16510  0.88998  0.70755  1.0000
  H   H831      1.0  0.14253  0.88191  0.71338  1.0000
  H   H832      1.0  0.13720  0.88873  0.66918  1.0000
  H   H833      1.0  0.10475  0.92699  0.70750  1.0000
  H   H834      1.0  0.06887  0.87284  0.77820  1.0000
  C   C705      1.0  0.05102  0.85102  0.76826  1.0000
  H   H835      1.0  0.21064  0.93332  0.76396  1.0000
  C   C706      1.0  0.11418  0.83675  0.78793  1.0000
  C   C707      1.0  0.98931  0.66048  0.81922  1.0000
  C   C708      1.0  0.15253  0.61302  0.66909  1.0000
  C   C709      1.0  0.19504  0.61318  0.78394  1.0000
  C   C710      1.0  0.05879  0.60301  0.81438  1.0000
  C   C711      1.0  0.09979  0.83056  0.78187  1.0000
  H   H836      1.0  0.04957  0.81518  0.78073  1.0000
  C   C712      1.0  0.08107  0.86214  0.78093  1.0000
  H   H837      1.0  0.08608  0.64911  0.67781  1.0000
  H   H838      1.0  0.18593  0.85270  0.86935  1.0000
  N   N46       1.0  0.04287  0.58865  0.79457  1.0000
  C   C713      1.0  0.07611  0.82973  0.75285  1.0000
  C   C714      1.0  0.09555  0.86814  0.78701  1.0000
  H   H839      1.0  0.17134  0.65119  0.67126  1.0000
  C   C715      1.0  0.99380  0.81711  0.66549  1.0000
  C   C716      1.0  0.22788  0.60804  0.80098  1.0000
  H   H840      1.0  0.16149  0.89682  0.82391  1.0000
  H   H841      1.0  0.98983  0.83104  0.66953  1.0000
  H   H842      1.0  0.04018  0.63078  0.84824  1.0000
  H   H843      1.0  0.21308  0.59723  0.76329  1.0000
  H   H844      1.0  0.22901  0.70102  0.89434  1.0000
  C   C717      1.0  0.15071  0.62802  0.69609  1.0000
  H   H845      1.0  0.19577  0.91149  0.83193  1.0000
  S   S191      1.0  0.00949  0.82793  0.77848  1.0000
  H   H846      1.0  0.21712  0.51238  0.73981  1.0000
  C   C718      1.0  0.98570  0.81284  0.65121  1.0000
  H   H847      1.0  0.01060  0.60585  0.81791  1.0000
  H   H848      1.0  0.05930  0.62664  0.66280  1.0000
  C   C719      1.0  0.99067  0.79483  0.64570  1.0000
  H   H849      1.0  0.99901  0.68980  0.64181  1.0000
  H   H850      1.0  0.01512  0.60048  0.78718  1.0000
  Fe  Fe99      1.0  0.98704  0.71167  0.87888  1.0000
  H   H851      1.0  0.00319  0.75281  0.72917  1.0000
  H   H852      1.0  0.18867  0.75813  0.95001  1.0000
  H   H853      1.0  0.21649  0.74452  0.83431  1.0000
  H   H854      1.0  0.00156  0.77164  0.82681  1.0000
  C   C720      1.0  0.99049  0.64141  0.79488  1.0000
  H   H855      1.0  0.98789  0.63083  0.65665  1.0000
  C   C721      1.0  0.19398  0.62068  0.80031  1.0000
  H   H856      1.0  0.00664  0.77281  0.71075  1.0000
  H   H857      1.0  0.23115  0.70949  0.96094  1.0000
  H   H858      1.0  0.21985  0.76983  0.85056  1.0000
  H   H859      1.0  0.22527  0.57695  0.72507  1.0000
  H   H860      1.0  0.18055  0.62837  0.80651  1.0000
  C   C722      1.0  0.07429  0.62220  0.65733  1.0000
  H   H861      1.0  0.12765  0.60543  0.63863  1.0000
  H   H862      1.0  0.14569  0.96730  0.78415  1.0000
  N   N47       1.0  0.20784  0.73281  0.95876  1.0000
  C   C723      1.0  0.11276  0.61053  0.64347  1.0000
  C   C724      1.0  0.19282  0.72070  0.96529  1.0000
  Fe  Fe100     1.0  0.98855  0.87101  0.71854  1.0000
  H   H863      1.0  0.22880  0.47682  0.72173  1.0000
  H   H864      1.0  0.99683  0.70693  0.95828  1.0000
  C   C725      1.0  0.15470  0.97234  0.79144  1.0000
  C   C726      1.0  0.23175  0.75850  0.84792  1.0000
  C   C727      1.0  0.18487  0.58973  0.63656  1.0000
  C   C728      1.0  0.22672  0.95508  0.76402  1.0000
  C   C729      1.0  0.22655  0.97460  0.76204  1.0000
  H   H865      1.0  0.23370  0.75643  0.95581  1.0000
  S   S192      1.0  0.46827  0.32477  0.20280  1.0000
  H   H866      1.0  0.29895  0.43924  0.15628  1.0000
  H   H867      1.0  0.28387  0.03757  0.07251  1.0000
  Fe  Fe101     1.0  0.46371  0.35677  0.19402  1.0000
  S   S193      1.0  0.43386  0.37258  0.18978  1.0000
  Fe  Fe102     1.0  0.47030  0.06699  0.23640  1.0000
  S   S194      1.0  0.45601  0.04052  0.24155  1.0000
  S   S195      1.0  0.46169  0.09640  0.22050  1.0000
  Fe  Fe103     1.0  0.47141  0.22255  0.07443  1.0000
  S   S196      1.0  0.46191  0.22337  0.04604  1.0000
  C   C730      1.0  0.31705  0.27832  0.97852  1.0000
  S   S197      1.0  0.46103  0.27492  0.11466  1.0000
  S   S198      1.0  0.45296  0.22839  0.10213  1.0000
  H   H868      1.0  0.47062  0.03286  0.17123  1.0000
  C   C731      1.0  0.47693  0.30351  0.14935  1.0000
  S   S199      1.0  0.34066  0.46160  0.19569  1.0000
  H   H869      1.0  0.38542  0.11516  0.00902  1.0000
  Fe  Fe104     1.0  0.47381  0.20538  0.11614  1.0000
  H   H870      1.0  0.43633  0.12592  0.17724  1.0000
  C   C732      1.0  0.23486  0.45986  0.19008  1.0000
  S   S200      1.0  0.39261  0.45383  0.21007  1.0000
  C   C733      1.0  0.46754  0.40383  0.23870  1.0000
  C   C734      1.0  0.46638  0.29726  0.13841  1.0000
  H   H871      1.0  0.46707  0.10834  0.28646  1.0000
  H   H872      1.0  0.46933  0.26952  0.19350  1.0000
  H   H873      1.0  0.39499  0.16429  0.03765  1.0000
  C   C735      1.0  0.28735  0.00860  0.10142  1.0000
  S   S201      1.0  0.39259  0.01413  0.20795  1.0000
  H   H874      1.0  0.37179  0.03260  0.28407  1.0000
  H   H875      1.0  0.35270  0.11682  0.00538  1.0000
  C   C736      1.0  0.46661  0.23857  0.23490  1.0000
  Fe  Fe105     1.0  0.37797  0.20965  0.99292  1.0000
  H   H876      1.0  0.26459  0.45496  0.17529  1.0000
  S   S202      1.0  0.39027  0.20297  0.02054  1.0000
  S   S203      1.0  0.37357  0.18892  0.97551  1.0000
  H   H877      1.0  0.39418  0.14026  0.04934  1.0000
  S   S204      1.0  0.31616  0.18860  0.98727  1.0000
  C   C737      1.0  0.45350  0.22649  0.17233  1.0000
  C   C738      1.0  0.40963  0.15711  0.00294  1.0000
  H   H878      1.0  0.28071  0.31552  0.98468  1.0000
  S   S205      1.0  0.34664  0.22120  0.99831  1.0000
  H   H879      1.0  0.46499  0.17375  0.29755  1.0000
  H   H880      1.0  0.43014  0.25658  0.04379  1.0000
  C   C739      1.0  0.48301  0.28470  0.28172  1.0000
  H   H881      1.0  0.31917  0.98170  0.25757  1.0000
  H   H882      1.0  0.28663  0.43312  0.28901  1.0000
  H   H883      1.0  0.27085  0.98987  0.08285  1.0000
  H   H884      1.0  0.35094  0.25381  0.01441  1.0000
  S   S206      1.0  0.47880  0.36130  0.21604  1.0000
  H   H885      1.0  0.28623  0.99586  0.27007  1.0000
  H   H886      1.0  0.35171  0.43239  0.30007  1.0000
  H   H887      1.0  0.35969  0.40491  0.26459  1.0000
  H   H888      1.0  0.39766  0.08821  0.17865  1.0000
  C   C740      1.0  0.46163  0.24139  0.19675  1.0000
  C   C741      1.0  0.35680  0.12867  0.00952  1.0000
  C   C742      1.0  0.34522  0.43729  0.24330  1.0000
  H   H889      1.0  0.37788  0.27143  0.08109  1.0000
  N   N48       1.0  0.45961  0.24317  0.17665  1.0000
  H   H890      1.0  0.24141  0.19639  0.99509  1.0000
  C   C743      1.0  0.24175  0.00914  0.05478  1.0000
  Fe  Fe106     1.0  0.34272  0.20251  0.97894  1.0000
  H   H891      1.0  0.28509  0.02386  0.05420  1.0000
  C   C744      1.0  0.26422  0.00985  0.02502  1.0000
  C   C745      1.0  0.27706  0.28672  0.98591  1.0000
  H   H892      1.0  0.25714  0.41836  0.01350  1.0000
  S   S207      1.0  0.26573  0.04025  0.99580  1.0000
  H   H893      1.0  0.28320  0.17097  0.99298  1.0000
  H   H894      1.0  0.27586  0.00263  0.01588  1.0000
  H   H895      1.0  0.43876  0.39841  0.24688  1.0000
  C   C746      1.0  0.45859  0.37567  0.25948  1.0000
  S   S208      1.0  0.25210  0.29163  0.98905  1.0000
  C   C747      1.0  0.25640  0.02885  0.01875  1.0000
  H   H896      1.0  0.28978  0.98800  0.06303  1.0000
  H   H897      1.0  0.27415  0.00914  0.15623  1.0000
  H   H898      1.0  0.27697  0.14336  0.98122  1.0000
  C   C748      1.0  0.41366  0.12461  0.01841  1.0000
  H   H899      1.0  0.33450  0.45002  0.11245  1.0000
  H   H900      1.0  0.45503  0.21254  0.20700  1.0000
  H   H901      1.0  0.32609  0.02881  0.26932  1.0000
  H   H902      1.0  0.27811  0.46605  0.19792  1.0000
  C   C749      1.0  0.33774  0.43252  0.29708  1.0000
  C   C750      1.0  0.37662  0.44785  0.15900  1.0000
  C   C751      1.0  0.44535  0.26014  0.17141  1.0000
  S   S209      1.0  0.46348  0.18803  0.14454  1.0000
  H   H903      1.0  0.38338  0.00868  0.29078  1.0000
  S   S210      1.0  0.24870  0.34911  0.97717  1.0000
  C   C752      1.0  0.41210  0.09067  0.17745  1.0000
  H   H904      1.0  0.47386  0.13241  0.19375  1.0000
  H   H905      1.0  0.33944  0.42473  0.24193  1.0000
  H   H906      1.0  0.31661  0.00208  0.10748  1.0000
  C   C753      1.0  0.45900  0.22476  0.21042  1.0000
  C   C754      1.0  0.25691  0.00002  0.04289  1.0000
  H   H907      1.0  0.35199  0.29057  0.02744  1.0000
  H   H908      1.0  0.39547  0.27179  0.99518  1.0000
  H   H909      1.0  0.44835  0.03932  0.18580  1.0000
  C   C755      1.0  0.29304  0.45848  0.13078  1.0000
  Fe  Fe107     1.0  0.25602  0.07061  0.98125  1.0000
  H   H910      1.0  0.33754  0.41614  0.11054  1.0000
  H   H911      1.0  0.46318  0.10017  0.17396  1.0000
  C   C756      1.0  0.40510  0.26393  0.06397  1.0000
  C   C757      1.0  0.24125  0.03797  0.03063  1.0000
  C   C758      1.0  0.44186  0.21745  0.03938  1.0000
  C   C759      1.0  0.42730  0.20998  0.05269  1.0000
  C   C760      1.0  0.41163  0.20574  0.04663  1.0000
  C   C761      1.0  0.41018  0.20908  0.02725  1.0000
  C   C762      1.0  0.42466  0.21664  0.01394  1.0000
  C   C763      1.0  0.44040  0.22074  0.01999  1.0000
  H   H912      1.0  0.42813  0.20746  0.06764  1.0000
  H   H913      1.0  0.40053  0.19992  0.05710  1.0000
  H   H914      1.0  0.42390  0.21915  0.99897  1.0000
  H   H915      1.0  0.45157  0.22651  0.00956  1.0000
  C   C764      1.0  0.43798  0.03369  0.23231  1.0000
  C   C765      1.0  0.43566  0.01448  0.23636  1.0000
  C   C766      1.0  0.42184  0.00822  0.22918  1.0000
  C   C767      1.0  0.41002  0.02115  0.21787  1.0000
  C   C768      1.0  0.41205  0.04042  0.21414  1.0000
  C   C769      1.0  0.42593  0.04668  0.22127  1.0000
  H   H916      1.0  0.44481  0.00429  0.24496  1.0000
  H   H917      1.0  0.42055  0.99334  0.23217  1.0000
  H   H918      1.0  0.40273  0.05061  0.20574  1.0000
  H   H919      1.0  0.42721  0.06156  0.21833  1.0000
  C   C770      1.0  0.31248  0.00672  0.07286  1.0000
  C   C771      1.0  0.31597  0.43332  0.27580  1.0000
  H   H920      1.0  0.35403  0.04042  0.25666  1.0000
  H   H921      1.0  0.24384  0.39548  0.00102  1.0000
  H   H922      1.0  0.41560  0.12006  0.00438  1.0000
  C   C772      1.0  0.46050  0.15660  0.27847  1.0000
  Fe  Fe108     1.0  0.23804  0.32168  0.98001  1.0000
  H   H923      1.0  0.35135  0.02128  0.24542  1.0000
  H   H924      1.0  0.31777  0.01917  0.07526  1.0000
  C   C773      1.0  0.42249  0.39475  0.19657  1.0000
  C   C774      1.0  0.40296  0.40077  0.19591  1.0000
  C   C775      1.0  0.39357  0.41877  0.20001  1.0000
  C   C776      1.0  0.40364  0.43095  0.20489  1.0000
  C   C777      1.0  0.42304  0.42471  0.20612  1.0000
  C   C778      1.0  0.43244  0.40675  0.20193  1.0000
  H   H925      1.0  0.39507  0.39144  0.19211  1.0000
  H   H926      1.0  0.37854  0.42310  0.19956  1.0000
  H   H927      1.0  0.43093  0.43396  0.21004  1.0000
  H   H928      1.0  0.44746  0.40231  0.20251  1.0000
  N   N49       1.0  0.36464  0.01220  0.27036  1.0000
  H   H929      1.0  0.24799  0.45668  0.15195  1.0000
  S   S211      1.0  0.27996  0.44335  0.12483  1.0000
  C   C779      1.0  0.46152  0.13814  0.27505  1.0000
  H   H930      1.0  0.45933  0.21072  0.23945  1.0000
  C   C780      1.0  0.24423  0.41340  0.02124  1.0000
  H   H931      1.0  0.37058  0.45467  0.24921  1.0000
  H   H932      1.0  0.45133  0.30282  0.13913  1.0000
  H   H933      1.0  0.40734  0.45975  0.13502  1.0000
  S   S212      1.0  0.45689  0.13481  0.25332  1.0000
  H   H934      1.0  0.32123  0.99340  0.07907  1.0000
  C   C781      1.0  0.36569  0.41791  0.26412  1.0000
  C   C782      1.0  0.29679  0.00605  0.13243  1.0000
  H   H935      1.0  0.26556  0.02414  0.07304  1.0000
  C   C783      1.0  0.44646  0.07840  0.17426  1.0000
  C   C784      1.0  0.44914  0.09700  0.17480  1.0000
  H   H936      1.0  0.31968  0.45851  0.16419  1.0000
  C   C785      1.0  0.43380  0.11189  0.17670  1.0000
  H   H937      1.0  0.35706  0.46093  0.12647  1.0000
  H   H938      1.0  0.48092  0.35451  0.26889  1.0000
  H   H939      1.0  0.44975  0.27361  0.17229  1.0000
  C   C786      1.0  0.30781  0.29695  0.97991  1.0000
  N   N50       1.0  0.35091  0.43515  0.26213  1.0000
  C   C787      1.0  0.46528  0.15949  0.29526  1.0000
  C   C788      1.0  0.38530  0.26858  0.06722  1.0000
  H   H940      1.0  0.37950  0.98318  0.27568  1.0000
  H   H941      1.0  0.23502  0.05253  0.02596  1.0000
  C   C789      1.0  0.28782  0.30115  0.98361  1.0000
  H   H942      1.0  0.29946  0.45906  0.03537  1.0000
  Fe  Fe109     1.0  0.35284  0.24236  0.97209  1.0000
  N   N51       1.0  0.40123  0.14345  0.01883  1.0000
  C   C790      1.0  0.34834  0.16014  0.01742  1.0000
  H   H943      1.0  0.45652  0.16868  0.26788  1.0000
  C   C791      1.0  0.46687  0.25648  0.20308  1.0000
  H   H944      1.0  0.47309  0.26684  0.22637  1.0000
  C   C792      1.0  0.26344  0.01219  0.13020  1.0000
  C   C793      1.0  0.47729  0.13806  0.17879  1.0000
  S   S213      1.0  0.25675  0.09767  0.99120  1.0000
  C   C794      1.0  0.26810  0.01178  0.11071  1.0000
  N   N52       1.0  0.29192  0.00739  0.08092  1.0000
  C   C795      1.0  0.34735  0.00936  0.28470  1.0000
  C   C796      1.0  0.47771  0.36859  0.26080  1.0000
  H   H945      1.0  0.41654  0.14841  0.03939  1.0000
  H   H946      1.0  0.46300  0.05814  0.20265  1.0000
  C   C797      1.0  0.30136  0.45252  0.14717  1.0000
  H   H947      1.0  0.42387  0.06207  0.17523  1.0000
  H   H948      1.0  0.29386  0.97707  0.08657  1.0000
  C   C798      1.0  0.28634  0.26803  0.98505  1.0000
  H   H949      1.0  0.41308  0.25765  0.01838  1.0000
  H   H950      1.0  0.40147  0.17173  0.00277  1.0000
  C   C799      1.0  0.47299  0.06039  0.18896  1.0000
  H   H951      1.0  0.42826  0.12490  0.02073  1.0000
  C   C800      1.0  0.46921  0.25506  0.22187  1.0000
  S   S214      1.0  0.48205  0.31717  0.25487  1.0000
  H   H952      1.0  0.36665  0.45042  0.27444  1.0000
  H   H953      1.0  0.36347  0.98753  0.25930  1.0000
  H   H954      1.0  0.34870  0.25700  0.03830  1.0000
  C   C801      1.0  0.36068  0.02616  0.25313  1.0000
  N   N53       1.0  0.38764  0.43986  0.14211  1.0000
  C   C802      1.0  0.34319  0.14469  0.01246  1.0000
  C   C803      1.0  0.40309  0.42469  0.14854  1.0000
  H   H955      1.0  0.37620  0.26309  0.99020  1.0000
  C   C804      1.0  0.37455  0.43308  0.13288  1.0000
  C   C805      1.0  0.35928  0.44600  0.12564  1.0000
  C   C806      1.0  0.37608  0.41368  0.13128  1.0000
  C   C807      1.0  0.34624  0.43991  0.11758  1.0000
  C   C808      1.0  0.36289  0.40774  0.12322  1.0000
  C   C809      1.0  0.34794  0.42080  0.11649  1.0000
  H   H956      1.0  0.36868  0.43722  0.16889  1.0000
  C   C810      1.0  0.41529  0.10872  0.17809  1.0000
  C   C811      1.0  0.37385  0.99390  0.26414  1.0000
  H   H957      1.0  0.39726  0.41309  0.15910  1.0000
  H   H958      1.0  0.41250  0.43011  0.15576  1.0000
  H   H959      1.0  0.41241  0.41845  0.13645  1.0000
  C   C812      1.0  0.29084  0.14756  0.97738  1.0000
  C   C813      1.0  0.30100  0.43271  0.29126  1.0000
  H   H960      1.0  0.40433  0.44985  0.11536  1.0000
  C   C814      1.0  0.25137  0.47288  0.21601  1.0000
  H   H961      1.0  0.38720  0.40275  0.13630  1.0000
  H   H962      1.0  0.40777  0.11355  0.02973  1.0000
  H   H963      1.0  0.36415  0.39286  0.12235  1.0000
  C   C815      1.0  0.26285  0.46621  0.20017  1.0000
  H   H964      1.0  0.25021  0.98633  0.25196  1.0000
  Fe  Fe110     1.0  0.47107  0.10713  0.24338  1.0000
  H   H965      1.0  0.23932  0.20451  0.97053  1.0000
  H   H966      1.0  0.45199  0.22843  0.15710  1.0000
  Fe  Fe111     1.0  0.25690  0.45470  0.10684  1.0000
  H   H967      1.0  0.41307  0.26307  0.07523  1.0000
  H   H968      1.0  0.36668  0.23864  0.02942  1.0000
  C   C816      1.0  0.31315  0.46341  0.15166  1.0000
  H   H969      1.0  0.39285  0.24708  0.00328  1.0000
  H   H970      1.0  0.31530  0.00680  0.05725  1.0000
  C   C817      1.0  0.29445  0.16310  0.98402  1.0000
  H   H971      1.0  0.46935  0.07064  0.14225  1.0000
  C   C818      1.0  0.29412  0.98476  0.27910  1.0000
  H   H972      1.0  0.44320  0.26161  0.15644  1.0000
  C   C819      1.0  0.37563  0.12795  0.01168  1.0000
  H   H973      1.0  0.45071  0.04482  0.16015  1.0000
  C   C820      1.0  0.28637  0.98985  0.07818  1.0000
  Fe  Fe112     1.0  0.38090  0.98609  0.21316  1.0000
  H   H974      1.0  0.37784  0.41857  0.25197  1.0000
  H   H975      1.0  0.39136  0.02176  0.26810  1.0000
  S   S215      1.0  0.34953  0.98816  0.22515  1.0000
  C   C821      1.0  0.46148  0.22348  0.22920  1.0000
  H   H976      1.0  0.31220  0.43416  0.26207  1.0000
  C   C822      1.0  0.28670  0.47331  0.25748  1.0000
  H   H977      1.0  0.42450  0.15795  0.00390  1.0000
  C   C823      1.0  0.31283  0.97681  0.27201  1.0000
  N   N54       1.0  0.46303  0.06285  0.17262  1.0000
  H   H978      1.0  0.43940  0.22406  0.18086  1.0000
  C   C824      1.0  0.33483  0.43355  0.27823  1.0000
  H   H979      1.0  0.26282  0.98531  0.04737  1.0000
  H   H980      1.0  0.35753  0.43880  0.23148  1.0000
  C   C825      1.0  0.25483  0.45980  0.18731  1.0000
  C   C826      1.0  0.29210  0.47356  0.03539  1.0000
  C   C827      1.0  0.32876  0.01899  0.28206  1.0000
  N   N55       1.0  0.37319  0.26682  0.01932  1.0000
  C   C828      1.0  0.36259  0.28640  0.01507  1.0000
  C   C829      1.0  0.38506  0.26197  0.00126  1.0000
  C   C830      1.0  0.35930  0.25351  0.02569  1.0000
  C   C831      1.0  0.38439  0.26567  0.03445  1.0000
  C   C832      1.0  0.37506  0.26953  0.05270  1.0000
  C   C833      1.0  0.40462  0.26101  0.03163  1.0000
  H   H981      1.0  0.37037  0.17224  0.02286  1.0000
  C   C834      1.0  0.41471  0.26028  0.04620  1.0000
  S   S216      1.0  0.24521  0.43695  0.04624  1.0000
  H   H982      1.0  0.35446  0.28790  0.00329  1.0000
  H   H983      1.0  0.31611  0.30816  0.97792  1.0000
  H   H984      1.0  0.37249  0.29692  0.01074  1.0000
  H   H985      1.0  0.24863  0.01415  0.13702  1.0000
  C   C835      1.0  0.47351  0.16430  0.15240  1.0000
  C   C836      1.0  0.36709  0.15962  0.01955  1.0000
  H   H986      1.0  0.25643  0.01318  0.10314  1.0000
  C   C837      1.0  0.30629  0.26384  0.98127  1.0000
  H   H987      1.0  0.37181  0.41600  0.27725  1.0000
  H   H988      1.0  0.35974  0.27326  0.05589  1.0000
  H   H989      1.0  0.38599  0.45226  0.16705  1.0000
  C   C838      1.0  0.45786  0.04422  0.17239  1.0000
  H   H990      1.0  0.33429  0.45019  0.24079  1.0000
  C   C839      1.0  0.39677  0.45497  0.12873  1.0000
  C   C840      1.0  0.37835  0.01910  0.27872  1.0000
  C   C841      1.0  0.35949  0.45199  0.26204  1.0000
  H   H991      1.0  0.40340  0.12026  0.17973  1.0000
  C   C842      1.0  0.46653  0.12260  0.28886  1.0000
  H   H992      1.0  0.46409  0.21328  0.17478  1.0000
  C   C843      1.0  0.38133  0.14344  0.01694  1.0000
  C   C844      1.0  0.40170  0.14928  0.03707  1.0000
  C   C845      1.0  0.45352  0.39323  0.24839  1.0000
  H   H993      1.0  0.45923  0.16508  0.18127  1.0000
  H   H994      1.0  0.30786  0.00318  0.14107  1.0000
  C   C846      1.0  0.30162  0.00551  0.11297  1.0000
  H   H995      1.0  0.43130  0.25938  0.18083  1.0000
  H   H996      1.0  0.27806  0.25681  0.98697  1.0000
  H   H997      1.0  0.24756  0.99678  0.27246  1.0000
  C   C847      1.0  0.26888  0.46850  0.26647  1.0000
  S   S217      1.0  0.25825  0.46876  0.07637  1.0000
  C   C848      1.0  0.31251  0.16859  0.97906  1.0000
  H   H998      1.0  0.44776  0.36713  0.26652  1.0000
  H   H999      1.0  0.33775  0.17277  0.01926  1.0000
  H   H1000     1.0  0.32864  0.14528  0.01064  1.0000
  S   S218      1.0  0.47696  0.07806  0.26067  1.0000
  C   C849      1.0  0.42740  0.07568  0.17548  1.0000
  H   H1001     1.0  0.40968  0.15323  0.98894  1.0000
  C   C850      1.0  0.46901  0.15659  0.17169  1.0000
  H   H1002     1.0  0.37397  0.02815  0.24276  1.0000
  H   H1003     1.0  0.47694  0.29413  0.29190  1.0000
  H   H1004     1.0  0.34841  0.46500  0.26225  1.0000
  C   C851      1.0  0.28120  0.02397  0.06977  1.0000
  H   H1005     1.0  0.46356  0.41730  0.22976  1.0000
  H   H1006     1.0  0.31330  0.24942  0.98028  1.0000
  H   H1007     1.0  0.38629  0.46788  0.12486  1.0000
  H   H1008     1.0  0.36597  0.46063  0.15516  1.0000
  Fe  Fe113     1.0  0.47310  0.24775  0.10290  1.0000
  C   C852      1.0  0.47510  0.28365  0.12683  1.0000
  H   H1009     1.0  0.24808  0.16371  0.99308  1.0000
  C   C853      1.0  0.27776  0.00934  0.14103  1.0000
  H   H1010     1.0  0.38601  0.99564  0.25220  1.0000
  C   C854      1.0  0.23937  0.99236  0.26325  1.0000
  H   H1011     1.0  0.46857  0.23754  0.24946  1.0000
  H   H1012     1.0  0.47004  0.31387  0.15839  1.0000
  S   S219      1.0  0.29617  0.46827  0.23435  1.0000
  H   H1013     1.0  0.26884  0.46858  0.02474  1.0000
  S   S220      1.0  0.23949  0.43376  0.10366  1.0000
  H   H1014     1.0  0.48264  0.08058  0.15482  1.0000
  S   S221      1.0  0.34194  0.27347  0.97241  1.0000
  C   C855      1.0  0.23921  0.16659  0.98175  1.0000
  H   H1015     1.0  0.29863  0.02279  0.29345  1.0000
  C   C856      1.0  0.47818  0.24546  0.16433  1.0000
  C   C857      1.0  0.31276  0.01574  0.29587  1.0000
  C   C858      1.0  0.28577  0.97871  0.29790  1.0000
  C   C859      1.0  0.47652  0.06775  0.15486  1.0000
  Fe  Fe114     1.0  0.36471  0.47214  0.20305  1.0000
  H   H1016     1.0  0.24769  0.46738  0.29207  1.0000
  H   H1017     1.0  0.24948  0.43332  0.16629  1.0000
  Fe  Fe115     1.0  0.23831  0.44949  0.07393  1.0000
  C   C860      1.0  0.34878  0.99629  0.30187  1.0000
  C   C861      1.0  0.26135  0.47128  0.28526  1.0000
  H   H1018     1.0  0.26094  0.46234  0.25899  1.0000
  H   H1019     1.0  0.47724  0.24668  0.14910  1.0000
  C   C862      1.0  0.23672  0.40036  0.01411  1.0000
  H   H1020     1.0  0.47947  0.07294  0.18883  1.0000
  C   C863      1.0  0.23949  0.44598  0.16081  1.0000
  H   H1021     1.0  0.24569  0.00096  0.99307  1.0000
  H   H1022     1.0  0.48311  0.25855  0.16556  1.0000
  C   C864      1.0  0.23526  0.42002  0.03828  1.0000
  H   H1023     1.0  0.27024  0.00989  0.96947  1.0000
  H   H1024     1.0  0.26836  0.03307  0.40049  1.0000
  S   S222      1.0  0.45129  0.22259  0.37643  1.0000
  C   C865      1.0  0.30425  0.43231  0.30947  1.0000
  H   H1025     1.0  0.26835  0.03279  0.56437  1.0000
  Fe  Fe116     1.0  0.37228  0.19196  0.46474  1.0000
  S   S223      1.0  0.37029  0.17581  0.49476  1.0000
  S   S224      1.0  0.39433  0.17948  0.44142  1.0000
  Fe  Fe117     1.0  0.33784  0.22198  0.47597  1.0000
  S   S225      1.0  0.33343  0.20842  0.50660  1.0000
  S   S226      1.0  0.31963  0.24871  0.46334  1.0000
  Fe  Fe118     1.0  0.36524  0.20441  0.50362  1.0000
  S   S227      1.0  0.38172  0.21157  0.52369  1.0000
  Fe  Fe119     1.0  0.33869  0.18102  0.49528  1.0000
  S   S228      1.0  0.31904  0.15994  0.50975  1.0000
  S   S229      1.0  0.36946  0.22025  0.47353  1.0000
  S   S230      1.0  0.34084  0.19489  0.46471  1.0000
  H   H1026     1.0  0.27493  0.21217  0.49150  1.0000
  C   C866      1.0  0.24588  0.01816  0.39950  1.0000
  C   C867      1.0  0.40720  0.21110  0.36545  1.0000
  Fe  Fe120     1.0  0.26449  0.10125  0.46806  1.0000
  C   C868      1.0  0.38605  0.19377  0.38940  1.0000
  S   S231      1.0  0.28540  0.12158  0.45640  1.0000
  C   C869      1.0  0.33268  0.99312  0.31552  1.0000
  H   H1027     1.0  0.42897  0.19506  0.34826  1.0000
  H   H1028     1.0  0.47800  0.20788  0.43275  1.0000
  S   S232      1.0  0.27504  0.06980  0.47185  1.0000
  H   H1029     1.0  0.30707  0.21085  0.44422  1.0000
  H   H1030     1.0  0.26429  0.23844  0.46651  1.0000
  S   S233      1.0  0.27963  0.08373  0.59394  1.0000
  H   H1031     1.0  0.25211  0.15560  0.47368  1.0000
  S   S234      1.0  0.36406  0.19719  0.61400  1.0000
  H   H1032     1.0  0.27044  0.10129  0.55769  1.0000
  H   H1033     1.0  0.38516  0.22392  0.38574  1.0000
  H   H1034     1.0  0.32540  0.11662  0.55522  1.0000
  H   H1035     1.0  0.43819  0.15301  0.38408  1.0000
  C   C870      1.0  0.26494  0.18071  0.46895  1.0000
  C   C871      1.0  0.31332  0.12273  0.56546  1.0000
  C   C872      1.0  0.26514  0.06003  0.54602  1.0000
  C   C873      1.0  0.26555  0.07937  0.54434  1.0000
  C   C874      1.0  0.26992  0.08633  0.55923  1.0000
  C   C875      1.0  0.27364  0.07410  0.57607  1.0000
  C   C876      1.0  0.27282  0.05481  0.57797  1.0000
  C   C877      1.0  0.25460  0.02955  0.40749  1.0000
  H   H1036     1.0  0.27567  0.04526  0.59088  1.0000
  H   H1037     1.0  0.48369  0.25926  0.30303  1.0000
  S   S235      1.0  0.24542  0.10043  0.49640  1.0000
  C   C878      1.0  0.47033  0.14391  0.30902  1.0000
  H   H1038     1.0  0.41959  0.12916  0.36344  1.0000
  H   H1039     1.0  0.29847  0.21466  0.47890  1.0000
  C   C879      1.0  0.37689  0.20613  0.54879  1.0000
  C   C880      1.0  0.39124  0.20608  0.55907  1.0000
  C   C881      1.0  0.38771  0.20282  0.57907  1.0000
  C   C882      1.0  0.36958  0.20018  0.58894  1.0000
  C   C883      1.0  0.35517  0.20037  0.57866  1.0000
  C   C884      1.0  0.35889  0.20293  0.55868  1.0000
  H   H1040     1.0  0.40519  0.20857  0.55153  1.0000
  H   H1041     1.0  0.39889  0.20277  0.58683  1.0000
  H   H1042     1.0  0.34114  0.19821  0.58623  1.0000
  H   H1043     1.0  0.34778  0.20264  0.55100  1.0000
  C   C885      1.0  0.29819  0.25942  0.47616  1.0000
  C   C886      1.0  0.29127  0.25165  0.49484  1.0000
  C   C887      1.0  0.27411  0.26052  0.50458  1.0000
  C   C888      1.0  0.26375  0.27721  0.49576  1.0000
  C   C889      1.0  0.27050  0.28482  0.47697  1.0000
  C   C890      1.0  0.28767  0.27593  0.46722  1.0000
  H   H1044     1.0  0.29914  0.23889  0.50183  1.0000
  H   H1045     1.0  0.26894  0.25457  0.51912  1.0000
  H   H1046     1.0  0.26260  0.29766  0.47003  1.0000
  H   H1047     1.0  0.29291  0.28199  0.45273  1.0000
  C   C891      1.0  0.30952  0.14964  0.49480  1.0000
  C   C892      1.0  0.29375  0.14045  0.50226  1.0000
  C   C893      1.0  0.28600  0.13203  0.49057  1.0000
  C   C894      1.0  0.29420  0.13248  0.47143  1.0000
  C   C895      1.0  0.30990  0.14175  0.46397  1.0000
  C   C896      1.0  0.31754  0.15031  0.47561  1.0000
  H   H1048     1.0  0.28742  0.13998  0.51709  1.0000
  H   H1049     1.0  0.27368  0.12524  0.49637  1.0000
  H   H1050     1.0  0.31630  0.14216  0.44917  1.0000
  H   H1051     1.0  0.32988  0.15708  0.46979  1.0000
  S   S236      1.0  0.26041  0.05062  0.52728  1.0000
  H   H1052     1.0  0.39041  0.16403  0.39130  1.0000
  H   H1053     1.0  0.26951  0.23505  0.44184  1.0000
  N   N56       1.0  0.27926  0.21054  0.46176  1.0000
  C   C897      1.0  0.43640  0.21030  0.39530  1.0000
  C   C898      1.0  0.42235  0.22067  0.40734  1.0000
  C   C899      1.0  0.40967  0.21144  0.42190  1.0000
  C   C900      1.0  0.41096  0.19171  0.42455  1.0000
  C   C901      1.0  0.42539  0.18130  0.41285  1.0000
  C   C902      1.0  0.43809  0.19053  0.39835  1.0000
  H   H1054     1.0  0.42097  0.23597  0.40515  1.0000
  H   H1055     1.0  0.39864  0.21962  0.43078  1.0000
  H   H1056     1.0  0.42655  0.16604  0.41492  1.0000
  H   H1057     1.0  0.44898  0.18239  0.38937  1.0000
  C   C903      1.0  0.36489  0.15480  0.57798  1.0000
  C   C904      1.0  0.29487  0.20295  0.44725  1.0000
  H   H1058     1.0  0.29686  0.14594  0.59095  1.0000
  H   H1059     1.0  0.44904  0.16555  0.36205  1.0000
  H   H1060     1.0  0.32842  0.10198  0.60693  1.0000
  Fe  Fe121     1.0  0.28518  0.06917  0.62346  1.0000
  C   C905      1.0  0.24985  0.17101  0.47041  1.0000
  C   C906      1.0  0.34252  0.14439  0.56354  1.0000
  Fe  Fe122     1.0  0.25427  0.06887  0.49935  1.0000
  H   H1061     1.0  0.23537  0.34525  0.58343  1.0000
  H   H1062     1.0  0.37653  0.16248  0.57668  1.0000
  H   H1063     1.0  0.33748  0.14469  0.55053  1.0000
  H   H1064     1.0  0.30088  0.18781  0.45183  1.0000
  H   H1065     1.0  0.32507  0.43164  0.32665  1.0000
  C   C907      1.0  0.26867  0.04780  0.56294  1.0000
  S   S237      1.0  0.47621  0.14680  0.33035  1.0000
  C   C908      1.0  0.35753  0.15426  0.56196  1.0000
  C   C909      1.0  0.30221  0.13084  0.59651  1.0000
  C   C910      1.0  0.27482  0.23143  0.45559  1.0000
  H   H1066     1.0  0.33989  0.09735  0.58370  1.0000
  H   H1067     1.0  0.36349  0.16168  0.54824  1.0000
  H   H1068     1.0  0.33665  0.12894  0.61156  1.0000
  C   C911      1.0  0.39193  0.21089  0.38048  1.0000
  H   H1069     1.0  0.24104  0.22590  0.45773  1.0000
  C   C912      1.0  0.33453  0.13459  0.58141  1.0000
  H   H1070     1.0  0.26266  0.08901  0.53155  1.0000
  C   C913      1.0  0.32617  0.10324  0.59206  1.0000
  C   C914      1.0  0.34212  0.13582  0.59748  1.0000
  H   H1071     1.0  0.39719  0.14501  0.36563  1.0000
  S   S238      1.0  0.26286  0.99012  0.30663  1.0000
  H   H1072     1.0  0.43550  0.17050  0.33362  1.0000
  C   C915      1.0  0.32262  0.43202  0.31242  1.0000
  C   C916      1.0  0.44021  0.15428  0.36837  1.0000
  C   C917      1.0  0.26272  0.20079  0.46407  1.0000
  Fe  Fe123     1.0  0.38560  0.18867  0.63413  1.0000
  C   C918      1.0  0.28631  0.20711  0.48004  1.0000
  H   H1073     1.0  0.29156  0.19180  0.48490  1.0000
  H   H1074     1.0  0.33404  0.98268  0.32828  1.0000
  N   N57       1.0  0.32007  0.07880  0.50207  1.0000
  C   C919      1.0  0.32951  0.09448  0.49007  1.0000
  C   C920      1.0  0.32586  0.06213  0.49220  1.0000
  C   C921      1.0  0.29922  0.08505  0.50331  1.0000
  C   C922      1.0  0.32476  0.07348  0.52147  1.0000
  C   C923      1.0  0.33760  0.08220  0.52778  1.0000
  C   C924      1.0  0.31618  0.05927  0.53482  1.0000
  C   C925      1.0  0.34139  0.07698  0.54635  1.0000
  C   C926      1.0  0.31998  0.05428  0.55336  1.0000
  C   C927      1.0  0.33249  0.06315  0.55914  1.0000
  H   H1075     1.0  0.34530  0.09049  0.48774  1.0000
  H   H1076     1.0  0.32537  0.09836  0.47571  1.0000
  H   H1077     1.0  0.32535  0.10767  0.49646  1.0000
  H   H1078     1.0  0.31811  0.05024  0.49946  1.0000
  H   H1079     1.0  0.34137  0.05659  0.49144  1.0000
  H   H1080     1.0  0.32275  0.06575  0.47743  1.0000
  H   H1081     1.0  0.29396  0.09608  0.51254  1.0000
  H   H1082     1.0  0.29525  0.09115  0.48912  1.0000
  H   H1083     1.0  0.29113  0.07317  0.50918  1.0000
  H   H1084     1.0  0.34488  0.09311  0.51867  1.0000
  H   H1085     1.0  0.30625  0.05201  0.53109  1.0000
  H   H1086     1.0  0.35135  0.08366  0.55082  1.0000
  H   H1087     1.0  0.31304  0.04353  0.56336  1.0000
  H   H1088     1.0  0.33530  0.05922  0.57358  1.0000
  N   N58       1.0  0.33683  0.26330  0.51989  1.0000
  C   C928      1.0  0.35022  0.26957  0.52918  1.0000
  C   C929      1.0  0.33063  0.24587  0.53188  1.0000
  C   C930      1.0  0.34755  0.25806  0.50154  1.0000
  C   C931      1.0  0.32003  0.27843  0.51782  1.0000
  C   C932      1.0  0.30757  0.28406  0.53416  1.0000
  C   C933      1.0  0.31536  0.28777  0.49986  1.0000
  C   C934      1.0  0.29113  0.29767  0.53263  1.0000
  C   C935      1.0  0.29903  0.30157  0.49852  1.0000
  C   C936      1.0  0.28680  0.30631  0.51484  1.0000
  H   H1089     1.0  0.34369  0.27250  0.54368  1.0000
  H   H1090     1.0  0.36311  0.25846  0.53080  1.0000
  H   H1091     1.0  0.35508  0.28277  0.52073  1.0000
  H   H1092     1.0  0.32522  0.24754  0.54693  1.0000
  H   H1093     1.0  0.34263  0.23369  0.53223  1.0000
  H   H1094     1.0  0.31913  0.24175  0.52642  1.0000
  H   H1095     1.0  0.35349  0.27022  0.49204  1.0000
  H   H1096     1.0  0.35995  0.24649  0.50361  1.0000
  H   H1097     1.0  0.33839  0.25280  0.49395  1.0000
  H   H1098     1.0  0.31029  0.27775  0.54828  1.0000
  H   H1099     1.0  0.32377  0.28439  0.48658  1.0000
  H   H1100     1.0  0.28151  0.30140  0.54529  1.0000
  H   H1101     1.0  0.29550  0.30825  0.48470  1.0000
  H   H1102     1.0  0.27380  0.31652  0.51366  1.0000
  H   H1103     1.0  0.41189  0.16580  0.33474  1.0000
  H   H1104     1.0  0.43215  0.14694  0.33570  1.0000
  H   H1105     1.0  0.28981  0.20401  0.43363  1.0000
  H   H1106     1.0  0.41067  0.13809  0.38498  1.0000
  H   H1107     1.0  0.44881  0.14073  0.36447  1.0000
  H   H1108     1.0  0.29242  0.43244  0.32127  1.0000
  N   N59       1.0  0.42170  0.15864  0.36165  1.0000
  H   H1109     1.0  0.37477  0.19357  0.40171  1.0000
  C   C937      1.0  0.41175  0.14208  0.36929  1.0000
  C   C938      1.0  0.42534  0.16064  0.34059  1.0000
  C   C939      1.0  0.41086  0.17649  0.36781  1.0000
  C   C940      1.0  0.41665  0.19418  0.35928  1.0000
  C   C941      1.0  0.39532  0.17677  0.38326  1.0000
  H   H1110     1.0  0.24397  0.40281  0.41867  1.0000
  H   H1111     1.0  0.36253  0.14672  0.60823  1.0000
  N   N60       1.0  0.31933  0.12313  0.58363  1.0000
  H   H1112     1.0  0.31571  0.09381  0.59272  1.0000
  H   H1113     1.0  0.30509  0.13025  0.61101  1.0000
  C   C942      1.0  0.35703  0.14584  0.59573  1.0000
  S   S239      1.0  0.25690  0.05194  0.43287  1.0000
  Fe  Fe124     1.0  0.25058  0.06804  0.45796  1.0000
  S   S240      1.0  0.46594  0.20373  0.32617  1.0000
  H   H1114     1.0  0.30730  0.13721  0.55866  1.0000
  C   C943      1.0  0.48289  0.21663  0.41893  1.0000
  H   H1115     1.0  0.27850  0.17234  0.47146  1.0000
  S   S241      1.0  0.24246  0.28792  0.50875  1.0000
  H   H1116     1.0  0.41235  0.22432  0.35914  1.0000
  H   H1117     1.0  0.23990  0.38580  0.55191  1.0000
  H   H1118     1.0  0.30201  0.11381  0.56768  1.0000
  H   H1119     1.0  0.29044  0.12256  0.59835  1.0000
  C   C944      1.0  0.24562  0.03658  0.42429  1.0000
  C   C945      1.0  0.31472  0.00286  0.31255  1.0000
  H   H1120     1.0  0.28771  0.23819  0.45322  1.0000
  H   H1121     1.0  0.47029  0.22094  0.41154  1.0000
  Fe  Fe125     1.0  0.24660  0.97658  0.33414  1.0000
  S   S242      1.0  0.24147  0.09984  0.45227  1.0000
  H   H1122     1.0  0.25291  0.01307  0.38648  1.0000
  Fe  Fe126     1.0  0.47234  0.20842  0.35367  1.0000
  C   C946      1.0  0.47065  0.12550  0.30591  1.0000
  H   H1123     1.0  0.30218  0.00002  0.32293  1.0000
  H   H1124     1.0  0.29464  0.97695  0.63256  1.0000
  S   S243      1.0  0.31504  0.06515  0.62933  1.0000
  C   C947      1.0  0.24421  0.21063  0.46134  1.0000
  H   H1125     1.0  0.47439  0.11340  0.31658  1.0000
  H   H1126     1.0  0.48165  0.19131  0.39758  1.0000
  H   H1127     1.0  0.36233  0.98806  0.30466  1.0000
  Fe  Fe127     1.0  0.48349  0.17486  0.33238  1.0000
  S   S244      1.0  0.40685  0.16156  0.63561  1.0000
  Fe  Fe128     1.0  0.25914  0.39479  0.81498  1.0000
  S   S245      1.0  0.28335  0.40777  0.81837  1.0000
  S   S246      1.0  0.40425  0.20523  0.64311  1.0000
  Fe  Fe129     1.0  0.26386  0.40940  0.77208  1.0000
  S   S247      1.0  0.28902  0.42275  0.77238  1.0000
  H   H1128     1.0  0.24618  0.08807  0.87263  1.0000
  Fe  Fe130     1.0  0.29836  0.39606  0.79201  1.0000
  S   S248      1.0  0.32915  0.38249  0.79152  1.0000
  Fe  Fe131     1.0  0.27176  0.43314  0.79839  1.0000
  S   S249      1.0  0.26549  0.46410  0.80124  1.0000
  S   S250      1.0  0.27478  0.38155  0.78954  1.0000
  S   S251      1.0  0.24602  0.42124  0.79722  1.0000
  Fe  Fe132     1.0  0.38403  0.28304  0.77890  1.0000
  S   S252      1.0  0.37833  0.25558  0.79756  1.0000
  S   S253      1.0  0.35880  0.30170  0.76709  1.0000
  Fe  Fe133     1.0  0.42641  0.27418  0.78200  1.0000
  S   S254      1.0  0.42364  0.24640  0.80158  1.0000
  S   S255      1.0  0.45404  0.28433  0.76724  1.0000
  Fe  Fe134     1.0  0.40577  0.24231  0.78130  1.0000
  S   S256      1.0  0.41141  0.21485  0.76949  1.0000
  Fe  Fe135     1.0  0.39631  0.26233  0.81612  1.0000
  S   S257      1.0  0.38177  0.26472  0.84655  1.0000
  S   S258      1.0  0.40995  0.26917  0.76113  1.0000
  S   S259      1.0  0.40072  0.29063  0.79801  1.0000
  C   C948      1.0  0.25304  0.03952  0.94775  1.0000
  Fe  Fe136     1.0  0.26831  0.06418  0.66641  1.0000
  S   S260      1.0  0.29677  0.06088  0.67498  1.0000
  C   C949      1.0  0.32345  0.14262  0.96111  1.0000
  C   C950      1.0  0.24275  0.46911  0.75327  1.0000
  C   C951      1.0  0.46612  0.23696  0.69040  1.0000
  C   C952      1.0  0.34478  0.38074  0.73783  1.0000
  H   H1129     1.0  0.30839  0.35191  0.70090  1.0000
  H   H1130     1.0  0.26321  0.09047  0.69175  1.0000
  H   H1131     1.0  0.28061  0.10411  0.67793  1.0000
  Fe  Fe137     1.0  0.39097  0.19544  0.67323  1.0000
  S   S261      1.0  0.41197  0.16858  0.67768  1.0000
  S   S262      1.0  0.38040  0.21637  0.69377  1.0000
  H   H1132     1.0  0.34939  0.20030  0.88685  1.0000
  Fe  Fe138     1.0  0.39243  0.15531  0.66593  1.0000
  S   S263      1.0  0.38281  0.12724  0.67939  1.0000
  Fe  Fe139     1.0  0.42443  0.17739  0.64710  1.0000
  C   C953      1.0  0.23644  0.36553  0.89715  1.0000
  S   S264      1.0  0.37047  0.18153  0.66407  1.0000
  S   S265      1.0  0.31222  0.11260  0.64918  1.0000
  H   H1133     1.0  0.31810  0.15960  0.67721  1.0000
  Fe  Fe140     1.0  0.37733  0.21264  0.95042  1.0000
  S   S266      1.0  0.39420  0.20588  0.92214  1.0000
  C   C954      1.0  0.33027  0.36029  0.72484  1.0000
  H   H1134     1.0  0.29403  0.44021  0.88035  1.0000
  H   H1135     1.0  0.29434  0.99961  0.69279  1.0000
  H   H1136     1.0  0.33470  0.13476  0.95214  1.0000
  C   C955      1.0  0.32420  0.19189  0.92822  1.0000
  H   H1137     1.0  0.33193  0.47170  0.79781  1.0000
  H   H1138     1.0  0.26606  0.14094  0.69308  1.0000
  H   H1139     1.0  0.41821  0.23651  0.70017  1.0000
  C   C956      1.0  0.26280  0.00653  0.95893  1.0000
  N   N61       1.0  0.27661  0.45232  0.85886  1.0000
  H   H1140     1.0  0.23576  0.01192  0.68630  1.0000
  C   C957      1.0  0.46582  0.16103  0.67221  1.0000
  C   C958      1.0  0.29735  0.32843  0.93511  1.0000
  C   C959      1.0  0.26713  0.10487  0.68834  1.0000
  H   H1141     1.0  0.45196  0.15684  0.67582  1.0000
  Fe  Fe141     1.0  0.30616  0.04180  0.65292  1.0000
  C   C960      1.0  0.23552  0.38800  0.74508  1.0000
  C   C961      1.0  0.25889  0.04785  0.73845  1.0000
  C   C962      1.0  0.25849  0.05133  0.71886  1.0000
  H   H1142     1.0  0.27157  0.03986  0.74365  1.0000
  H   H1143     1.0  0.27080  0.04594  0.70916  1.0000
  S   S267      1.0  0.27715  0.04403  0.64540  1.0000
  C   C963      1.0  0.29080  0.44333  0.84418  1.0000
  C   C964      1.0  0.23661  0.41140  0.71633  1.0000
  C   C965      1.0  0.30524  0.13746  0.96563  1.0000
  H   H1144     1.0  0.30409  0.28409  0.92457  1.0000
  C   C966      1.0  0.33874  0.13325  0.65129  1.0000
  C   C967      1.0  0.34279  0.10108  0.66853  1.0000
  C   C968      1.0  0.35823  0.10469  0.67539  1.0000
  C   C969      1.0  0.36408  0.12252  0.66998  1.0000
  C   C970      1.0  0.43211  0.23896  0.70112  1.0000
  H   H1145     1.0  0.45170  0.25819  0.72965  1.0000
  H   H1146     1.0  0.33851  0.08726  0.67256  1.0000
  H   H1147     1.0  0.36575  0.09362  0.68477  1.0000
  C   C971      1.0  0.31442  0.07796  0.71627  1.0000
  H   H1148     1.0  0.31873  0.05790  0.74168  1.0000
  C   C972      1.0  0.38592  0.24823  0.86730  1.0000
  C   C973      1.0  0.37542  0.25217  0.88490  1.0000
  C   C974      1.0  0.37809  0.23947  0.90180  1.0000
  C   C975      1.0  0.39131  0.22267  0.90126  1.0000
  C   C976      1.0  0.40180  0.21869  0.88365  1.0000
  C   C977      1.0  0.39911  0.23140  0.86671  1.0000
  H   H1149     1.0  0.36526  0.26519  0.88549  1.0000
  H   H1150     1.0  0.36999  0.24273  0.91525  1.0000
  H   H1151     1.0  0.41207  0.20572  0.88311  1.0000
  H   H1152     1.0  0.40730  0.22825  0.85324  1.0000
  C   C978      1.0  0.40226  0.21503  0.74881  1.0000
  C   C979      1.0  0.38962  0.23064  0.74157  1.0000
  C   C980      1.0  0.38278  0.23062  0.72491  1.0000
  C   C981      1.0  0.38866  0.21510  0.71521  1.0000
  C   C982      1.0  0.40115  0.19935  0.72256  1.0000
  C   C983      1.0  0.40784  0.19930  0.73936  1.0000
  H   H1153     1.0  0.38511  0.24278  0.74878  1.0000
  H   H1154     1.0  0.37310  0.24284  0.71935  1.0000
  H   H1155     1.0  0.40580  0.18729  0.71526  1.0000
  H   H1156     1.0  0.41750  0.18710  0.74497  1.0000
  H   H1157     1.0  0.23533  0.97804  0.68834  1.0000
  C   C984      1.0  0.30789  0.99361  0.64559  1.0000
  H   H1158     1.0  0.45905  0.27136  0.80670  1.0000
  C   C985      1.0  0.30875  0.06882  0.73469  1.0000
  C   C986      1.0  0.31125  0.38861  0.73575  1.0000
  C   C987      1.0  0.26521  0.37904  0.88532  1.0000
  C   C988      1.0  0.26215  0.38105  0.86659  1.0000
  H   H1159     1.0  0.27699  0.30916  0.87449  1.0000
  H   H1160     1.0  0.27752  0.38365  0.88795  1.0000
  H   H1161     1.0  0.27214  0.38699  0.85497  1.0000
  S   S268      1.0  0.25667  0.36952  0.92392  1.0000
  C   C989      1.0  0.45758  0.34503  0.77274  1.0000
  C   C990      1.0  0.47192  0.27618  0.79859  1.0000
  N   N62       1.0  0.24594  0.02133  0.95559  1.0000
  C   C991      1.0  0.32711  0.15808  0.96786  1.0000
  C   C992      1.0  0.32733  0.39274  0.74072  1.0000
  H   H1162     1.0  0.25936  0.04394  0.95842  1.0000
  C   C993      1.0  0.45208  0.33104  0.78780  1.0000
  H   H1163     1.0  0.48084  0.24845  0.70707  1.0000
  C   C994      1.0  0.33726  0.36025  0.78424  1.0000
  C   C995      1.0  0.35584  0.35100  0.78598  1.0000
  C   C996      1.0  0.36273  0.33318  0.78044  1.0000
  C   C997      1.0  0.35106  0.32454  0.77306  1.0000
  C   C998      1.0  0.33259  0.33396  0.77095  1.0000
  C   C999      1.0  0.32563  0.35171  0.77668  1.0000
  H   H1164     1.0  0.36494  0.35764  0.79167  1.0000
  H   H1165     1.0  0.37707  0.32616  0.78185  1.0000
  H   H1166     1.0  0.32358  0.32742  0.76507  1.0000
  H   H1167     1.0  0.31142  0.35888  0.77501  1.0000
  H   H1168     1.0  0.28561  0.06617  0.75823  1.0000
  H   H1169     1.0  0.43596  0.25101  0.65584  1.0000
  H   H1170     1.0  0.30679  0.45298  0.79814  1.0000
  H   H1171     1.0  0.33896  0.33422  0.85412  1.0000
  C   C1000     1.0  0.30299  0.33668  0.89201  1.0000
  H   H1172     1.0  0.47938  0.23293  0.68121  1.0000
  H   H1173     1.0  0.35895  0.15033  0.65314  1.0000
  H   H1174     1.0  0.30645  0.09826  0.69269  1.0000
  H   H1175     1.0  0.35703  0.38368  0.74231  1.0000
  H   H1176     1.0  0.41761  0.23795  0.66919  1.0000
  C   C1001     1.0  0.27619  0.12957  0.70027  1.0000
  H   H1177     1.0  0.23928  0.97909  0.76376  1.0000
  S   S269      1.0  0.25459  0.41764  0.74331  1.0000
  S   S270      1.0  0.24075  0.06522  0.68763  1.0000
  H   H1178     1.0  0.30914  0.35506  0.86518  1.0000
  C   C1002     1.0  0.43987  0.20588  0.68006  1.0000
  C   C1003     1.0  0.43337  0.24773  0.71602  1.0000
  H   H1179     1.0  0.33163  0.29475  0.90578  1.0000
  S   S271      1.0  0.24411  0.04986  0.77579  1.0000
  H   H1180     1.0  0.28814  0.32567  0.94923  1.0000
  H   H1181     1.0  0.26500  0.02281  0.68868  1.0000
  H   H1182     1.0  0.23963  0.12571  0.70898  1.0000
  H   H1183     1.0  0.29030  0.34643  0.89640  1.0000
  C   C1004     1.0  0.31220  0.37222  0.72767  1.0000
  H   H1184     1.0  0.27584  0.30611  0.91108  1.0000
  C   C1005     1.0  0.33282  0.11551  0.65670  1.0000
  C   C1006     1.0  0.24945  0.11487  0.71709  1.0000
  S   S272      1.0  0.34624  0.22499  0.95297  1.0000
  C   C1007     1.0  0.28098  0.36452  0.74133  1.0000
  C   C1008     1.0  0.35829  0.19540  0.89818  1.0000
  H   H1185     1.0  0.26908  0.34135  0.85639  1.0000
  H   H1186     1.0  0.26961  0.32991  0.91627  1.0000
  S   S273      1.0  0.38440  0.23198  0.96746  1.0000
  C   C1009     1.0  0.31380  0.34183  0.87418  1.0000
  C   C1010     1.0  0.24604  0.37560  0.86304  1.0000
  H   H1187     1.0  0.47561  0.21002  0.66582  1.0000
  H   H1188     1.0  0.42069  0.25172  0.72608  1.0000
  H   H1189     1.0  0.30309  0.45106  0.83884  1.0000
  N   N63       1.0  0.35434  0.15956  0.72362  1.0000
  C   C1011     1.0  0.37413  0.16228  0.71535  1.0000
  C   C1012     1.0  0.34837  0.16813  0.74118  1.0000
  C   C1013     1.0  0.35429  0.13879  0.72923  1.0000
  C   C1014     1.0  0.34186  0.16890  0.70952  1.0000
  C   C1015     1.0  0.33429  0.15850  0.69916  1.0000
  C   C1016     1.0  0.33802  0.18903  0.70483  1.0000
  C   C1017     1.0  0.32322  0.16779  0.68536  1.0000
  C   C1018     1.0  0.32693  0.19815  0.69102  1.0000
  C   C1019     1.0  0.31955  0.18755  0.68129  1.0000
  H   H1190     1.0  0.37533  0.17757  0.71101  1.0000
  H   H1191     1.0  0.38415  0.15587  0.72546  1.0000
  H   H1192     1.0  0.37924  0.15558  0.70244  1.0000
  H   H1193     1.0  0.35108  0.18297  0.73886  1.0000
  H   H1194     1.0  0.35646  0.16028  0.75260  1.0000
  H   H1195     1.0  0.33292  0.16822  0.74676  1.0000
  H   H1196     1.0  0.36078  0.13104  0.71714  1.0000
  H   H1197     1.0  0.36302  0.13229  0.74050  1.0000
  H   H1198     1.0  0.33959  0.13573  0.73467  1.0000
  H   H1199     1.0  0.33731  0.14320  0.70088  1.0000
  H   H1200     1.0  0.34431  0.19793  0.71110  1.0000
  H   H1201     1.0  0.27865  0.13444  0.71291  1.0000
  H   H1202     1.0  0.32474  0.21351  0.68728  1.0000
  C   C1020     1.0  0.47738  0.19424  0.72339  1.0000
  C   C1021     1.0  0.26488  0.00775  0.68993  1.0000
  N   N64       1.0  0.44653  0.22422  0.67206  1.0000
  S   S274      1.0  0.27349  0.08939  0.64401  1.0000
  S   S275      1.0  0.32535  0.01447  0.66219  1.0000
  C   C1022     1.0  0.47311  0.28312  0.77915  1.0000
  C   C1023     1.0  0.24111  0.40485  0.73460  1.0000
  Fe  Fe142     1.0  0.23719  0.35658  0.94964  1.0000
  C   C1024     1.0  0.30304  0.46805  0.79847  1.0000
  H   H1203     1.0  0.34076  0.97541  0.67438  1.0000
  C   C1025     1.0  0.28589  0.38377  0.71021  1.0000
  C   C1026     1.0  0.30148  0.09179  0.70708  1.0000
  H   H1204     1.0  0.33115  0.14449  0.64210  1.0000
  H   H1205     1.0  0.25609  0.11452  0.68079  1.0000
  H   H1206     1.0  0.26282  0.08989  0.74290  1.0000
  H   H1207     1.0  0.32885  0.07412  0.70894  1.0000
  H   H1208     1.0  0.26416  0.43438  0.89635  1.0000
  C   C1027     1.0  0.35446  0.13664  0.65764  1.0000
  C   C1028     1.0  0.45085  0.25132  0.71806  1.0000
  H   H1209     1.0  0.27732  0.46155  0.88493  1.0000
  Fe  Fe143     1.0  0.30294  0.08443  0.65073  1.0000
  C   C1029     1.0  0.43235  0.23651  0.66089  1.0000
  H   H1210     1.0  0.43870  0.19834  0.66867  1.0000
  N   N65       1.0  0.33018  0.29315  0.82820  1.0000
  C   C1030     1.0  0.34792  0.30134  0.82453  1.0000
  C   C1031     1.0  0.33376  0.27422  0.84032  1.0000
  C   C1032     1.0  0.32646  0.29003  0.80994  1.0000
  C   C1033     1.0  0.31391  0.30638  0.83668  1.0000
  C   C1034     1.0  0.30903  0.32515  0.82689  1.0000
  C   C1035     1.0  0.30203  0.30099  0.85427  1.0000
  C   C1036     1.0  0.29313  0.33760  0.83404  1.0000
  C   C1037     1.0  0.28607  0.31355  0.86123  1.0000
  C   C1038     1.0  0.28158  0.33175  0.85109  1.0000
  H   H1211     1.0  0.35165  0.30335  0.83792  1.0000
  H   H1212     1.0  0.36028  0.29190  0.81764  1.0000
  H   H1213     1.0  0.34699  0.31521  0.81487  1.0000
  H   H1214     1.0  0.33730  0.27539  0.85412  1.0000
  H   H1215     1.0  0.34622  0.26481  0.83346  1.0000
  H   H1216     1.0  0.32143  0.26664  0.84292  1.0000
  H   H1217     1.0  0.32496  0.30336  0.79947  1.0000
  H   H1218     1.0  0.33836  0.28015  0.80298  1.0000
  H   H1219     1.0  0.31315  0.28405  0.81198  1.0000
  H   H1220     1.0  0.31732  0.33029  0.81344  1.0000
  H   H1221     1.0  0.30466  0.28713  0.86282  1.0000
  H   H1222     1.0  0.28958  0.35183  0.82621  1.0000
  H   H1223     1.0  0.43870  0.32611  0.78904  1.0000
  C   C1039     1.0  0.34626  0.36459  0.72988  1.0000
  C   C1040     1.0  0.32097  0.99325  0.65727  1.0000
  Fe  Fe144     1.0  0.27313  0.10682  0.96222  1.0000
  C   C1041     1.0  0.29015  0.07356  0.74400  1.0000
  C   C1042     1.0  0.36206  0.16226  0.89696  1.0000
  N   N66       1.0  0.35445  0.17677  0.90946  1.0000
  C   C1043     1.0  0.30361  0.29523  0.93311  1.0000
  C   C1044     1.0  0.29464  0.17982  0.93330  1.0000
  H   H1224     1.0  0.31207  0.32795  0.93751  1.0000
  S   S276      1.0  0.24157  0.37818  0.83968  1.0000
  C   C1045     1.0  0.33382  0.17785  0.91708  1.0000
  H   H1225     1.0  0.32895  0.15325  0.90666  1.0000
  H   H1226     1.0  0.35449  0.16503  0.88463  1.0000
  H   H1227     1.0  0.36093  0.14765  0.90488  1.0000
  H   H1228     1.0  0.33169  0.20187  0.93143  1.0000
  C   C1046     1.0  0.26116  0.44088  0.86620  1.0000
  H   H1229     1.0  0.38085  0.17094  0.92034  1.0000
  Fe  Fe145     1.0  0.24698  0.09162  0.94207  1.0000
  C   C1047     1.0  0.30360  0.16585  0.92245  1.0000
  H   H1230     1.0  0.28477  0.34775  0.71115  1.0000
  C   C1048     1.0  0.24833  0.98216  0.68978  1.0000
  H   H1231     1.0  0.48211  0.24131  0.78335  1.0000
  S   S277      1.0  0.24719  0.12030  0.94912  1.0000
  C   C1049     1.0  0.25657  0.43281  0.88569  1.0000
  C   C1050     1.0  0.46394  0.32312  0.80110  1.0000
  N   N67       1.0  0.29690  0.31453  0.92302  1.0000
  C   C1051     1.0  0.46343  0.20246  0.73688  1.0000
  H   H1232     1.0  0.30365  0.33750  0.72419  1.0000
  S   S278      1.0  0.30087  0.11891  0.95562  1.0000
  H   H1233     1.0  0.32617  0.40501  0.74740  1.0000
  H   H1234     1.0  0.25296  0.44287  0.83858  1.0000
  H   H1235     1.0  0.47042  0.23354  0.65195  1.0000
  C   C1052     1.0  0.28237  0.09687  0.71607  1.0000
  H   H1236     1.0  0.28146  0.39708  0.71629  1.0000
  H   H1237     1.0  0.29641  0.42831  0.84978  1.0000
  H   H1238     1.0  0.29199  0.34327  0.92874  1.0000
  H   H1239     1.0  0.31793  0.29406  0.93692  1.0000
  H   H1240     1.0  0.33243  0.34733  0.71915  1.0000
  C   C1053     1.0  0.32590  0.30785  0.89739  1.0000
  H   H1241     1.0  0.31155  0.19467  0.67011  1.0000
  C   C1054     1.0  0.30857  0.31945  0.90412  1.0000
  H   H1242     1.0  0.34990  0.30416  0.87473  1.0000
  H   H1243     1.0  0.26418  0.03848  0.93486  1.0000
  H   H1244     1.0  0.35977  0.35500  0.72817  1.0000
  H   H1245     1.0  0.29395  0.29155  0.94675  1.0000
  H   H1246     1.0  0.45667  0.21877  0.75887  1.0000
  C   C1055     1.0  0.24303  0.05462  0.75130  1.0000
  H   H1247     1.0  0.29574  0.15523  0.92093  1.0000
  H   H1248     1.0  0.27268  0.38079  0.70671  1.0000
  H   H1249     1.0  0.26801  0.31039  0.93507  1.0000
  C   C1056     1.0  0.33663  0.31313  0.87951  1.0000
  H   H1250     1.0  0.45966  0.31213  0.81272  1.0000
  C   C1057     1.0  0.24194  0.42199  0.89203  1.0000
  C   C1058     1.0  0.27708  0.08735  0.73492  1.0000
  C   C1059     1.0  0.27680  0.31527  0.92116  1.0000
  C   C1060     1.0  0.28700  0.45429  0.87368  1.0000
  H   H1251     1.0  0.44981  0.19629  0.68898  1.0000
  H   H1252     1.0  0.26797  0.36011  0.73898  1.0000
  C   C1061     1.0  0.25231  0.37143  0.90066  1.0000
  H   H1253     1.0  0.43161  0.23056  0.64820  1.0000
  H   H1254     1.0  0.42551  0.20777  0.68892  1.0000
  H   H1255     1.0  0.27602  0.37759  0.74778  1.0000
  H   H1256     1.0  0.29592  0.38689  0.69670  1.0000
  H   H1257     1.0  0.23871  0.38297  0.75926  1.0000
  C   C1062     1.0  0.33057  0.33007  0.86792  1.0000
  C   C1063     1.0  0.24207  0.06133  0.71201  1.0000
  H   H1258     1.0  0.28468  0.44329  0.83149  1.0000
  H   H1259     1.0  0.36127  0.18289  0.93484  1.0000
  H   H1260     1.0  0.27989  0.18011  0.94004  1.0000
  H   H1261     1.0  0.36258  0.15814  0.93442  1.0000
  H   H1262     1.0  0.35561  0.20667  0.90707  1.0000
  H   H1263     1.0  0.25640  0.46024  0.74788  1.0000
  S   S279      1.0  0.27431  0.07898  0.95298  1.0000
  C   C1064     1.0  0.47154  0.17122  0.65423  1.0000
  C   C1065     1.0  0.46465  0.22029  0.65866  1.0000
  C   C1066     1.0  0.32289  0.16478  0.91441  1.0000
  H   H1264     1.0  0.34112  0.16196  0.96435  1.0000
  H   H1265     1.0  0.37748  0.16219  0.89108  1.0000
  C   C1067     1.0  0.30491  0.19284  0.93617  1.0000
  H   H1266     1.0  0.37350  0.19471  0.89124  1.0000
  H   H1267     1.0  0.29815  0.20321  0.94529  1.0000
  C   C1068     1.0  0.36521  0.17195  0.92545  1.0000
  C   C1069     1.0  0.46827  0.21296  0.74869  1.0000
  C   C1070     1.0  0.24840  0.00154  0.68862  1.0000
  N   N68       1.0  0.26890  0.11129  0.70579  1.0000
  C   C1071     1.0  0.29816  0.35044  0.71453  1.0000
  H   H1268     1.0  0.29794  0.39816  0.73869  1.0000
  H   H1269     1.0  0.28746  0.35331  0.75206  1.0000
  H   H1270     1.0  0.28988  0.12849  0.69004  1.0000
  H   H1271     1.0  0.44829  0.35113  0.76241  1.0000
  C   C1072     1.0  0.47826  0.15580  0.68546  1.0000
  H   H1272     1.0  0.47377  0.14773  0.69927  1.0000
  H   H1273     1.0  0.44874  0.20063  0.73836  1.0000
  N   N69       1.0  0.29473  0.36770  0.72342  1.0000
  C   C1073     1.0  0.44839  0.23342  0.68774  1.0000
  H   H1274     1.0  0.46626  0.24390  0.76704  1.0000
  S   S280      1.0  0.24479  0.09018  0.91157  1.0000
  C   C1074     1.0  0.28137  0.99464  0.69233  1.0000
  C   C1075     1.0  0.46720  0.24588  0.70531  1.0000
  H   H1275     1.0  0.24881  0.16967  0.96793  1.0000
  C   C1076     1.0  0.47514  0.35090  0.77075  1.0000
  H   H1276     1.0  0.46267  0.21370  0.64684  1.0000
  C   C1077     1.0  0.30460  0.97656  0.64182  1.0000
  H   H1277     1.0  0.47033  0.22200  0.78365  1.0000
  S   S281      1.0  0.45600  0.17840  0.63746  1.0000
  H   H1278     1.0  0.24171  0.05133  0.94348  1.0000
  C   C1078     1.0  0.33059  0.97572  0.66536  1.0000
  C   C1079     1.0  0.25025  0.43736  0.85362  1.0000
  H   H1279     1.0  0.24958  0.12019  0.73029  1.0000
  C   C1080     1.0  0.23631  0.07902  0.88099  1.0000
  C   C1081     1.0  0.47726  0.23355  0.77407  1.0000
  H   H1280     1.0  0.24255  0.47001  0.76837  1.0000
  H   H1281     1.0  0.30052  0.00701  0.63920  1.0000
  H   H1282     1.0  0.47371  0.18575  0.71452  1.0000
  H   H1283     1.0  0.29847  0.46299  0.86761  1.0000
  H   H1284     1.0  0.26107  0.47164  0.83839  1.0000
  C   C1082     1.0  0.26852  0.47174  0.85019  1.0000
  H   H1285     1.0  0.27350  0.00552  0.94571  1.0000
  H   H1286     1.0  0.24076  0.42451  0.70819  1.0000
  H   H1287     1.0  0.24290  0.10174  0.72099  1.0000
  H   H1288     1.0  0.47878  0.36177  0.75883  1.0000
  C   C1083     1.0  0.48166  0.32864  0.79910  1.0000
  H   H1289     1.0  0.24772  0.01416  0.92792  1.0000
  H   H1290     1.0  0.25875  0.99222  0.96410  1.0000
  H   H1291     1.0  0.23898  0.41548  0.90686  1.0000
  C   C1084     1.0  0.23577  0.42642  0.86009  1.0000
  C   C1085     1.0  0.23720  0.01624  0.94108  1.0000
  H   H1292     1.0  0.24029  0.00749  0.74272  1.0000
  C   C1086     1.0  0.28152  0.97523  0.69337  1.0000
  Fe  Fe146     1.0  0.34351  0.51334  0.20046  1.0000
  S   S282      1.0  0.33956  0.54489  0.20121  1.0000
  S   S283      1.0  0.31781  0.50549  0.19338  1.0000
  Fe  Fe147     1.0  0.32178  0.47990  0.21596  1.0000
  C   C1087     1.0  0.36514  0.63545  0.98067  1.0000
  H   H1293     1.0  0.36873  0.52761  0.14134  1.0000
  Fe  Fe148     1.0  0.33860  0.48822  0.17387  1.0000
  H   H1294     1.0  0.27820  0.50356  0.15251  1.0000
  Fe  Fe149     1.0  0.38461  0.94369  0.21190  1.0000
  C   C1088     1.0  0.27710  0.51828  0.14557  1.0000
  S   S284      1.0  0.40266  0.91662  0.20316  1.0000
  S   S285      1.0  0.35396  0.94281  0.22440  1.0000
  Fe  Fe150     1.0  0.38569  0.77486  0.28330  1.0000
  Fe  Fe151     1.0  0.27670  0.94773  0.11375  1.0000
  S   S286      1.0  0.30654  0.94993  0.11741  1.0000
  Fe  Fe152     1.0  0.25216  0.92507  0.09966  1.0000
  H   H1295     1.0  0.43923  0.70727  0.17984  1.0000
  S   S287      1.0  0.34738  0.95381  0.27561  1.0000
  S   S288      1.0  0.26960  0.94798  0.08499  1.0000
  S   S289      1.0  0.26177  0.92313  0.12744  1.0000
  Fe  Fe153     1.0  0.28749  0.60217  0.07320  1.0000
  S   S290      1.0  0.31706  0.60872  0.07030  1.0000
  S   S291      1.0  0.28938  0.57018  0.07605  1.0000
  Fe  Fe154     1.0  0.26953  0.64372  0.07670  1.0000
  S   S292      1.0  0.29769  0.65222  0.07502  1.0000
  H   H1296     1.0  0.35096  0.59781  0.14681  1.0000
  Fe  Fe155     1.0  0.30695  0.63553  0.05113  1.0000
  S   S293      1.0  0.32266  0.65147  0.02475  1.0000
  Fe  Fe156     1.0  0.30458  0.62472  0.09430  1.0000
  S   S294      1.0  0.31624  0.61972  0.12157  1.0000
  S   S295      1.0  0.27841  0.62796  0.05189  1.0000
  S   S296      1.0  0.27551  0.61722  0.09812  1.0000
  Fe  Fe157     1.0  0.40397  0.62522  0.18066  1.0000
  S   S297      1.0  0.41355  0.63716  0.15007  1.0000
  S   S298      1.0  0.40645  0.59297  0.18662  1.0000
  Fe  Fe158     1.0  0.39833  0.66443  0.19248  1.0000
  S   S299      1.0  0.40694  0.67895  0.16264  1.0000
  S   S300      1.0  0.39172  0.67979  0.21791  1.0000
  Fe  Fe159     1.0  0.38913  0.66088  0.15467  1.0000
  S   S301      1.0  0.37192  0.67212  0.13099  1.0000
  Fe  Fe160     1.0  0.43055  0.65389  0.16083  1.0000
  S   S302      1.0  0.46014  0.65857  0.14553  1.0000
  S   S303      1.0  0.37835  0.64815  0.18477  1.0000
  S   S304      1.0  0.42303  0.64018  0.19113  1.0000
  S   S305      1.0  0.38169  0.79271  0.25503  1.0000
  Fe  Fe161     1.0  0.42870  0.77432  0.27490  1.0000
  S   S306      1.0  0.42770  0.79251  0.24627  1.0000
  H   H1297     1.0  0.46918  0.72403  0.12400  1.0000
  Fe  Fe162     1.0  0.40161  0.80974  0.26096  1.0000
  S   S307      1.0  0.39285  0.84110  0.26270  1.0000
  Fe  Fe163     1.0  0.40791  0.77355  0.24322  1.0000
  S   S308      1.0  0.41228  0.76116  0.21615  1.0000
  S   S309      1.0  0.40420  0.79278  0.29006  1.0000
  S   S310      1.0  0.41044  0.75446  0.27104  1.0000
  H   H1298     1.0  0.24786  0.96360  0.29152  1.0000
  C   C1089     1.0  0.39699  0.70267  0.21710  1.0000
  C   C1090     1.0  0.39528  0.70945  0.23416  1.0000
  C   C1091     1.0  0.39948  0.72749  0.23410  1.0000
  C   C1092     1.0  0.40556  0.73891  0.21694  1.0000
  C   C1093     1.0  0.40695  0.73228  0.19989  1.0000
  C   C1094     1.0  0.40268  0.71427  0.19992  1.0000
  H   H1299     1.0  0.39061  0.70070  0.24751  1.0000
  H   H1300     1.0  0.39799  0.73250  0.24735  1.0000
  H   H1301     1.0  0.41101  0.74131  0.18663  1.0000
  H   H1302     1.0  0.40349  0.70943  0.18670  1.0000
  H   H1303     1.0  0.37339  0.69058  0.97660  1.0000
  C   C1095     1.0  0.26185  0.69691  0.06963  1.0000
  C   C1096     1.0  0.26263  0.71644  0.06625  1.0000
  H   H1304     1.0  0.27479  0.68685  0.06763  1.0000
  H   H1305     1.0  0.27626  0.72122  0.06201  1.0000
  C   C1097     1.0  0.31793  0.64893  0.00281  1.0000
  C   C1098     1.0  0.30994  0.63362  0.00109  1.0000
  H   H1306     1.0  0.23763  0.70484  0.01488  1.0000
  C   C1099     1.0  0.32287  0.66224  0.98667  1.0000
  H   H1307     1.0  0.30617  0.62323  0.01348  1.0000
  H   H1308     1.0  0.31315  0.48164  0.04758  1.0000
  C   C1100     1.0  0.33061  0.63539  0.12412  1.0000
  C   C1101     1.0  0.33476  0.63509  0.14210  1.0000
  C   C1102     1.0  0.34761  0.64615  0.14429  1.0000
  C   C1103     1.0  0.35584  0.65808  0.12860  1.0000
  C   C1104     1.0  0.35109  0.65896  0.11073  1.0000
  C   C1105     1.0  0.33870  0.64743  0.10843  1.0000
  H   H1309     1.0  0.32830  0.62603  0.15436  1.0000
  H   H1310     1.0  0.35099  0.64560  0.15817  1.0000
  H   H1311     1.0  0.35743  0.66821  0.09856  1.0000
  H   H1312     1.0  0.33569  0.64762  0.09447  1.0000
  C   C1106     1.0  0.47234  0.65822  0.17900  1.0000
  C   C1107     1.0  0.45208  0.85894  0.23459  1.0000
  H   H1313     1.0  0.45628  0.81886  0.23357  1.0000
  C   C1108     1.0  0.31737  0.96693  0.17117  1.0000
  S   S311      1.0  0.36425  0.49751  0.17940  1.0000
  C   C1109     1.0  0.24404  0.53388  0.07757  1.0000
  C   C1110     1.0  0.23760  0.52404  0.02244  1.0000
  H   H1314     1.0  0.45917  0.65354  0.18628  1.0000
  H   H1315     1.0  0.43455  0.70881  0.24663  1.0000
  C   C1111     1.0  0.24589  0.72986  0.06835  1.0000
  H   H1316     1.0  0.39922  0.57172  0.15216  1.0000
  C   C1112     1.0  0.36423  0.54413  0.11421  1.0000
  C   C1113     1.0  0.27182  0.47849  0.29537  1.0000
  C   C1114     1.0  0.39992  0.89550  0.21951  1.0000
  C   C1115     1.0  0.39036  0.89623  0.23807  1.0000
  C   C1116     1.0  0.38850  0.87936  0.25105  1.0000
  C   C1117     1.0  0.39596  0.86161  0.24558  1.0000
  C   C1118     1.0  0.40534  0.86078  0.22694  1.0000
  C   C1119     1.0  0.40743  0.87773  0.21396  1.0000
  H   H1317     1.0  0.38458  0.90982  0.24253  1.0000
  H   H1318     1.0  0.38117  0.88011  0.26544  1.0000
  H   H1319     1.0  0.41090  0.84715  0.22253  1.0000
  H   H1320     1.0  0.41473  0.87710  0.19956  1.0000
  C   C1120     1.0  0.31042  0.95630  0.13831  1.0000
  C   C1121     1.0  0.28990  0.50459  0.04316  1.0000
  Fe  Fe164     1.0  0.23591  0.94503  0.13366  1.0000
  C   C1122     1.0  0.44568  0.71764  0.24556  1.0000
  C   C1123     1.0  0.36996  0.57658  0.10855  1.0000
  C   C1124     1.0  0.27152  0.55670  0.07656  1.0000
  C   C1125     1.0  0.25341  0.56518  0.07260  1.0000
  C   C1126     1.0  0.29697  0.48095  0.26743  1.0000
  C   C1127     1.0  0.29976  0.48621  0.04238  1.0000
  S   S312      1.0  0.33387  0.49258  0.14358  1.0000
  H   H1321     1.0  0.47917  0.70355  0.13932  1.0000
  C   C1128     1.0  0.35837  0.55766  0.19891  1.0000
  C   C1129     1.0  0.35404  0.57704  0.20042  1.0000
  C   C1130     1.0  0.36861  0.58804  0.19713  1.0000
  C   C1131     1.0  0.38764  0.57966  0.19245  1.0000
  C   C1132     1.0  0.39198  0.56014  0.19158  1.0000
  C   C1133     1.0  0.37742  0.54920  0.19465  1.0000
  H   H1322     1.0  0.33933  0.58366  0.20381  1.0000
  H   H1323     1.0  0.36511  0.60302  0.19802  1.0000
  H   H1324     1.0  0.40669  0.55352  0.18820  1.0000
  H   H1325     1.0  0.38094  0.53427  0.19359  1.0000
  H   H1326     1.0  0.43490  0.75426  0.16299  1.0000
  H   H1327     1.0  0.38444  0.61892  0.12624  1.0000
  C   C1134     1.0  0.47565  0.80471  0.29663  1.0000
  H   H1328     1.0  0.29802  0.69012  0.01147  1.0000
  C   C1135     1.0  0.23912  0.96094  0.28176  1.0000
  H   H1329     1.0  0.31073  0.48464  0.26071  1.0000
  H   H1330     1.0  0.36963  0.58993  0.09885  1.0000
  H   H1331     1.0  0.26380  0.67514  0.03925  1.0000
  H   H1332     1.0  0.26186  0.75332  0.11134  1.0000
  H   H1333     1.0  0.27885  0.66448  0.02047  1.0000
  C   C1136     1.0  0.24434  0.69055  0.07533  1.0000
  C   C1137     1.0  0.23923  0.88293  0.08708  1.0000
  H   H1334     1.0  0.47538  0.86684  0.25468  1.0000
  H   H1335     1.0  0.24759  0.53308  0.01307  1.0000
  C   C1138     1.0  0.36460  0.56174  0.10246  1.0000
  C   C1139     1.0  0.27457  0.47924  0.02915  1.0000
  H   H1336     1.0  0.45117  0.87215  0.26610  1.0000
  C   C1140     1.0  0.25866  0.73903  0.11392  1.0000
  H   H1337     1.0  0.29566  0.51430  0.04902  1.0000
  C   C1141     1.0  0.45609  0.71566  0.21264  1.0000
  H   H1338     1.0  0.46456  0.86430  0.22500  1.0000
  H   H1339     1.0  0.31185  0.54567  0.16551  1.0000
  H   H1340     1.0  0.28403  0.69890  0.03208  1.0000
  S   S313      1.0  0.25594  0.89670  0.08942  1.0000
  H   H1341     1.0  0.28649  0.71452  0.00983  1.0000
  C   C1142     1.0  0.46973  0.81768  0.23817  1.0000
  H   H1342     1.0  0.28707  0.96872  0.18062  1.0000
  C   C1143     1.0  0.44957  0.74971  0.16480  1.0000
  Fe  Fe165     1.0  0.24332  0.96859  0.09395  1.0000
  C   C1144     1.0  0.23577  0.71823  0.11797  1.0000
  H   H1343     1.0  0.31153  0.67831  0.10018  1.0000
  H   H1344     1.0  0.36274  0.62885  0.99550  1.0000
  C   C1145     1.0  0.29641  0.47556  0.11894  1.0000
  H   H1345     1.0  0.39758  0.67773  0.97293  1.0000
  C   C1146     1.0  0.44943  0.70280  0.16737  1.0000
  C   C1147     1.0  0.37241  0.65248  0.97539  1.0000
  H   H1346     1.0  0.35435  0.84777  0.28348  1.0000
  H   H1347     1.0  0.24774  0.70659  0.03472  1.0000
  C   C1148     1.0  0.27088  0.71240  0.97893  1.0000
  C   C1149     1.0  0.32341  0.96297  0.28377  1.0000
  N   N70       1.0  0.45246  0.71912  0.15200  1.0000
  H   H1348     1.0  0.42239  0.73063  0.15770  1.0000
  N   N71       1.0  0.26775  0.69423  0.01237  1.0000
  H   H1349     1.0  0.24937  0.95451  0.27034  1.0000
  H   H1350     1.0  0.43501  0.74039  0.13486  1.0000
  C   C1150     1.0  0.26581  0.67512  0.02371  1.0000
  C   C1151     1.0  0.26988  0.69490  0.99162  1.0000
  H   H1351     1.0  0.25080  0.55081  0.11676  1.0000
  H   H1352     1.0  0.30621  0.67442  0.13627  1.0000
  C   C1152     1.0  0.47175  0.77578  0.28741  1.0000
  H   H1353     1.0  0.30347  0.58612  0.14896  1.0000
  C   C1153     1.0  0.25055  0.70768  0.01899  1.0000
  H   H1354     1.0  0.24436  0.88689  0.14972  1.0000
  H   H1355     1.0  0.43454  0.83127  0.25696  1.0000
  H   H1356     1.0  0.26531  0.52471  0.03849  1.0000
  H   H1357     1.0  0.25768  0.47795  0.22584  1.0000
  H   H1358     1.0  0.40302  0.59551  0.14556  1.0000
  H   H1359     1.0  0.27004  0.72544  0.98414  1.0000
  H   H1360     1.0  0.44373  0.69183  0.16264  1.0000
  H   H1361     1.0  0.25318  0.51738  0.13284  1.0000
  H   H1362     1.0  0.35373  0.61458  0.97142  1.0000
  H   H1363     1.0  0.44822  0.77402  0.17788  1.0000
  H   H1364     1.0  0.30178  0.61916  0.98179  1.0000
  C   C1154     1.0  0.24728  0.49916  0.00375  1.0000
  C   C1155     1.0  0.27154  0.67845  0.98336  1.0000
  C   C1156     1.0  0.43391  0.72731  0.14567  1.0000
  N   N72       1.0  0.30344  0.56029  0.13886  1.0000
  C   C1157     1.0  0.31338  0.56682  0.11943  1.0000
  C   C1158     1.0  0.31824  0.55020  0.15042  1.0000
  C   C1159     1.0  0.28951  0.54839  0.13787  1.0000
  C   C1160     1.0  0.27471  0.55591  0.12707  1.0000
  C   C1161     1.0  0.26166  0.54487  0.12552  1.0000
  C   C1162     1.0  0.26298  0.52603  0.13457  1.0000
  H   H1365     1.0  0.30353  0.57617  0.11030  1.0000
  H   H1366     1.0  0.32440  0.57533  0.11965  1.0000
  H   H1367     1.0  0.32030  0.55457  0.11212  1.0000
  H   H1368     1.0  0.32665  0.53745  0.14462  1.0000
  H   H1369     1.0  0.32858  0.55944  0.15076  1.0000
  N   N73       1.0  0.45753  0.84738  0.25248  1.0000
  H   H1370     1.0  0.27335  0.57030  0.11933  1.0000
  H   H1371     1.0  0.42879  0.71706  0.13925  1.0000
  C   C1163     1.0  0.45714  0.76134  0.17334  1.0000
  C   C1164     1.0  0.30877  0.48613  0.12308  1.0000
  H   H1372     1.0  0.32910  0.67408  0.98792  1.0000
  H   H1373     1.0  0.27153  0.66441  0.99172  1.0000
  C   C1165     1.0  0.36542  0.59401  0.15067  1.0000
  H   H1374     1.0  0.36673  0.61346  0.11570  1.0000
  H   H1375     1.0  0.34068  0.95479  0.12866  1.0000
  C   C1166     1.0  0.34498  0.84664  0.29713  1.0000
  C   C1167     1.0  0.31723  0.48003  0.13941  1.0000
  H   H1376     1.0  0.31181  0.49904  0.11358  1.0000
  H   H1377     1.0  0.23968  0.77151  0.98052  1.0000
  H   H1378     1.0  0.44400  0.70806  0.21359  1.0000
  H   H1379     1.0  0.35988  0.53272  0.10952  1.0000
  H   H1380     1.0  0.28503  0.57290  0.16168  1.0000
  C   C1168     1.0  0.47591  0.75651  0.17645  1.0000
  H   H1381     1.0  0.45946  0.70224  0.12955  1.0000
  C   C1169     1.0  0.29886  0.96554  0.16938  1.0000
  H   H1382     1.0  0.46290  0.69581  0.17244  1.0000
  H   H1383     1.0  0.28371  0.68502  0.14854  1.0000
  N   N74       1.0  0.46263  0.71257  0.23112  1.0000
  C   C1170     1.0  0.26207  0.52543  0.08176  1.0000
  H   H1384     1.0  0.25187  0.72278  0.01328  1.0000
  H   H1385     1.0  0.39172  0.60541  0.10731  1.0000
  C   C1171     1.0  0.28478  0.69974  0.01656  1.0000
  S   S314      1.0  0.24291  0.66603  0.07984  1.0000
  N   N75       1.0  0.24554  0.50350  0.02310  1.0000
  H   H1386     1.0  0.43876  0.73269  0.24184  1.0000
  C   C1172     1.0  0.47285  0.83129  0.24810  1.0000
  N   N76       1.0  0.28547  0.68819  0.11832  1.0000
  C   C1173     1.0  0.27940  0.66970  0.11928  1.0000
  C   C1174     1.0  0.30017  0.69099  0.10104  1.0000
  C   C1175     1.0  0.29434  0.68677  0.13522  1.0000
  C   C1176     1.0  0.26959  0.70452  0.11772  1.0000
  C   C1177     1.0  0.46392  0.79359  0.29237  1.0000
  C   C1178     1.0  0.27325  0.72332  0.11540  1.0000
  C   C1179     1.0  0.36924  0.54125  0.13210  1.0000
  C   C1180     1.0  0.28964  0.48332  0.28638  1.0000
  H   H1387     1.0  0.28969  0.53011  0.08434  1.0000
  H   H1388     1.0  0.27255  0.66980  0.10693  1.0000
  H   H1389     1.0  0.29168  0.65775  0.11918  1.0000
  H   H1390     1.0  0.26926  0.66603  0.13258  1.0000
  H   H1391     1.0  0.29378  0.69381  0.08797  1.0000
  H   H1392     1.0  0.48087  0.79176  0.22690  1.0000
  H   H1393     1.0  0.30756  0.70302  0.10057  1.0000
  H   H1394     1.0  0.24997  0.58047  0.06910  1.0000
  H   H1395     1.0  0.36500  0.58166  0.16231  1.0000
  H   H1396     1.0  0.30055  0.69958  0.13489  1.0000
  S   S315      1.0  0.35877  0.76594  0.30130  1.0000
  H   H1397     1.0  0.28750  0.72607  0.11433  1.0000
  C   C1181     1.0  0.25028  0.70241  0.11916  1.0000
  H   H1398     1.0  0.44942  0.71543  0.25998  1.0000
  C   C1182     1.0  0.23997  0.73649  0.11514  1.0000
  C   C1183     1.0  0.46062  0.73263  0.15934  1.0000
  H   H1399     1.0  0.30090  0.52215  0.15579  1.0000
  H   H1400     1.0  0.45871  0.68320  0.23835  1.0000
  H   H1401     1.0  0.26552  0.51014  0.08534  1.0000
  C   C1184     1.0  0.37467  0.55595  0.13832  1.0000
  C   C1185     1.0  0.29540  0.96012  0.15312  1.0000
  S   S316      1.0  0.38952  0.95949  0.23345  1.0000
  C   C1186     1.0  0.27236  0.51045  0.03693  1.0000
  Fe  Fe166     1.0  0.35805  0.96079  0.24412  1.0000
  H   H1402     1.0  0.26112  0.85925  0.08066  1.0000
  H   H1403     1.0  0.37561  0.65808  0.98674  1.0000
  H   H1404     1.0  0.46377  0.74192  0.25070  1.0000
  C   C1187     1.0  0.39894  0.58387  0.14022  1.0000
  C   C1188     1.0  0.32897  0.95770  0.14007  1.0000
  C   C1189     1.0  0.29020  0.52921  0.14727  1.0000
  H   H1405     1.0  0.28106  0.95916  0.15194  1.0000
  H   H1406     1.0  0.37806  0.55310  0.15250  1.0000
  H   H1407     1.0  0.45102  0.73104  0.20784  1.0000
  C   C1190     1.0  0.23979  0.55378  0.07298  1.0000
  H   H1408     1.0  0.25324  0.66999  0.02132  1.0000
  C   C1191     1.0  0.27577  0.53679  0.08110  1.0000
  H   H1409     1.0  0.25876  0.50583  0.99372  1.0000
  H   H1410     1.0  0.28335  0.58664  0.13846  1.0000
  S   S317      1.0  0.24759  0.75425  0.06420  1.0000
  C   C1192     1.0  0.37526  0.57408  0.12672  1.0000
  C   C1193     1.0  0.29335  0.57718  0.14736  1.0000
  H   H1411     1.0  0.36051  0.56401  0.08859  1.0000
  C   C1194     1.0  0.47676  0.66067  0.15918  1.0000
  N   N77       1.0  0.38007  0.58968  0.13409  1.0000
  C   C1195     1.0  0.38078  0.60756  0.12012  1.0000
  S   S318      1.0  0.34589  0.48892  0.22484  1.0000
  C   C1196     1.0  0.30753  0.63128  0.98313  1.0000
  H   H1412     1.0  0.24599  0.68878  0.12071  1.0000
  H   H1413     1.0  0.36812  0.60590  0.15669  1.0000
  H   H1414     1.0  0.29012  0.48023  0.10622  1.0000
  N   N78       1.0  0.34146  0.90576  0.19069  1.0000
  C   C1197     1.0  0.35891  0.91443  0.18692  1.0000
  C   C1198     1.0  0.33481  0.90803  0.17229  1.0000
  C   C1199     1.0  0.32633  0.91659  0.20325  1.0000
  C   C1200     1.0  0.34566  0.88573  0.20008  1.0000
  C   C1201     1.0  0.35134  0.88133  0.21819  1.0000
  C   C1202     1.0  0.34448  0.87011  0.19169  1.0000
  C   C1203     1.0  0.35516  0.86256  0.22746  1.0000
  C   C1204     1.0  0.34860  0.85137  0.20102  1.0000
  C   C1205     1.0  0.35390  0.84761  0.21887  1.0000
  H   H1415     1.0  0.37073  0.90669  0.17761  1.0000
  H   H1416     1.0  0.35637  0.92961  0.18001  1.0000
  H   H1417     1.0  0.36432  0.91416  0.20013  1.0000
  H   H1418     1.0  0.33134  0.92326  0.16592  1.0000
  H   H1419     1.0  0.32155  0.90201  0.17407  1.0000
  H   H1420     1.0  0.34593  0.90133  0.16159  1.0000
  H   H1421     1.0  0.33068  0.91714  0.21680  1.0000
  H   H1422     1.0  0.32257  0.93168  0.19648  1.0000
  H   H1423     1.0  0.31309  0.91025  0.20680  1.0000
  H   H1424     1.0  0.35307  0.89237  0.22528  1.0000
  H   H1425     1.0  0.34051  0.87195  0.17790  1.0000
  H   H1426     1.0  0.35935  0.85955  0.24133  1.0000
  H   H1427     1.0  0.34772  0.83964  0.19437  1.0000
  H   H1428     1.0  0.35716  0.83308  0.22604  1.0000
  C   C1206     1.0  0.26422  0.49794  0.02953  1.0000
  C   C1207     1.0  0.47796  0.72374  0.22951  1.0000
  H   H1429     1.0  0.41033  0.57980  0.12834  1.0000
  C   C1208     1.0  0.46565  0.71208  0.13552  1.0000
  H   H1430     1.0  0.46755  0.71041  0.20139  1.0000
  C   C1209     1.0  0.47001  0.69203  0.23642  1.0000
  C   C1210     1.0  0.24596  0.86451  0.08285  1.0000
  C   C1211     1.0  0.33248  0.96286  0.15648  1.0000
  H   H1431     1.0  0.29785  0.48884  0.29413  1.0000
  H   H1432     1.0  0.48117  0.73496  0.98070  1.0000
  H   H1433     1.0  0.44083  0.87144  0.23731  1.0000
  S   S319      1.0  0.32065  0.97432  0.19179  1.0000
  H   H1434     1.0  0.44611  0.85076  0.22662  1.0000
  H   H1435     1.0  0.42873  0.85173  0.26802  1.0000
  H   H1436     1.0  0.44399  0.83108  0.27778  1.0000
  C   C1212     1.0  0.47642  0.73803  0.24066  1.0000
  H   H1437     1.0  0.25053  0.48362  0.00350  1.0000
  H   H1438     1.0  0.23437  0.52800  0.03686  1.0000
  C   C1213     1.0  0.44054  0.84003  0.26429  1.0000
  C   C1214     1.0  0.47962  0.72799  0.16304  1.0000
  S   S320      1.0  0.25149  0.96954  0.12186  1.0000
  H   H1439     1.0  0.23603  0.87104  0.12776  1.0000
  S   S321      1.0  0.37847  0.97015  0.19032  1.0000
  S   S322      1.0  0.45727  0.76099  0.28325  1.0000
  H   H1440     1.0  0.48167  0.68656  0.22538  1.0000
  H   H1441     1.0  0.44875  0.79851  0.29340  1.0000
  H   H1442     1.0  0.48169  0.76551  0.18315  1.0000
  H   H1443     1.0  0.23958  0.96415  0.24107  1.0000
  H   H1444     1.0  0.46951  0.81838  0.30073  1.0000
  H   H1445     1.0  0.47579  0.68919  0.24989  1.0000
  C   C1215     1.0  0.46302  0.86026  0.26301  1.0000
  Fe  Fe167     1.0  0.34786  0.96999  0.20419  1.0000
  H   H1446     1.0  0.48097  0.66086  0.20472  1.0000
  H   H1447     1.0  0.23868  0.83863  0.07826  1.0000
  H   H1448     1.0  0.34677  0.96405  0.15761  1.0000
  H   H1449     1.0  0.33520  0.87670  0.29475  1.0000
  H   H1450     1.0  0.46668  0.85258  0.27697  1.0000
  H   H1451     1.0  0.23603  0.47702  0.03677  1.0000
  C   C1216     1.0  0.48377  0.80214  0.23419  1.0000
  C   C1217     1.0  0.24878  0.73112  0.57124  1.0000
  C   C1218     1.0  0.27306  0.49147  0.36437  1.0000
  C   C1219     1.0  0.33608  0.72636  0.35325  1.0000
  C   C1220     1.0  0.28493  0.84488  0.54537  1.0000
  H   H1452     1.0  0.32734  0.70752  0.31034  1.0000
  H   H1453     1.0  0.30837  0.81923  0.47575  1.0000
  H   H1454     1.0  0.36987  0.82431  0.61458  1.0000
  Fe  Fe168     1.0  0.45839  0.75620  0.60805  1.0000
  S   S323      1.0  0.43730  0.76516  0.58757  1.0000
  H   H1455     1.0  0.24062  0.86606  0.34777  1.0000
  H   H1456     1.0  0.26960  0.80369  0.54639  1.0000
  H   H1457     1.0  0.27909  0.49610  0.39687  1.0000
  Fe  Fe169     1.0  0.25743  0.80624  0.39426  1.0000
  S   S324      1.0  0.28044  0.80998  0.40873  1.0000
  C   C1221     1.0  0.45923  0.75925  0.33848  1.0000
  Fe  Fe170     1.0  0.26208  0.76318  0.40871  1.0000
  S   S325      1.0  0.28577  0.76409  0.42385  1.0000
  H   H1458     1.0  0.30603  0.80008  0.53965  1.0000
  Fe  Fe171     1.0  0.26744  0.79007  0.43349  1.0000
  S   S326      1.0  0.26022  0.79401  0.46428  1.0000
  Fe  Fe172     1.0  0.29650  0.78364  0.39764  1.0000
  S   S327      1.0  0.32782  0.78177  0.38525  1.0000
  S   S328      1.0  0.24293  0.78823  0.41990  1.0000
  S   S329      1.0  0.27433  0.78087  0.38168  1.0000
  Fe  Fe173     1.0  0.31812  0.76210  0.54762  1.0000
  S   S330      1.0  0.32600  0.73176  0.56112  1.0000
  S   S331      1.0  0.32447  0.76949  0.51564  1.0000
  Fe  Fe174     1.0  0.30340  0.77538  0.58531  1.0000
  S   S332      1.0  0.30952  0.74599  0.60188  1.0000
  S   S333      1.0  0.28875  0.79985  0.60065  1.0000
  Fe  Fe175     1.0  0.33746  0.74358  0.58175  1.0000
  S   S334      1.0  0.36365  0.72834  0.59438  1.0000
  Fe  Fe176     1.0  0.29752  0.73655  0.57997  1.0000
  S   S335      1.0  0.28042  0.71248  0.58706  1.0000
  S   S336      1.0  0.33215  0.77371  0.56662  1.0000
  S   S337      1.0  0.28886  0.76617  0.56506  1.0000
  H   H1459     1.0  0.25958  0.72596  0.45613  1.0000
  C   C1222     1.0  0.25767  0.71432  0.58115  1.0000
  H   H1460     1.0  0.35796  0.71781  0.30920  1.0000
  H   H1461     1.0  0.25542  0.74365  0.56784  1.0000
  H   H1462     1.0  0.25568  0.68507  0.59313  1.0000
  C   C1223     1.0  0.33038  0.82878  0.60248  1.0000
  C   C1224     1.0  0.32011  0.81702  0.59702  1.0000
  C   C1225     1.0  0.30198  0.81461  0.60706  1.0000
  H   H1463     1.0  0.34441  0.83056  0.59464  1.0000
  H   H1464     1.0  0.32627  0.80981  0.58508  1.0000
  H   H1465     1.0  0.46739  0.76112  0.52548  1.0000
  C   C1226     1.0  0.41433  0.80115  0.61967  1.0000
  C   C1227     1.0  0.29608  0.96440  0.30951  1.0000
  C   C1228     1.0  0.28590  0.73700  0.36336  1.0000
  H   H1466     1.0  0.29642  0.85251  0.53663  1.0000
  H   H1467     1.0  0.27529  0.51265  0.33194  1.0000
  H   H1468     1.0  0.27110  0.85434  0.54380  1.0000
  H   H1469     1.0  0.28703  0.86619  0.34686  1.0000
  C   C1229     1.0  0.44449  0.75968  0.35401  1.0000
  C   C1230     1.0  0.27329  0.54238  0.32375  1.0000
  C   C1231     1.0  0.27807  0.78648  0.47851  1.0000
  C   C1232     1.0  0.29710  0.78109  0.47053  1.0000
  C   C1233     1.0  0.31115  0.77569  0.48213  1.0000
  C   C1234     1.0  0.30624  0.77533  0.50180  1.0000
  C   C1235     1.0  0.28712  0.78019  0.50988  1.0000
  C   C1236     1.0  0.27310  0.78598  0.49822  1.0000
  H   H1470     1.0  0.30106  0.78143  0.45536  1.0000
  H   H1471     1.0  0.32592  0.77194  0.47580  1.0000
  H   H1472     1.0  0.28319  0.77998  0.52498  1.0000
  H   H1473     1.0  0.25839  0.79017  0.50445  1.0000
  S   S338      1.0  0.24390  0.83086  0.37415  1.0000
  C   C1237     1.0  0.36233  0.77593  0.33477  1.0000
  C   C1238     1.0  0.35530  0.77895  0.35356  1.0000
  C   C1239     1.0  0.33608  0.77844  0.36150  1.0000
  C   C1240     1.0  0.32387  0.77526  0.35044  1.0000
  C   C1241     1.0  0.33095  0.77191  0.33183  1.0000
  H   H1474     1.0  0.37723  0.77599  0.32884  1.0000
  H   H1475     1.0  0.36481  0.78152  0.36200  1.0000
  H   H1476     1.0  0.30906  0.77509  0.35625  1.0000
  C   C1242     1.0  0.26786  0.52671  0.35711  1.0000
  C   C1243     1.0  0.31806  0.72110  0.35421  1.0000
  H   H1477     1.0  0.28792  0.49041  0.35640  1.0000
  C   C1244     1.0  0.41676  0.75490  0.59002  1.0000
  C   C1245     1.0  0.41456  0.73760  0.60193  1.0000
  C   C1246     1.0  0.39838  0.72945  0.60281  1.0000
  C   C1247     1.0  0.38411  0.73871  0.59214  1.0000
  C   C1248     1.0  0.38624  0.75612  0.58038  1.0000
  C   C1249     1.0  0.40258  0.76410  0.57925  1.0000
  H   H1478     1.0  0.42546  0.73034  0.61021  1.0000
  H   H1479     1.0  0.27362  0.52123  0.39426  1.0000
  H   H1480     1.0  0.37541  0.76333  0.57202  1.0000
  H   H1481     1.0  0.40425  0.77746  0.56993  1.0000
  C   C1250     1.0  0.24601  0.85405  0.37606  1.0000
  C   C1251     1.0  0.25020  0.85784  0.39261  1.0000
  C   C1252     1.0  0.25186  0.87638  0.39386  1.0000
  H   H1482     1.0  0.25193  0.84653  0.40458  1.0000
  H   H1483     1.0  0.25132  0.84811  0.48990  1.0000
  H   H1484     1.0  0.27416  0.74035  0.37522  1.0000
  H   H1485     1.0  0.31227  0.83161  0.38132  1.0000
  C   C1253     1.0  0.27029  0.81690  0.55142  1.0000
  C   C1254     1.0  0.35020  0.77209  0.32398  1.0000
  C   C1255     1.0  0.38389  0.82137  0.61850  1.0000
  C   C1256     1.0  0.24676  0.50989  0.38172  1.0000
  S   S339      1.0  0.26368  0.48061  0.31953  1.0000
  H   H1486     1.0  0.30802  0.69429  0.38352  1.0000
  H   H1487     1.0  0.29035  0.75060  0.35556  1.0000
  H   H1488     1.0  0.31488  0.71101  0.50803  1.0000
  C   C1257     1.0  0.32070  0.84361  0.33309  1.0000
  C   C1258     1.0  0.26370  0.54506  0.36224  1.0000
  C   C1259     1.0  0.27884  0.50935  0.38610  1.0000
  H   H1489     1.0  0.25615  0.82612  0.55137  1.0000
  H   H1490     1.0  0.25519  0.84482  0.52295  1.0000
  H   H1491     1.0  0.30604  0.87011  0.35751  1.0000
  N   N79       1.0  0.48238  0.74349  0.54702  1.0000
  C   C1260     1.0  0.35030  0.72488  0.33725  1.0000
  H   H1492     1.0  0.24478  0.69654  0.42147  1.0000
  H   H1493     1.0  0.31108  0.74555  0.38071  1.0000
  S   S340      1.0  0.47701  0.72782  0.61406  1.0000
  H   H1494     1.0  0.45616  0.73541  0.56371  1.0000
  H   H1495     1.0  0.43382  0.80990  0.63271  1.0000
  H   H1496     1.0  0.27869  0.74706  0.49787  1.0000
  C   C1261     1.0  0.23909  0.70461  0.40911  1.0000
  H   H1497     1.0  0.27538  0.68580  0.53441  1.0000
  H   H1498     1.0  0.25918  0.54696  0.37689  1.0000
  C   C1262     1.0  0.34710  0.71821  0.32183  1.0000
  C   C1263     1.0  0.32978  0.71259  0.32246  1.0000
  H   H1499     1.0  0.31305  0.81503  0.50823  1.0000
  C   C1264     1.0  0.24221  0.72338  0.40243  1.0000
  C   C1265     1.0  0.29404  0.82438  0.62232  1.0000
  H   H1500     1.0  0.39245  0.79540  0.60698  1.0000
  C   C1266     1.0  0.32261  0.83828  0.61795  1.0000
  H   H1501     1.0  0.43028  0.75857  0.35242  1.0000
  Fe  Fe177     1.0  0.24004  0.94290  0.36502  1.0000
  H   H1502     1.0  0.27001  0.57289  0.31875  1.0000
  H   H1503     1.0  0.30212  0.70977  0.33804  1.0000
  H   H1504     1.0  0.30261  0.81359  0.35206  1.0000
  H   H1505     1.0  0.26680  0.75249  0.46827  1.0000
  H   H1506     1.0  0.27158  0.73867  0.53201  1.0000
  H   H1507     1.0  0.25503  0.87919  0.40678  1.0000
  H   H1508     1.0  0.32931  0.81951  0.36469  1.0000
  C   C1267     1.0  0.28435  0.82929  0.51924  1.0000
  C   C1268     1.0  0.29695  0.82503  0.48618  1.0000
  C   C1269     1.0  0.29698  0.85968  0.35704  1.0000
  C   C1270     1.0  0.27246  0.52586  0.33735  1.0000
  H   H1509     1.0  0.37865  0.84639  0.63037  1.0000
  H   H1510     1.0  0.33961  0.78592  0.61382  1.0000
  S   S341      1.0  0.25570  0.73309  0.41445  1.0000
  H   H1511     1.0  0.34712  0.76257  0.60836  1.0000
  H   H1512     1.0  0.28798  0.85752  0.37137  1.0000
  C   C1271     1.0  0.26740  0.70496  0.47985  1.0000
  H   H1513     1.0  0.28646  0.84310  0.56057  1.0000
  C   C1272     1.0  0.46865  0.72997  0.55336  1.0000
  C   C1273     1.0  0.30423  0.81426  0.54386  1.0000
  C   C1274     1.0  0.27961  0.83400  0.48080  1.0000
  N   N80       1.0  0.30220  0.72356  0.37034  1.0000
  C   C1275     1.0  0.29596  0.70507  0.37886  1.0000
  C   C1276     1.0  0.30725  0.73113  0.38575  1.0000
  H   H1514     1.0  0.25922  0.70689  0.54007  1.0000
  H   H1515     1.0  0.46284  0.72760  0.54124  1.0000
  H   H1516     1.0  0.28445  0.70639  0.39147  1.0000
  H   H1517     1.0  0.37714  0.74876  0.63168  1.0000
  H   H1518     1.0  0.29513  0.73256  0.39777  1.0000
  H   H1519     1.0  0.31930  0.72157  0.39182  1.0000
  H   H1520     1.0  0.28976  0.95972  0.32405  1.0000
  H   H1521     1.0  0.30677  0.68850  0.51459  1.0000
  C   C1277     1.0  0.48174  0.76278  0.35793  1.0000
  N   N81       1.0  0.30858  0.84152  0.35213  1.0000
  C   C1278     1.0  0.26711  0.83902  0.51311  1.0000
  C   C1279     1.0  0.29520  0.82829  0.35322  1.0000
  C   C1280     1.0  0.32083  0.83365  0.36676  1.0000
  C   C1281     1.0  0.41979  0.81363  0.62892  1.0000
  H   H1522     1.0  0.26359  0.48999  0.35479  1.0000
  S   S342      1.0  0.25444  0.96804  0.36333  1.0000
  H   H1523     1.0  0.29379  0.51037  0.37905  1.0000
  N   N82       1.0  0.28606  0.82631  0.53955  1.0000
  H   H1524     1.0  0.27758  0.83513  0.46628  1.0000
  Fe  Fe178     1.0  0.47699  0.77456  0.63232  1.0000
  C   C1282     1.0  0.32213  0.86152  0.32122  1.0000
  H   H1525     1.0  0.28999  0.69924  0.36885  1.0000
  H   H1526     1.0  0.28522  0.82718  0.36701  1.0000
  H   H1527     1.0  0.42413  0.78846  0.61639  1.0000
  C   C1283     1.0  0.24932  0.89133  0.37863  1.0000
  C   C1284     1.0  0.24883  0.69815  0.58552  1.0000
  H   H1528     1.0  0.29635  0.73856  0.52104  1.0000
  C   C1285     1.0  0.26462  0.72332  0.46959  1.0000
  C   C1286     1.0  0.24361  0.86896  0.36071  1.0000
  C   C1287     1.0  0.43204  0.84952  0.63105  1.0000
  H   H1529     1.0  0.27954  0.73122  0.35361  1.0000
  H   H1530     1.0  0.26454  0.69334  0.47425  1.0000
  H   H1531     1.0  0.31420  0.87470  0.32528  1.0000
  H   H1532     1.0  0.23730  0.51048  0.37136  1.0000
  H   H1533     1.0  0.45871  0.76672  0.54895  1.0000
  C   C1288     1.0  0.47755  0.76082  0.34034  1.0000
  S   S343      1.0  0.25188  0.91425  0.38103  1.0000
  C   C1289     1.0  0.26867  0.73824  0.47646  1.0000
  C   C1290     1.0  0.26478  0.84115  0.49420  1.0000
  C   C1291     1.0  0.30436  0.83610  0.62784  1.0000
  H   H1534     1.0  0.24119  0.52240  0.38898  1.0000
  H   H1535     1.0  0.39684  0.71594  0.61190  1.0000
  C   C1292     1.0  0.46637  0.76314  0.37354  1.0000
  H   H1536     1.0  0.27684  0.68688  0.50403  1.0000
  H   H1537     1.0  0.27202  0.81293  0.56663  1.0000
  C   C1293     1.0  0.39647  0.80505  0.61435  1.0000
  H   H1538     1.0  0.26112  0.57534  0.35284  1.0000
  H   H1539     1.0  0.43647  0.76199  0.38352  1.0000
  H   H1540     1.0  0.31229  0.69928  0.53236  1.0000
  H   H1541     1.0  0.27967  0.69767  0.55142  1.0000
  H   H1542     1.0  0.30482  0.81175  0.55933  1.0000
  H   H1543     1.0  0.31678  0.82102  0.53651  1.0000
  H   H1544     1.0  0.29040  0.72631  0.54448  1.0000
  H   H1545     1.0  0.33939  0.73231  0.36433  1.0000
  H   H1546     1.0  0.32154  0.76888  0.32352  1.0000
  C   C1294     1.0  0.29940  0.82267  0.50507  1.0000
  C   C1295     1.0  0.26469  0.56146  0.34854  1.0000
  N   N83       1.0  0.28591  0.71239  0.52261  1.0000
  C   C1296     1.0  0.28599  0.72979  0.53024  1.0000
  C   C1297     1.0  0.27451  0.70020  0.53762  1.0000
  C   C1298     1.0  0.30582  0.70231  0.51924  1.0000
  C   C1299     1.0  0.27820  0.71642  0.50465  1.0000
  C   C1300     1.0  0.27544  0.73492  0.49365  1.0000
  C   C1301     1.0  0.27427  0.70147  0.49702  1.0000
  C   C1302     1.0  0.31545  0.71395  0.33839  1.0000
  H   H1547     1.0  0.35237  0.81623  0.30338  1.0000
  H   H1548     1.0  0.36448  0.77625  0.61007  1.0000
  H   H1549     1.0  0.27676  0.54137  0.30877  1.0000
  C   C1303     1.0  0.35007  0.77276  0.61639  1.0000
  S   S344      1.0  0.33653  0.85217  0.62467  1.0000
  S   S345      1.0  0.48236  0.77306  0.60115  1.0000
  N   N84       1.0  0.26675  0.50957  0.37195  1.0000
  H   H1550     1.0  0.33181  0.81331  0.33432  1.0000
  C   C1304     1.0  0.24548  0.88751  0.36191  1.0000
  H   H1551     1.0  0.33110  0.84316  0.36645  1.0000
  C   C1305     1.0  0.26950  0.56012  0.32933  1.0000
  H   H1552     1.0  0.27252  0.47884  0.37585  1.0000
  C   C1306     1.0  0.44804  0.76162  0.37149  1.0000
  C   C1307     1.0  0.38921  0.83404  0.62769  1.0000
  H   H1553     1.0  0.43046  0.85560  0.61608  1.0000
  C   C1308     1.0  0.33197  0.82737  0.32608  1.0000
  H   H1554     1.0  0.24494  0.49702  0.39269  1.0000
  H   H1555     1.0  0.45640  0.75777  0.32486  1.0000
  S   S346      1.0  0.23472  0.95024  0.33486  1.0000
  H   H1556     1.0  0.24439  0.89876  0.34980  1.0000
  H   H1557     1.0  0.46806  0.76467  0.38746  1.0000
  H   H1558     1.0  0.47526  0.71611  0.56086  1.0000
  H   H1559     1.0  0.36365  0.72972  0.33642  1.0000
  H   H1560     1.0  0.23682  0.74825  0.38135  1.0000
  C   C1309     1.0  0.40753  0.83064  0.63297  1.0000
  H   H1561     1.0  0.47697  0.74990  0.57528  1.0000
  H   H1562     1.0  0.28635  0.83315  0.34183  1.0000
  C   C1310     1.0  0.47181  0.76201  0.53893  1.0000
  H   H1563     1.0  0.32309  0.94597  0.31164  1.0000
  H   H1564     1.0  0.27992  0.82274  0.63002  1.0000
  H   H1565     1.0  0.48034  0.77363  0.53595  1.0000
  C   C1311     1.0  0.34387  0.82890  0.30837  1.0000
  H   H1566     1.0  0.44408  0.83737  0.63077  1.0000
  H   H1567     1.0  0.39691  0.86964  0.63027  1.0000
  H   H1568     1.0  0.35877  0.73591  0.63235  1.0000
  C   C1312     1.0  0.33415  0.86290  0.30353  1.0000
  C   C1313     1.0  0.31495  0.95668  0.30249  1.0000
  C   C1314     1.0  0.23465  0.73374  0.38655  1.0000
  C   C1315     1.0  0.44737  0.58981  0.72986  1.0000
  H   H1569     1.0  0.27602  0.74241  0.85804  1.0000
  Fe  Fe179     1.0  0.45957  0.74181  0.87742  1.0000
  H   H1570     1.0  0.40168  0.62707  0.71131  1.0000
  S   S347      1.0  0.42740  0.74909  0.88448  1.0000
  C   C1316     1.0  0.46145  0.68408  0.69999  1.0000
  H   H1571     1.0  0.43486  0.64578  0.70940  1.0000
  H   H1572     1.0  0.46376  0.83356  0.66356  1.0000
  Fe  Fe180     1.0  0.46658  0.60377  0.77654  1.0000
  S   S348      1.0  0.44218  0.58879  0.79292  1.0000
  H   H1573     1.0  0.28640  0.93661  0.71027  1.0000
  S   S349      1.0  0.46309  0.63342  0.76003  1.0000
  H   H1574     1.0  0.42984  0.82418  0.74085  1.0000
  H   H1575     1.0  0.32588  0.79886  0.64317  1.0000
  H   H1576     1.0  0.37274  0.70882  0.93653  1.0000
  C   C1317     1.0  0.45917  0.79880  0.70901  1.0000
  S   S350      1.0  0.44400  0.89804  0.69897  1.0000
  C   C1318     1.0  0.37308  0.79189  0.66224  1.0000
  H   H1577     1.0  0.36277  0.74071  0.65420  1.0000
  C   C1319     1.0  0.36985  0.77775  0.65346  1.0000
  C   C1320     1.0  0.24915  0.94173  0.70852  1.0000
  Fe  Fe181     1.0  0.32414  0.54331  0.79249  1.0000
  S   S351      1.0  0.33034  0.55895  0.76255  1.0000
  S   S352      1.0  0.33063  0.51116  0.79889  1.0000
  Fe  Fe182     1.0  0.30831  0.57969  0.80861  1.0000
  S   S353      1.0  0.31252  0.59789  0.78000  1.0000
  S   S354      1.0  0.29473  0.59142  0.83552  1.0000
  Fe  Fe183     1.0  0.30124  0.57595  0.76985  1.0000
  S   S355      1.0  0.28041  0.58548  0.74925  1.0000
  Fe  Fe184     1.0  0.34124  0.57934  0.77545  1.0000
  S   S356      1.0  0.36544  0.59573  0.76147  1.0000
  S   S357      1.0  0.29450  0.55930  0.79899  1.0000
  S   S358      1.0  0.33761  0.56225  0.80488  1.0000
  Fe  Fe185     1.0  0.34755  0.68572  0.89467  1.0000
  S   S359      1.0  0.34174  0.65662  0.89469  1.0000
  S   S360      1.0  0.37967  0.68366  0.89036  1.0000
  Fe  Fe186     1.0  0.30460  0.70220  0.89962  1.0000
  S   S361      1.0  0.29639  0.67424  0.89945  1.0000
  S   S362      1.0  0.28216  0.72845  0.90353  1.0000
  Fe  Fe187     1.0  0.31792  0.66250  0.91875  1.0000
  S   S363      1.0  0.31083  0.64037  0.94441  1.0000
  Fe  Fe188     1.0  0.32109  0.67141  0.87542  1.0000
  S   S364      1.0  0.32296  0.66447  0.84621  1.0000
  S   S365      1.0  0.32502  0.69058  0.92026  1.0000
  S   S366      1.0  0.32795  0.70034  0.87409  1.0000
  Fe  Fe189     1.0  0.34752  0.87682  0.67901  1.0000
  C   C1321     1.0  0.26075  0.94515  0.67470  1.0000
  S   S367      1.0  0.37338  0.86219  0.69266  1.0000
  Fe  Fe190     1.0  0.30419  0.87804  0.68744  1.0000
  S   S368      1.0  0.30086  0.88912  0.65715  1.0000
  S   S369      1.0  0.28083  0.87266  0.71270  1.0000
  Fe  Fe191     1.0  0.32744  0.86852  0.64929  1.0000
  H   H1578     1.0  0.44439  0.70712  0.81908  1.0000
  Fe  Fe192     1.0  0.32076  0.90857  0.65834  1.0000
  C   C1322     1.0  0.27386  0.67961  0.96368  1.0000
  S   S370      1.0  0.32903  0.85543  0.67962  1.0000
  S   S371      1.0  0.32272  0.89853  0.68923  1.0000
  H   H1579     1.0  0.45102  0.69320  0.70848  1.0000
  C   C1323     1.0  0.33899  0.79611  0.64879  1.0000
  C   C1324     1.0  0.38641  0.68770  0.96582  1.0000
  H   H1580     1.0  0.40478  0.68849  0.85311  1.0000
  C   C1325     1.0  0.23966  0.55170  0.76572  1.0000
  H   H1581     1.0  0.32696  0.75629  0.66005  1.0000
  Fe  Fe193     1.0  0.48222  0.85896  0.74922  1.0000
  H   H1582     1.0  0.38632  0.85856  0.65345  1.0000
  H   H1583     1.0  0.43096  0.55046  0.75626  1.0000
  C   C1326     1.0  0.24391  0.88032  0.73040  1.0000
  C   C1327     1.0  0.25814  0.72883  0.90192  1.0000
  H   H1584     1.0  0.26144  0.69911  0.90081  1.0000
  C   C1328     1.0  0.26133  0.57365  0.74976  1.0000
  C   C1329     1.0  0.24279  0.61415  0.82636  1.0000
  C   C1330     1.0  0.25012  0.57985  0.73543  1.0000
  H   H1585     1.0  0.25064  0.94510  0.72228  1.0000
  H   H1586     1.0  0.25396  0.59097  0.72379  1.0000
  C   C1331     1.0  0.31261  0.49828  0.79851  1.0000
  C   C1332     1.0  0.42993  0.64164  0.80698  1.0000
  C   C1333     1.0  0.27939  0.49653  0.79959  1.0000
  C   C1334     1.0  0.29363  0.50717  0.79897  1.0000
  H   H1587     1.0  0.46210  0.65991  0.72260  1.0000
  H   H1588     1.0  0.26473  0.50355  0.80011  1.0000
  H   H1589     1.0  0.28982  0.52220  0.79905  1.0000
  C   C1335     1.0  0.30159  0.61237  0.83821  1.0000
  C   C1336     1.0  0.29716  0.61814  0.85604  1.0000
  C   C1337     1.0  0.30344  0.63427  0.85871  1.0000
  C   C1338     1.0  0.31391  0.64483  0.84344  1.0000
  C   C1339     1.0  0.31784  0.63937  0.82551  1.0000
  C   C1340     1.0  0.31188  0.62308  0.82294  1.0000
  H   H1590     1.0  0.28924  0.60986  0.86792  1.0000
  H   H1591     1.0  0.30037  0.63838  0.87259  1.0000
  H   H1592     1.0  0.32589  0.64753  0.81364  1.0000
  H   H1593     1.0  0.31539  0.61878  0.80916  1.0000
  H   H1594     1.0  0.24948  0.92612  0.71060  1.0000
  H   H1595     1.0  0.29499  0.96600  0.69459  1.0000
  H   H1596     1.0  0.45082  0.65545  0.81238  1.0000
  H   H1597     1.0  0.27545  0.66681  0.95767  1.0000
  C   C1341     1.0  0.42525  0.88739  0.69602  1.0000
  C   C1342     1.0  0.42382  0.86846  0.70390  1.0000
  C   C1343     1.0  0.40786  0.86098  0.70263  1.0000
  C   C1344     1.0  0.39340  0.87219  0.69317  1.0000
  C   C1345     1.0  0.39515  0.89086  0.68464  1.0000
  C   C1346     1.0  0.41099  0.89845  0.68618  1.0000
  H   H1598     1.0  0.43485  0.85968  0.71120  1.0000
  H   H1599     1.0  0.40660  0.84650  0.70918  1.0000
  H   H1600     1.0  0.38413  0.89960  0.67727  1.0000
  H   H1601     1.0  0.41204  0.91307  0.67997  1.0000
  C   C1347     1.0  0.41289  0.69669  0.84060  1.0000
  C   C1348     1.0  0.43567  0.65547  0.81426  1.0000
  H   H1602     1.0  0.38129  0.76587  0.65192  1.0000
  H   H1603     1.0  0.25795  0.47911  0.86079  1.0000
  C   C1349     1.0  0.42116  0.59068  0.78366  1.0000
  C   C1350     1.0  0.41519  0.60638  0.77045  1.0000
  C   C1351     1.0  0.39793  0.60784  0.76398  1.0000
  C   C1352     1.0  0.38657  0.59361  0.77060  1.0000
  C   C1353     1.0  0.39254  0.57790  0.78383  1.0000
  C   C1354     1.0  0.40977  0.57649  0.79035  1.0000
  H   H1604     1.0  0.42379  0.61744  0.76536  1.0000
  H   H1605     1.0  0.39338  0.62000  0.75373  1.0000
  H   H1606     1.0  0.38404  0.56672  0.78877  1.0000
  H   H1607     1.0  0.41444  0.56421  0.80043  1.0000
  H   H1608     1.0  0.41507  0.63874  0.69039  1.0000
  H   H1609     1.0  0.33477  0.94515  0.66780  1.0000
  C   C1355     1.0  0.24964  0.58354  0.81689  1.0000
  C   C1356     1.0  0.25450  0.51804  0.73023  1.0000
  H   H1610     1.0  0.40412  0.83004  0.67052  1.0000
  C   C1357     1.0  0.41410  0.73084  0.88654  1.0000
  C   C1358     1.0  0.39410  0.73508  0.88910  1.0000
  C   C1359     1.0  0.38323  0.72078  0.89044  1.0000
  C   C1360     1.0  0.39236  0.70215  0.88934  1.0000
  C   C1361     1.0  0.41231  0.69785  0.88716  1.0000
  C   C1362     1.0  0.42316  0.71214  0.88563  1.0000
  H   H1611     1.0  0.38704  0.74954  0.88983  1.0000
  H   H1612     1.0  0.36786  0.72425  0.89212  1.0000
  H   H1613     1.0  0.41947  0.68342  0.88647  1.0000
  H   H1614     1.0  0.43854  0.70872  0.88376  1.0000
  C   C1363     1.0  0.24497  0.72918  0.83583  1.0000
  H   H1615     1.0  0.24988  0.76876  0.86189  1.0000
  C   C1364     1.0  0.25625  0.55926  0.76475  1.0000
  C   C1365     1.0  0.29668  0.71831  0.83285  1.0000
  Fe  Fe194     1.0  0.46922  0.88180  0.71270  1.0000
  H   H1616     1.0  0.39126  0.67757  0.83211  1.0000
  H   H1617     1.0  0.40280  0.70482  0.83110  1.0000
  C   C1366     1.0  0.48090  0.65326  0.69707  1.0000
  C   C1367     1.0  0.31429  0.95905  0.64977  1.0000
  C   C1368     1.0  0.34230  0.81004  0.65772  1.0000
  H   H1618     1.0  0.28829  0.68715  0.82673  1.0000
  C   C1369     1.0  0.24514  0.74594  0.90188  1.0000
  H   H1619     1.0  0.44871  0.62780  0.72359  1.0000
  H   H1620     1.0  0.27454  0.72674  0.94972  1.0000
  H   H1621     1.0  0.26229  0.57999  0.82414  1.0000
  Fe  Fe195     1.0  0.47231  0.73291  0.64425  1.0000
  H   H1622     1.0  0.45100  0.68777  0.80623  1.0000
  C   C1370     1.0  0.44301  0.81016  0.71712  1.0000
  C   C1371     1.0  0.35248  0.77933  0.64671  1.0000
  H   H1623     1.0  0.43672  0.86030  0.63710  1.0000
  C   C1372     1.0  0.38022  0.60249  0.84410  1.0000
  C   C1373     1.0  0.40001  0.59738  0.83733  1.0000
  C   C1374     1.0  0.37496  0.61659  0.85601  1.0000
  C   C1375     1.0  0.41365  0.60491  0.84310  1.0000
  C   C1376     1.0  0.38874  0.62414  0.86160  1.0000
  C   C1377     1.0  0.40804  0.61818  0.85530  1.0000
  H   H1624     1.0  0.40526  0.58776  0.82725  1.0000
  H   H1625     1.0  0.36028  0.62218  0.86108  1.0000
  H   H1626     1.0  0.42867  0.60070  0.83766  1.0000
  H   H1627     1.0  0.38438  0.63484  0.87074  1.0000
  H   H1628     1.0  0.41866  0.62417  0.85954  1.0000
  N   N85       1.0  0.41467  0.89275  0.75582  1.0000
  C   C1378     1.0  0.40761  0.89081  0.77657  1.0000
  C   C1379     1.0  0.42914  0.87586  0.75203  1.0000
  C   C1380     1.0  0.42445  0.90958  0.75008  1.0000
  C   C1381     1.0  0.39862  0.89407  0.74572  1.0000
  C   C1382     1.0  0.39305  0.91005  0.73202  1.0000
  C   C1383     1.0  0.38792  0.87903  0.74958  1.0000
  C   C1384     1.0  0.37761  0.91089  0.72302  1.0000
  C   C1385     1.0  0.37270  0.87991  0.74028  1.0000
  C   C1386     1.0  0.36751  0.89584  0.72708  1.0000
  H   H1629     1.0  0.40169  0.87750  0.78238  1.0000
  H   H1630     1.0  0.41926  0.89033  0.78455  1.0000
  H   H1631     1.0  0.39621  0.90294  0.77998  1.0000
  H   H1632     1.0  0.42353  0.86233  0.75700  1.0000
  H   H1633     1.0  0.44146  0.87454  0.75933  1.0000
  H   H1634     1.0  0.43478  0.87680  0.73659  1.0000
  H   H1635     1.0  0.41459  0.92284  0.75303  1.0000
  H   H1636     1.0  0.43648  0.90813  0.75785  1.0000
  H   H1637     1.0  0.43080  0.91145  0.73469  1.0000
  H   H1638     1.0  0.40067  0.92190  0.72758  1.0000
  H   H1639     1.0  0.39143  0.86633  0.75963  1.0000
  H   H1640     1.0  0.37392  0.92298  0.71225  1.0000
  H   H1641     1.0  0.36511  0.86802  0.74292  1.0000
  H   H1642     1.0  0.35607  0.89620  0.71948  1.0000
  H   H1643     1.0  0.46959  0.78982  0.82827  1.0000
  H   H1644     1.0  0.29357  0.53053  0.73999  1.0000
  C   C1387     1.0  0.28261  0.93531  0.69665  1.0000
  H   H1645     1.0  0.23923  0.94502  0.76737  1.0000
  C   C1388     1.0  0.40008  0.67743  0.93609  1.0000
  H   H1646     1.0  0.27149  0.95064  0.66266  1.0000
  H   H1647     1.0  0.26734  0.54330  0.72176  1.0000
  H   H1648     1.0  0.40634  0.63039  0.80270  1.0000
  H   H1649     1.0  0.28999  0.68746  0.85940  1.0000
  H   H1650     1.0  0.30103  0.72589  0.84257  1.0000
  C   C1389     1.0  0.28432  0.50351  0.75052  1.0000
  C   C1390     1.0  0.47455  0.79702  0.73647  1.0000
  H   H1651     1.0  0.42864  0.82153  0.66115  1.0000
  H   H1652     1.0  0.27981  0.48063  0.84395  1.0000
  H   H1653     1.0  0.23749  0.57828  0.82716  1.0000
  C   C1391     1.0  0.27577  0.69881  0.82825  1.0000
  H   H1654     1.0  0.47782  0.76934  0.76650  1.0000
  H   H1655     1.0  0.37093  0.65951  0.92790  1.0000
  C   C1392     1.0  0.32933  0.76027  0.64431  1.0000
  H   H1656     1.0  0.27424  0.60902  0.80263  1.0000
  H   H1657     1.0  0.38201  0.65360  0.81896  1.0000
  C   C1393     1.0  0.46768  0.66521  0.70801  1.0000
  H   H1658     1.0  0.43525  0.66533  0.85611  1.0000
  C   C1394     1.0  0.27905  0.70047  0.85981  1.0000
  H   H1659     1.0  0.35398  0.69655  0.95063  1.0000
  C   C1395     1.0  0.35929  0.80796  0.66445  1.0000
  S   S372      1.0  0.47394  0.73439  0.84897  1.0000
  S   S373      1.0  0.47876  0.76266  0.87677  1.0000
  H   H1660     1.0  0.45981  0.79533  0.69510  1.0000
  H   H1661     1.0  0.36187  0.81903  0.67105  1.0000
  H   H1662     1.0  0.42902  0.70349  0.80409  1.0000
  H   H1663     1.0  0.33176  0.82277  0.65900  1.0000
  H   H1664     1.0  0.30854  0.70617  0.83062  1.0000
  C   C1396     1.0  0.43130  0.56357  0.74615  1.0000
  H   H1665     1.0  0.23567  0.49933  0.71242  1.0000
  C   C1397     1.0  0.43159  0.59866  0.72075  1.0000
  C   C1398     1.0  0.41571  0.58899  0.72474  1.0000
  H   H1666     1.0  0.25917  0.89472  0.68342  1.0000
  C   C1399     1.0  0.41570  0.57169  0.73723  1.0000
  S   S374      1.0  0.47303  0.85087  0.72485  1.0000
  S   S375      1.0  0.48411  0.66667  0.78160  1.0000
  H   H1667     1.0  0.28170  0.92005  0.69751  1.0000
  H   H1668     1.0  0.40318  0.56489  0.74055  1.0000
  C   C1400     1.0  0.27488  0.69695  0.95166  1.0000
  C   C1401     1.0  0.44230  0.81503  0.73476  1.0000
  H   H1669     1.0  0.27708  0.69765  0.93641  1.0000
  H   H1670     1.0  0.45996  0.59628  0.72750  1.0000
  C   C1402     1.0  0.44712  0.57260  0.74246  1.0000
  H   H1671     1.0  0.23560  0.54083  0.77753  1.0000
  C   C1403     1.0  0.26243  0.72806  0.84223  1.0000
  N   N86       1.0  0.34876  0.76494  0.63688  1.0000
  H   H1672     1.0  0.25618  0.61134  0.83241  1.0000
  C   C1404     1.0  0.47480  0.79240  0.71838  1.0000
  C   C1405     1.0  0.46889  0.69141  0.68123  1.0000
  H   H1673     1.0  0.29612  0.72800  0.81900  1.0000
  H   H1674     1.0  0.26483  0.55424  0.77579  1.0000
  C   C1406     1.0  0.25513  0.49940  0.74091  1.0000
  C   C1407     1.0  0.39702  0.65422  0.81757  1.0000
  H   H1675     1.0  0.24306  0.52447  0.72241  1.0000
  C   C1408     1.0  0.47792  0.79835  0.81699  1.0000
  C   C1409     1.0  0.43485  0.63152  0.71848  1.0000
  H   H1676     1.0  0.40597  0.69088  0.93087  1.0000
  C   C1410     1.0  0.43868  0.69614  0.81431  1.0000
  C   C1411     1.0  0.36794  0.69475  0.94090  1.0000
  H   H1677     1.0  0.23468  0.94840  0.70561  1.0000
  C   C1412     1.0  0.25655  0.88273  0.71312  1.0000
  C   C1413     1.0  0.25192  0.71252  0.90003  1.0000
  C   C1414     1.0  0.39998  0.86160  0.64430  1.0000
  H   H1678     1.0  0.37664  0.60422  0.80831  1.0000
  H   H1679     1.0  0.24975  0.75863  0.90349  1.0000
  N   N87       1.0  0.26450  0.94798  0.69306  1.0000
  S   S376      1.0  0.46994  0.80220  0.64396  1.0000
  H   H1680     1.0  0.43113  0.81541  0.70956  1.0000
  C   C1415     1.0  0.40259  0.66800  0.82511  1.0000
  H   H1681     1.0  0.25292  0.57517  0.80511  1.0000
  H   H1682     1.0  0.35738  0.62029  0.81894  1.0000
  C   C1416     1.0  0.24958  0.89304  0.69687  1.0000
  S   S377      1.0  0.46780  0.84634  0.77844  1.0000
  C   C1417     1.0  0.36305  0.60497  0.81863  1.0000
  N   N88       1.0  0.24005  0.48828  0.74138  1.0000
  N   N89       1.0  0.42866  0.68403  0.83056  1.0000
  C   C1418     1.0  0.41065  0.64115  0.80843  1.0000
  C   C1419     1.0  0.36005  0.62737  0.96713  1.0000
  H   H1683     1.0  0.24133  0.59286  0.77761  1.0000
  H   H1684     1.0  0.41118  0.66655  0.94240  1.0000
  H   H1685     1.0  0.45683  0.81330  0.75769  1.0000
  C   C1420     1.0  0.41429  0.62477  0.69990  1.0000
  N   N90       1.0  0.24506  0.60422  0.80996  1.0000
  H   H1686     1.0  0.41826  0.70746  0.84606  1.0000
  H   H1687     1.0  0.38649  0.79052  0.66709  1.0000
  H   H1688     1.0  0.45909  0.56641  0.74972  1.0000
  N   N91       1.0  0.36590  0.59451  0.83773  1.0000
  H   H1689     1.0  0.38427  0.57146  0.82483  1.0000
  H   H1690     1.0  0.44672  0.68593  0.85004  1.0000
  C   C1421     1.0  0.36963  0.65316  0.94274  1.0000
  H   H1691     1.0  0.25805  0.62529  0.78890  1.0000
  H   H1692     1.0  0.27234  0.47845  0.75961  1.0000
  H   H1693     1.0  0.45368  0.81927  0.81003  1.0000
  H   H1694     1.0  0.39797  0.67264  0.92329  1.0000
  H   H1695     1.0  0.28270  0.70872  0.86941  1.0000
  H   H1696     1.0  0.24647  0.95250  0.67180  1.0000
  H   H1697     1.0  0.41158  0.61502  0.69120  1.0000
  H   H1698     1.0  0.33699  0.58883  0.84649  1.0000
  C   C1422     1.0  0.44200  0.67513  0.84401  1.0000
  H   H1699     1.0  0.36088  0.56736  0.83386  1.0000
  C   C1423     1.0  0.42218  0.66915  0.82352  1.0000
  H   H1700     1.0  0.45529  0.66692  0.83716  1.0000
  C   C1424     1.0  0.41739  0.83438  0.66154  1.0000
  H   H1701     1.0  0.44663  0.60451  0.68363  1.0000
  C   C1425     1.0  0.37231  0.57399  0.83666  1.0000
  H   H1702     1.0  0.33994  0.61107  0.85027  1.0000
  H   H1703     1.0  0.34875  0.58978  0.86558  1.0000
  H   H1704     1.0  0.37681  0.56596  0.85014  1.0000
  H   H1705     1.0  0.44049  0.63120  0.80016  1.0000
  C   C1426     1.0  0.27060  0.49239  0.75101  1.0000
  H   H1706     1.0  0.26325  0.69157  0.83432  1.0000
  C   C1427     1.0  0.26834  0.52898  0.72977  1.0000
  H   H1707     1.0  0.29462  0.93833  0.68490  1.0000
  C   C1428     1.0  0.34719  0.59612  0.85065  1.0000
  H   H1708     1.0  0.35284  0.59916  0.81279  1.0000
  S   S378      1.0  0.45163  0.75994  0.63843  1.0000
  S   S379      1.0  0.47596  0.89034  0.73815  1.0000
  H   H1709     1.0  0.46212  0.61087  0.69656  1.0000
  H   H1710     1.0  0.42343  0.63293  0.73109  1.0000
  H   H1711     1.0  0.40285  0.59464  0.71887  1.0000
  H   H1712     1.0  0.29585  0.49800  0.75854  1.0000
  C   C1429     1.0  0.44807  0.61530  0.69182  1.0000
  N   N92       1.0  0.43203  0.61721  0.70794  1.0000
  H   H1713     1.0  0.27427  0.70662  0.81372  1.0000
  C   C1430     1.0  0.47708  0.82475  0.66637  1.0000
  C   C1431     1.0  0.45780  0.80858  0.74435  1.0000
  H   H1714     1.0  0.48258  0.70096  0.74639  1.0000
  N   N93       1.0  0.27815  0.71171  0.84064  1.0000
  H   H1715     1.0  0.42225  0.84398  0.66894  1.0000
  C   C1432     1.0  0.26152  0.61028  0.79590  1.0000
  C   C1433     1.0  0.32720  0.95861  0.66169  1.0000
  H   H1716     1.0  0.24917  0.87223  0.74299  1.0000
  H   H1717     1.0  0.26516  0.69589  0.86648  1.0000
  C   C1434     1.0  0.47962  0.82615  0.79192  1.0000
  H   H1718     1.0  0.26156  0.92983  0.67421  1.0000
  H   H1719     1.0  0.26627  0.60145  0.78449  1.0000
  S   S380      1.0  0.34728  0.88884  0.64814  1.0000
  H   H1720     1.0  0.48321  0.67785  0.74111  1.0000
  H   H1721     1.0  0.47512  0.79129  0.77516  1.0000
  H   H1722     1.0  0.44894  0.62901  0.68188  1.0000
  H   H1723     1.0  0.36532  0.69111  0.92774  1.0000
  C   C1435     1.0  0.46896  0.81505  0.80668  1.0000
  H   H1724     1.0  0.31787  0.77220  0.64036  1.0000
  C   C1436     1.0  0.28313  0.52180  0.74003  1.0000
  S   S381      1.0  0.46166  0.71570  0.67274  1.0000
  H   H1725     1.0  0.32470  0.66999  0.95644  1.0000
  C   C1437     1.0  0.27342  0.71333  0.95925  1.0000
  H   H1726     1.0  0.29822  0.84342  0.63973  1.0000
  C   C1438     1.0  0.31726  0.47866  0.79828  1.0000
  C   C1439     1.0  0.26490  0.96837  0.69223  1.0000
  C   C1440     1.0  0.26369  0.74278  0.85176  1.0000
  H   H1727     1.0  0.40524  0.87135  0.65119  1.0000
  H   H1728     1.0  0.39188  0.70139  0.96065  1.0000
  N   N94       1.0  0.38218  0.68011  0.95002  1.0000
  C   C1441     1.0  0.36248  0.74685  0.63899  1.0000
  N   N95       1.0  0.41397  0.84389  0.64227  1.0000
  S   S382      1.0  0.47678  0.71801  0.89454  1.0000
  H   H1729     1.0  0.48229  0.84290  0.68401  1.0000
  H   H1730     1.0  0.24240  0.71844  0.82892  1.0000
  H   H1731     1.0  0.32692  0.74822  0.63833  1.0000
  H   H1732     1.0  0.35771  0.63018  0.93783  1.0000
  C   C1442     1.0  0.24867  0.75788  0.85427  1.0000
  C   C1443     1.0  0.36229  0.63620  0.94821  1.0000
  C   C1444     1.0  0.37481  0.66192  0.95618  1.0000
  S   S383      1.0  0.30965  0.93819  0.64441  1.0000
  H   H1733     1.0  0.23925  0.62981  0.82208  1.0000
  C   C1445     1.0  0.31295  0.64432  0.96688  1.0000
  C   C1446     1.0  0.32034  0.65997  0.96878  1.0000
  H   H1734     1.0  0.25370  0.47857  0.71519  1.0000
  C   C1447     1.0  0.28403  0.47696  0.79937  1.0000
  C   C1448     1.0  0.23960  0.48565  0.72186  1.0000
  H   H1735     1.0  0.47628  0.69844  0.72467  1.0000
  H   H1736     1.0  0.23668  0.72946  0.94310  1.0000
  C   C1449     1.0  0.48212  0.67948  0.67022  1.0000
  C   C1450     1.0  0.48376  0.80820  0.65835  1.0000
  Fe  Fe196     1.0  0.49577  0.32479  0.18190  1.0000
  Fe  Fe197     1.0  0.50560  0.35835  0.19440  1.0000
  C   C1451     1.0  0.49636  0.29634  0.14855  1.0000
  S   S384      1.0  0.52637  0.37905  0.18926  1.0000
  H   H1737     1.0  0.63310  0.45646  0.09898  1.0000
  S   S385      1.0  0.51310  0.32696  0.20341  1.0000
  S   S386      1.0  0.49009  0.35627  0.17139  1.0000
  H   H1738     1.0  0.61022  0.01806  0.29062  1.0000
  H   H1739     1.0  0.61219  0.45402  0.13098  1.0000
  H   H1740     1.0  0.72465  0.45527  0.17804  1.0000
  C   C1452     1.0  0.68124  0.97851  0.29125  1.0000
  C   C1453     1.0  0.61595  0.32422  0.01961  1.0000
  S   S387      1.0  0.53031  0.06657  0.26251  1.0000
  H   H1741     1.0  0.69092  0.23890  0.03166  1.0000
  H   H1742     1.0  0.68029  0.98639  0.24490  1.0000
  H   H1743     1.0  0.61778  0.33232  0.24521  1.0000
  H   H1744     1.0  0.70810  0.47304  0.27327  1.0000
  H   H1745     1.0  0.67232  0.26488  0.11401  1.0000
  Fe  Fe198     1.0  0.50828  0.21987  0.08995  1.0000
  S   S388      1.0  0.54061  0.21281  0.08579  1.0000
  C   C1454     1.0  0.67316  0.31926  0.98246  1.0000
  H   H1746     1.0  0.52025  0.27749  0.13591  1.0000
  H   H1747     1.0  0.66995  0.33647  0.22570  1.0000
  Fe  Fe199     1.0  0.64737  0.29053  0.09182  1.0000
  S   S389      1.0  0.63906  0.26192  0.09500  1.0000
  S   S390      1.0  0.64451  0.29875  0.12060  1.0000
  Fe  Fe200     1.0  0.65482  0.29498  0.04832  1.0000
  S   S391      1.0  0.64643  0.26694  0.04867  1.0000
  S   S392      1.0  0.66665  0.31349  0.02142  1.0000
  Fe  Fe201     1.0  0.62221  0.27531  0.07183  1.0000
  S   S393      1.0  0.59011  0.27802  0.07482  1.0000
  Fe  Fe202     1.0  0.66420  0.25656  0.07182  1.0000
  S   S394      1.0  0.68540  0.22899  0.07337  1.0000
  S   S395      1.0  0.62941  0.30433  0.06971  1.0000
  S   S396      1.0  0.67366  0.28423  0.07037  1.0000
  Fe  Fe203     1.0  0.63149  0.37659  0.19860  1.0000
  S   S397      1.0  0.63166  0.39738  0.17137  1.0000
  S   S398      1.0  0.60807  0.35980  0.21378  1.0000
  Fe  Fe204     1.0  0.67293  0.37820  0.20053  1.0000
  S   S399      1.0  0.67677  0.39831  0.17290  1.0000
  S   S400      1.0  0.69460  0.36644  0.22015  1.0000
  Fe  Fe205     1.0  0.64783  0.41342  0.18413  1.0000
  S   S401      1.0  0.64034  0.44520  0.18318  1.0000
  Fe  Fe206     1.0  0.66044  0.38061  0.16232  1.0000
  S   S402      1.0  0.66763  0.37437  0.13231  1.0000
  S   S403      1.0  0.64478  0.39425  0.21243  1.0000
  S   S404      1.0  0.65951  0.35884  0.18885  1.0000
  Fe  Fe207     1.0  0.63778  0.07655  0.26102  1.0000
  H   H1748     1.0  0.60276  0.30191  0.03688  1.0000
  S   S405      1.0  0.61556  0.08210  0.24185  1.0000
  Fe  Fe208     1.0  0.67823  0.08396  0.25919  1.0000
  C   C1455     1.0  0.71719  0.24656  0.06510  1.0000
  S   S406      1.0  0.70242  0.09691  0.23976  1.0000
  H   H1749     1.0  0.50959  0.14382  0.19582  1.0000
  H   H1750     1.0  0.62953  0.34532  0.99936  1.0000
  H   H1751     1.0  0.56580  0.30301  0.00697  1.0000
  S   S407      1.0  0.66697  0.06196  0.24945  1.0000
  S   S408      1.0  0.64905  0.10024  0.26832  1.0000
  S   S409      1.0  0.50991  0.30327  0.16258  1.0000
  S   S410      1.0  0.49256  0.22525  0.11859  1.0000
  H   H1752     1.0  0.69633  0.97623  0.28579  1.0000
  N   N96       1.0  0.59315  0.28553  0.00887  1.0000
  C   C1456     1.0  0.71191  0.38018  0.22073  1.0000
  H   H1753     1.0  0.68021  0.33072  0.98327  1.0000
  C   C1457     1.0  0.66635  0.46788  0.11735  1.0000
  N   N97       1.0  0.64274  0.44532  0.12560  1.0000
  H   H1754     1.0  0.70371  0.40259  0.19829  1.0000
  C   C1458     1.0  0.65870  0.45900  0.17626  1.0000
  H   H1755     1.0  0.60032  0.27116  0.03604  1.0000
  H   H1756     1.0  0.69224  0.25579  0.09753  1.0000
  C   C1459     1.0  0.69067  0.46340  0.16042  1.0000
  C   C1460     1.0  0.67674  0.45173  0.16706  1.0000
  C   C1461     1.0  0.58764  0.27666  0.02896  1.0000
  H   H1757     1.0  0.63830  0.43090  0.10424  1.0000
  H   H1758     1.0  0.67988  0.43728  0.16461  1.0000
  C   C1462     1.0  0.71012  0.22945  0.07017  1.0000
  H   H1759     1.0  0.71763  0.19900  0.07688  1.0000
  C   C1463     1.0  0.66534  0.30822  0.99925  1.0000
  C   C1464     1.0  0.65623  0.29348  0.99809  1.0000
  H   H1760     1.0  0.72162  0.44967  0.27200  1.0000
  N   N98       1.0  0.60595  0.01635  0.26280  1.0000
  H   H1761     1.0  0.64994  0.28507  0.01084  1.0000
  C   C1465     1.0  0.48690  0.29229  0.26230  1.0000
  C   C1466     1.0  0.64999  0.32046  0.12313  1.0000
  C   C1467     1.0  0.65790  0.33284  0.10760  1.0000
  C   C1468     1.0  0.66301  0.34955  0.11047  1.0000
  C   C1469     1.0  0.66007  0.35399  0.12881  1.0000
  C   C1470     1.0  0.65166  0.34183  0.14419  1.0000
  C   C1471     1.0  0.64675  0.32509  0.14137  1.0000
  H   H1762     1.0  0.66048  0.32936  0.09348  1.0000
  H   H1763     1.0  0.66947  0.35891  0.09849  1.0000
  H   H1764     1.0  0.64908  0.34520  0.15832  1.0000
  H   H1765     1.0  0.64049  0.31565  0.15341  1.0000
  C   C1472     1.0  0.55425  0.23099  0.08305  1.0000
  C   C1473     1.0  0.57422  0.22635  0.08074  1.0000
  C   C1474     1.0  0.58547  0.24054  0.07841  1.0000
  C   C1475     1.0  0.57677  0.25948  0.07838  1.0000
  C   C1476     1.0  0.55681  0.26409  0.08079  1.0000
  C   C1477     1.0  0.54558  0.24991  0.08318  1.0000
  H   H1766     1.0  0.58102  0.21173  0.08061  1.0000
  H   H1767     1.0  0.60083  0.23684  0.07653  1.0000
  H   H1768     1.0  0.54995  0.27872  0.08072  1.0000
  H   H1769     1.0  0.53022  0.25366  0.08494  1.0000
  C   C1478     1.0  0.55334  0.07273  0.25679  1.0000
  C   C1479     1.0  0.56109  0.08009  0.23826  1.0000
  C   C1480     1.0  0.58004  0.08338  0.23403  1.0000
  C   C1481     1.0  0.59126  0.07967  0.24833  1.0000
  C   C1482     1.0  0.58320  0.07318  0.26703  1.0000
  C   C1483     1.0  0.56439  0.06948  0.27119  1.0000
  H   H1770     1.0  0.55271  0.08265  0.22706  1.0000
  H   H1771     1.0  0.58616  0.08847  0.21952  1.0000
  H   H1772     1.0  0.59158  0.07062  0.27821  1.0000
  H   H1773     1.0  0.55840  0.06393  0.28561  1.0000
  C   C1484     1.0  0.65199  0.98031  0.25574  1.0000
  C   C1485     1.0  0.49465  0.25267  0.27499  1.0000
  S   S411      1.0  0.68364  0.01610  0.28239  1.0000
  H   H1774     1.0  0.67648  0.45805  0.10950  1.0000
  H   H1775     1.0  0.57854  0.29639  0.98484  1.0000
  H   H1776     1.0  0.71895  0.43750  0.24564  1.0000
  H   H1777     1.0  0.60982  0.27570  0.98343  1.0000
  C   C1486     1.0  0.52102  0.11026  0.27671  1.0000
  C   C1487     1.0  0.54947  0.37291  0.19521  1.0000
  C   C1488     1.0  0.56137  0.38671  0.19055  1.0000
  C   C1489     1.0  0.57958  0.38267  0.19564  1.0000
  C   C1490     1.0  0.58590  0.36487  0.20582  1.0000
  C   C1491     1.0  0.57403  0.35103  0.21046  1.0000
  C   C1492     1.0  0.55600  0.35492  0.20494  1.0000
  H   H1778     1.0  0.55644  0.40066  0.18301  1.0000
  H   H1779     1.0  0.58853  0.39349  0.19210  1.0000
  H   H1780     1.0  0.57887  0.33717  0.21820  1.0000
  H   H1781     1.0  0.54716  0.34404  0.20828  1.0000
  H   H1782     1.0  0.71739  0.06278  0.26448  1.0000
  C   C1493     1.0  0.49864  0.26028  0.25559  1.0000
  C   C1494     1.0  0.49475  0.28000  0.24924  1.0000
  H   H1783     1.0  0.50480  0.25087  0.24541  1.0000
  H   H1784     1.0  0.49793  0.28571  0.23428  1.0000
  H   H1785     1.0  0.58934  0.03332  0.28336  1.0000
  C   C1495     1.0  0.50520  0.28301  0.13666  1.0000
  H   H1786     1.0  0.50149  0.26632  0.11679  1.0000
  N   N99       1.0  0.57291  0.30155  0.13004  1.0000
  C   C1496     1.0  0.55947  0.30735  0.11631  1.0000
  C   C1497     1.0  0.59153  0.29300  0.11983  1.0000
  C   C1498     1.0  0.56584  0.28656  0.14532  1.0000
  C   C1499     1.0  0.57403  0.31811  0.13838  1.0000
  C   C1500     1.0  0.59140  0.32485  0.13700  1.0000
  C   C1501     1.0  0.55739  0.32792  0.14849  1.0000
  C   C1502     1.0  0.59194  0.34032  0.14537  1.0000
  C   C1503     1.0  0.55810  0.34340  0.15673  1.0000
  C   C1504     1.0  0.57534  0.34956  0.15521  1.0000
  H   H1787     1.0  0.56361  0.31944  0.10523  1.0000
  H   H1788     1.0  0.55918  0.29553  0.10886  1.0000
  H   H1789     1.0  0.54454  0.31177  0.12329  1.0000
  H   H1790     1.0  0.60230  0.28786  0.12939  1.0000
  H   H1791     1.0  0.59732  0.30330  0.10759  1.0000
  H   H1792     1.0  0.59026  0.28052  0.11386  1.0000
  H   H1793     1.0  0.56523  0.27368  0.13965  1.0000
  H   H1794     1.0  0.57516  0.28230  0.15632  1.0000
  H   H1795     1.0  0.55115  0.29132  0.15265  1.0000
  H   H1796     1.0  0.60483  0.31846  0.12958  1.0000
  H   H1797     1.0  0.54365  0.32365  0.15017  1.0000
  H   H1798     1.0  0.60535  0.34516  0.14423  1.0000
  H   H1799     1.0  0.54518  0.35066  0.16439  1.0000
  H   H1800     1.0  0.57584  0.36153  0.16169  1.0000
  C   C1505     1.0  0.62350  0.44275  0.13642  1.0000
  H   H1801     1.0  0.70436  0.45781  0.15278  1.0000
  H   H1802     1.0  0.70494  0.07497  0.20895  1.0000
  H   H1803     1.0  0.65730  0.44422  0.09675  1.0000
  C   C1506     1.0  0.60655  0.30869  0.02235  1.0000
  C   C1507     1.0  0.71335  0.39740  0.20837  1.0000
  C   C1508     1.0  0.71514  0.46836  0.23694  1.0000
  H   H1804     1.0  0.59359  0.99331  0.25873  1.0000
  H   H1805     1.0  0.70004  0.25906  0.15310  1.0000
  C   C1509     1.0  0.67115  0.99701  0.29126  1.0000
  H   H1806     1.0  0.61990  0.42887  0.13550  1.0000
  H   H1807     1.0  0.60649  0.30804  0.97563  1.0000
  H   H1808     1.0  0.63635  0.03492  0.24728  1.0000
  C   C1510     1.0  0.52017  0.14512  0.27015  1.0000
  C   C1511     1.0  0.65938  0.01189  0.24489  1.0000
  H   H1809     1.0  0.53097  0.14966  0.21555  1.0000
  S   S412      1.0  0.50091  0.06420  0.22143  1.0000
  C   C1512     1.0  0.59295  0.00216  0.26967  1.0000
  H   H1810     1.0  0.49723  0.19523  0.24581  1.0000
  S   S413      1.0  0.49102  0.19790  0.08851  1.0000
  C   C1513     1.0  0.72247  0.46507  0.26846  1.0000
  H   H1811     1.0  0.60077  0.02202  0.23402  1.0000
  C   C1514     1.0  0.60619  0.27077  0.99898  1.0000
  H   H1812     1.0  0.53301  0.34660  0.24362  1.0000
  N   N100      1.0  0.53599  0.18386  0.14205  1.0000
  C   C1515     1.0  0.55529  0.17766  0.13158  1.0000
  C   C1516     1.0  0.52199  0.17962  0.13194  1.0000
  C   C1517     1.0  0.53292  0.20476  0.14102  1.0000
  C   C1518     1.0  0.53437  0.17436  0.16217  1.0000
  C   C1519     1.0  0.54652  0.17727  0.17388  1.0000
  C   C1520     1.0  0.52098  0.16206  0.17072  1.0000
  C   C1521     1.0  0.54521  0.16851  0.19293  1.0000
  C   C1522     1.0  0.51985  0.15330  0.18973  1.0000
  C   C1523     1.0  0.53190  0.15654  0.20083  1.0000
  H   H1813     1.0  0.55835  0.16194  0.13248  1.0000
  H   H1814     1.0  0.55674  0.18411  0.11622  1.0000
  H   H1815     1.0  0.56667  0.18186  0.13709  1.0000
  H   H1816     1.0  0.52396  0.16419  0.13142  1.0000
  H   H1817     1.0  0.52347  0.18699  0.11690  1.0000
  H   H1818     1.0  0.50706  0.18441  0.13870  1.0000
  H   H1819     1.0  0.54396  0.20946  0.14658  1.0000
  H   H1820     1.0  0.53346  0.21236  0.12608  1.0000
  H   H1821     1.0  0.51876  0.20990  0.14917  1.0000
  H   H1822     1.0  0.55716  0.18631  0.16835  1.0000
  H   H1823     1.0  0.51121  0.15885  0.16304  1.0000
  H   H1824     1.0  0.55463  0.17094  0.20160  1.0000
  H   H1825     1.0  0.60664  0.04181  0.24137  1.0000
  C   C1524     1.0  0.69823  0.44673  0.22756  1.0000
  H   H1826     1.0  0.61237  0.03935  0.27356  1.0000
  C   C1525     1.0  0.66530  0.99229  0.24798  1.0000
  N   N101      1.0  0.72905  0.47122  0.24790  1.0000
  C   C1526     1.0  0.52615  0.38374  0.24195  1.0000
  C   C1527     1.0  0.64013  0.01959  0.24952  1.0000
  H   H1827     1.0  0.73240  0.46737  0.27724  1.0000
  C   C1528     1.0  0.62068  0.32378  0.25858  1.0000
  C   C1529     1.0  0.65452  0.29011  0.98033  1.0000
  C   C1530     1.0  0.49933  0.16493  0.24853  1.0000
  S   S414      1.0  0.68061  0.06715  0.28812  1.0000
  H   H1828     1.0  0.58034  0.26430  0.03027  1.0000
  C   C1531     1.0  0.72538  0.05602  0.19275  1.0000
  N   N102      1.0  0.69919  0.25993  0.12359  1.0000
  H   H1829     1.0  0.64648  0.33265  0.22604  1.0000
  H   H1830     1.0  0.59981  0.25773  0.00081  1.0000
  H   H1831     1.0  0.49683  0.40563  0.23158  1.0000
  C   C1532     1.0  0.51662  0.17996  0.26441  1.0000
  C   C1533     1.0  0.49242  0.37894  0.25102  1.0000
  C   C1534     1.0  0.69084  0.25599  0.14405  1.0000
  C   C1535     1.0  0.70309  0.24489  0.02321  1.0000
  H   H1832     1.0  0.57757  0.28686  0.03729  1.0000
  H   H1833     1.0  0.62260  0.44283  0.15184  1.0000
  C   C1536     1.0  0.65829  0.32901  0.23441  1.0000
  H   H1834     1.0  0.65709  0.42985  0.14828  1.0000
  H   H1835     1.0  0.72358  0.36036  0.24336  1.0000
  H   H1836     1.0  0.69476  0.32341  0.13096  1.0000
  C   C1537     1.0  0.49460  0.27665  0.12584  1.0000
  C   C1538     1.0  0.71784  0.24716  0.12057  1.0000
  H   H1837     1.0  0.69567  0.43244  0.22825  1.0000
  H   H1838     1.0  0.66355  0.31348  0.23550  1.0000
  H   H1839     1.0  0.52321  0.39708  0.24797  1.0000
  H   H1840     1.0  0.70773  0.25975  0.06193  1.0000
  S   S415      1.0  0.63724  0.05859  0.28998  1.0000
  N   N103      1.0  0.65231  0.33460  0.25348  1.0000
  C   C1539     1.0  0.64396  0.35507  0.25115  1.0000
  C   C1540     1.0  0.66977  0.33214  0.26192  1.0000
  C   C1541     1.0  0.63789  0.32332  0.26506  1.0000
  C   C1542     1.0  0.60441  0.02724  0.27826  1.0000
  H   H1841     1.0  0.72709  0.98360  0.26518  1.0000
  Fe  Fe209     1.0  0.50694  0.07731  0.24446  1.0000
  H   H1842     1.0  0.65477  0.36406  0.24340  1.0000
  H   H1843     1.0  0.63210  0.35857  0.24286  1.0000
  C   C1543     1.0  0.50383  0.18136  0.25219  1.0000
  H   H1844     1.0  0.66651  0.33709  0.27585  1.0000
  H   H1845     1.0  0.68037  0.34066  0.25271  1.0000
  H   H1846     1.0  0.67708  0.31709  0.26362  1.0000
  H   H1847     1.0  0.58365  0.03571  0.24976  1.0000
  C   C1544     1.0  0.72292  0.21235  0.07314  1.0000
  C   C1545     1.0  0.61797  0.32780  0.98574  1.0000
  C   C1546     1.0  0.72088  0.23328  0.02012  1.0000
  H   H1848     1.0  0.72018  0.12453  0.16458  1.0000
  C   C1547     1.0  0.72456  0.08995  0.18792  1.0000
  H   H1849     1.0  0.54124  0.37712  0.24281  1.0000
  C   C1548     1.0  0.64822  0.46351  0.12669  1.0000
  C   C1549     1.0  0.62615  0.00779  0.25736  1.0000
  C   C1550     1.0  0.60680  0.31329  0.26918  1.0000
  C   C1551     1.0  0.51789  0.35329  0.24327  1.0000
  H   H1850     1.0  0.51600  0.35660  0.22814  1.0000
  H   H1851     1.0  0.56757  0.27931  0.00252  1.0000
  H   H1852     1.0  0.55666  0.13409  0.27605  1.0000
  C   C1552     1.0  0.60264  0.30220  0.00667  1.0000
  H   H1853     1.0  0.61931  0.32866  0.03166  1.0000
  H   H1854     1.0  0.52720  0.09649  0.28474  1.0000
  H   H1855     1.0  0.72415  0.24774  0.10527  1.0000
  C   C1553     1.0  0.57555  0.29132  0.00040  1.0000
  S   S416      1.0  0.49012  0.24404  0.07409  1.0000
  H   H1856     1.0  0.52551  0.38747  0.22651  1.0000
  C   C1554     1.0  0.70723  0.31814  0.10283  1.0000
  S   S417      1.0  0.50133  0.10709  0.22866  1.0000
  H   H1857     1.0  0.72148  0.21851  0.02657  1.0000
  H   H1858     1.0  0.48942  0.23318  0.16793  1.0000
  N   N104      1.0  0.51263  0.37069  0.25200  1.0000
  C   C1555     1.0  0.52484  0.16215  0.27312  1.0000
  H   H1859     1.0  0.57781  0.00911  0.27305  1.0000
  H   H1860     1.0  0.68959  0.29119  0.14330  1.0000
  H   H1861     1.0  0.71422  0.27609  0.08767  1.0000
  C   C1556     1.0  0.59901  0.02947  0.24629  1.0000
  C   C1557     1.0  0.72908  0.06785  0.25437  1.0000
  H   H1862     1.0  0.68735  0.27333  0.01925  1.0000
  H   H1863     1.0  0.66984  0.02119  0.23939  1.0000
  H   H1864     1.0  0.71956  0.01920  0.23086  1.0000
  H   H1865     1.0  0.50262  0.13502  0.25433  1.0000
  H   H1866     1.0  0.63825  0.35967  0.26514  1.0000
  S   S418      1.0  0.50100  0.10388  0.17544  1.0000
  H   H1867     1.0  0.50905  0.34227  0.25053  1.0000
  H   H1868     1.0  0.53065  0.36038  0.27329  1.0000
  C   C1558     1.0  0.71713  0.07373  0.19757  1.0000
  C   C1559     1.0  0.65657  0.42919  0.13334  1.0000
  Fe  Fe210     1.0  0.66742  0.04603  0.27899  1.0000
  H   H1869     1.0  0.48904  0.16598  0.23935  1.0000
  H   H1870     1.0  0.51026  0.37798  0.27956  1.0000
  H   H1871     1.0  0.59878  0.29402  0.29480  1.0000
  H   H1872     1.0  0.68906  0.25174  0.97263  1.0000
  H   H1873     1.0  0.48480  0.04801  0.18911  1.0000
  H   H1874     1.0  0.65279  0.31061  0.28915  1.0000
  H   H1875     1.0  0.70892  0.33280  0.09747  1.0000
  C   C1560     1.0  0.64027  0.31181  0.28294  1.0000
  C   C1561     1.0  0.64287  0.44421  0.10551  1.0000
  C   C1562     1.0  0.49435  0.13454  0.14723  1.0000
  H   H1876     1.0  0.55283  0.12317  0.25750  1.0000
  C   C1563     1.0  0.49009  0.12701  0.16662  1.0000
  C   C1564     1.0  0.70182  0.27997  0.11678  1.0000
  H   H1877     1.0  0.48891  0.05612  0.15286  1.0000
  S   S419      1.0  0.49965  0.22777  0.28217  1.0000
  H   H1878     1.0  0.71939  0.04355  0.20012  1.0000
  H   H1879     1.0  0.67127  0.42896  0.12523  1.0000
  C   C1565     1.0  0.69930  0.31278  0.12175  1.0000
  H   H1880     1.0  0.52433  0.10859  0.26150  1.0000
  C   C1566     1.0  0.70997  0.28592  0.09760  1.0000
  C   C1567     1.0  0.54958  0.12312  0.27311  1.0000
  H   H1881     1.0  0.48944  0.15891  0.12518  1.0000
  C   C1568     1.0  0.72972  0.01905  0.24040  1.0000
  H   H1882     1.0  0.59637  0.99267  0.28298  1.0000
  C   C1569     1.0  0.71671  0.27219  0.00591  1.0000
  C   C1570     1.0  0.60959  0.30211  0.28659  1.0000
  H   H1883     1.0  0.68914  0.24083  0.14876  1.0000
  H   H1884     1.0  0.64715  0.27892  0.97955  1.0000
  C   C1571     1.0  0.72744  0.40786  0.20889  1.0000
  C   C1572     1.0  0.69642  0.29406  0.12868  1.0000
  H   H1885     1.0  0.50415  0.12601  0.13772  1.0000
  Fe  Fe211     1.0  0.49252  0.09433  0.20705  1.0000
  H   H1886     1.0  0.67632  0.26456  0.14702  1.0000
  C   C1573     1.0  0.68826  0.46194  0.21670  1.0000
  H   H1887     1.0  0.51988  0.19281  0.26743  1.0000
  C   C1574     1.0  0.68621  0.25503  0.11282  1.0000
  C   C1575     1.0  0.48682  0.26496  0.28806  1.0000
  C   C1576     1.0  0.72455  0.37367  0.23377  1.0000
  H   H1888     1.0  0.71850  0.30899  0.07597  1.0000
  C   C1577     1.0  0.50730  0.14705  0.25735  1.0000
  H   H1889     1.0  0.50763  0.35389  0.28009  1.0000
  H   H1890     1.0  0.50535  0.11185  0.28144  1.0000
  C   C1578     1.0  0.72567  0.08426  0.24095  1.0000
  H   H1891     1.0  0.53465  0.16189  0.28248  1.0000
  H   H1892     1.0  0.72556  0.19265  0.98908  1.0000
  H   H1893     1.0  0.64407  0.13760  0.28582  1.0000
  H   H1894     1.0  0.71770  0.10331  0.19240  1.0000
  C   C1579     1.0  0.71150  0.44982  0.23752  1.0000
  H   H1895     1.0  0.61983  0.26659  0.00462  1.0000
  C   C1580     1.0  0.70104  0.26430  0.01627  1.0000
  Fe  Fe212     1.0  0.65061  0.08134  0.29663  1.0000
  C   C1581     1.0  0.60859  0.31231  0.98828  1.0000
  C   C1582     1.0  0.71254  0.30474  0.09076  1.0000
  C   C1583     1.0  0.72595  0.19984  0.97449  1.0000
  H   H1896     1.0  0.65270  0.41522  0.13314  1.0000
  H   H1897     1.0  0.71046  0.22572  0.98245  1.0000
  C   C1584     1.0  0.51538  0.36554  0.27211  1.0000
  N   N105      1.0  0.52873  0.12646  0.27996  1.0000
  H   H1898     1.0  0.72217  0.01559  0.25524  1.0000
  H   H1899     1.0  0.67796  0.45948  0.20901  1.0000
  C   C1585     1.0  0.63269  0.98784  0.26044  1.0000
  H   H1900     1.0  0.68327  0.24027  0.11788  1.0000
  H   H1901     1.0  0.72850  0.42103  0.19914  1.0000
  H   H1902     1.0  0.55652  0.10909  0.28002  1.0000
  H   H1903     1.0  0.62297  0.33487  0.97153  1.0000
  C   C1586     1.0  0.62167  0.33372  0.00138  1.0000
  C   C1587     1.0  0.65157  0.99986  0.29827  1.0000
  H   H1904     1.0  0.72716  0.11295  0.14416  1.0000
  C   C1588     1.0  0.48608  0.15316  0.14012  1.0000
  H   H1905     1.0  0.64368  0.01410  0.29816  1.0000
  H   H1906     1.0  0.71497  0.28739  0.00075  1.0000
  H   H1907     1.0  0.59381  0.31390  0.26382  1.0000
  H   H1908     1.0  0.71653  0.23200  0.12614  1.0000
  H   H1909     1.0  0.64724  0.16460  0.29871  1.0000
  H   H1910     1.0  0.72836  0.25099  0.12764  1.0000
  C   C1589     1.0  0.62626  0.30139  0.29347  1.0000
  H   H1911     1.0  0.62334  0.97768  0.26691  1.0000
  C   C1590     1.0  0.73206  0.97719  0.25256  1.0000
  C   C1591     1.0  0.63286  0.14288  0.29670  1.0000
  H   H1912     1.0  0.73248  0.03381  0.23876  1.0000
  H   H1913     1.0  0.61661  0.12091  0.29829  1.0000
  C   C1592     1.0  0.71731  0.21887  0.97044  1.0000
  C   C1593     1.0  0.73254  0.11974  0.15389  1.0000
  C   C1594     1.0  0.48673  0.39689  0.23991  1.0000
  C   C1595     1.0  0.52517  0.12617  0.30078  1.0000
  Fe  Fe213     1.0  0.48519  0.32945  0.22344  1.0000
  H   H1914     1.0  0.71219  0.25816  0.97122  1.0000
  C   C1596     1.0  0.73298  0.46245  0.18474  1.0000
  H   H1915     1.0  0.73355  0.45452  0.19940  1.0000
  H   H1916     1.0  0.62222  0.47508  0.14498  1.0000
  Fe  Fe214     1.0  0.49412  0.21304  0.31290  1.0000
  S   S420      1.0  0.51126  0.18356  0.31766  1.0000
  C   C1597     1.0  0.62323  0.17524  0.34776  1.0000
  C   C1598     1.0  0.72067  0.10939  0.60649  1.0000
  Fe  Fe215     1.0  0.51404  0.19010  0.34560  1.0000
  S   S421      1.0  0.53960  0.17696  0.35999  1.0000
  H   H1917     1.0  0.50226  0.18555  0.44290  1.0000
  S   S422      1.0  0.49922  0.22036  0.33984  1.0000
  C   C1599     1.0  0.73351  0.14134  0.48592  1.0000
  Fe  Fe216     1.0  0.71417  0.14258  0.54524  1.0000
  S   S423      1.0  0.68236  0.15076  0.54819  1.0000
  H   H1918     1.0  0.65888  0.23514  0.63429  1.0000
  Fe  Fe217     1.0  0.71958  0.18181  0.55101  1.0000
  S   S424      1.0  0.68822  0.19277  0.55523  1.0000
  C   C1600     1.0  0.51617  0.20178  0.41708  1.0000
  Fe  Fe218     1.0  0.68487  0.16397  0.57274  1.0000
  S   S425      1.0  0.67071  0.15585  0.60325  1.0000
  Fe  Fe219     1.0  0.68851  0.17868  0.53029  1.0000
  S   S426      1.0  0.67643  0.19710  0.50510  1.0000
  S   S427      1.0  0.71647  0.15428  0.57053  1.0000
  C   C1601     1.0  0.60468  0.15537  0.32578  1.0000
  C   C1602     1.0  0.72232  0.23220  0.55769  1.0000
  Fe  Fe220     1.0  0.63175  0.19997  0.38355  1.0000
  S   S428      1.0  0.64041  0.16835  0.39160  1.0000
  S   S429      1.0  0.60309  0.21653  0.37679  1.0000
  Fe  Fe221     1.0  0.67238  0.20773  0.38135  1.0000
  S   S430      1.0  0.68420  0.17678  0.38855  1.0000
  S   S431      1.0  0.68840  0.23256  0.37622  1.0000
  Fe  Fe222     1.0  0.66610  0.17184  0.36890  1.0000
  S   S432      1.0  0.67782  0.15480  0.34486  1.0000
  Fe  Fe223     1.0  0.65766  0.17594  0.41067  1.0000
  S   S433      1.0  0.66083  0.15918  0.43997  1.0000
  S   S434      1.0  0.65657  0.20310  0.35977  1.0000
  S   S435      1.0  0.64676  0.20722  0.40457  1.0000
  H   H1919     1.0  0.64134  0.03518  0.33712  1.0000
  C   C1603     1.0  0.71185  0.22947  0.38070  1.0000
  C   C1604     1.0  0.64892  0.97887  0.35557  1.0000
  C   C1605     1.0  0.72279  0.30760  0.51910  1.0000
  S   S436      1.0  0.72014  0.16925  0.52530  1.0000
  H   H1920     1.0  0.49042  0.17899  0.41852  1.0000
  H   H1921     1.0  0.50632  0.23206  0.38908  1.0000
  C   C1606     1.0  0.71527  0.22869  0.60771  1.0000
  C   C1607     1.0  0.65161  0.10795  0.33096  1.0000
  C   C1608     1.0  0.64478  0.11468  0.34823  1.0000
  C   C1609     1.0  0.65287  0.12875  0.35290  1.0000
  C   C1610     1.0  0.66773  0.13638  0.34019  1.0000
  C   C1611     1.0  0.67469  0.12945  0.32303  1.0000
  C   C1612     1.0  0.66672  0.11528  0.31844  1.0000
  H   H1922     1.0  0.64757  0.13369  0.36631  1.0000
  H   H1923     1.0  0.63928  0.23255  0.62436  1.0000
  C   C1613     1.0  0.68677  0.21429  0.61083  1.0000
  H   H1924     1.0  0.60737  0.19517  0.60066  1.0000
  H   H1925     1.0  0.67216  0.11017  0.30512  1.0000
  H   H1926     1.0  0.69159  0.97721  0.63382  1.0000
  S   S437      1.0  0.73164  0.11435  0.53926  1.0000
  C   C1614     1.0  0.65916  0.21264  0.59796  1.0000
  H   H1927     1.0  0.48644  0.22975  0.42191  1.0000
  H   H1928     1.0  0.70981  0.22637  0.55763  1.0000
  H   H1929     1.0  0.70641  0.25928  0.56386  1.0000
  C   C1615     1.0  0.67117  0.18648  0.48752  1.0000
  C   C1616     1.0  0.67197  0.16685  0.48986  1.0000
  C   C1617     1.0  0.66789  0.15883  0.47550  1.0000
  C   C1618     1.0  0.66360  0.17022  0.45846  1.0000
  C   C1619     1.0  0.66260  0.18989  0.45619  1.0000
  C   C1620     1.0  0.66624  0.19799  0.47074  1.0000
  H   H1930     1.0  0.67560  0.15786  0.50278  1.0000
  H   H1931     1.0  0.66837  0.14365  0.47748  1.0000
  H   H1932     1.0  0.65913  0.19884  0.44321  1.0000
  H   H1933     1.0  0.66533  0.21321  0.46895  1.0000
  H   H1934     1.0  0.68626  0.13516  0.31317  1.0000
  H   H1935     1.0  0.69035  0.04372  0.32992  1.0000
  C   C1621     1.0  0.71905  0.22022  0.50805  1.0000
  C   C1622     1.0  0.64675  0.16427  0.61229  1.0000
  C   C1623     1.0  0.63483  0.17710  0.60103  1.0000
  C   C1624     1.0  0.61646  0.18499  0.60934  1.0000
  H   H1936     1.0  0.63902  0.00772  0.35867  1.0000
  H   H1937     1.0  0.70051  0.29375  0.50471  1.0000
  H   H1938     1.0  0.63986  0.18120  0.58602  1.0000
  H   H1939     1.0  0.51684  0.14514  0.62467  1.0000
  C   C1625     1.0  0.68362  0.98990  0.33728  1.0000
  H   H1940     1.0  0.63316  0.10903  0.35804  1.0000
  H   H1941     1.0  0.66796  0.18490  0.62697  1.0000
  C   C1626     1.0  0.70441  0.07808  0.58083  1.0000
  C   C1627     1.0  0.70873  0.09454  0.56818  1.0000
  S   S438      1.0  0.64088  0.09050  0.32539  1.0000
  H   H1942     1.0  0.69129  0.07892  0.59092  1.0000
  H   H1943     1.0  0.69907  0.10788  0.56880  1.0000
  C   C1628     1.0  0.55647  0.18862  0.36512  1.0000
  C   C1629     1.0  0.57038  0.17787  0.37556  1.0000
  C   C1630     1.0  0.58449  0.18634  0.37955  1.0000
  C   C1631     1.0  0.58494  0.20563  0.37297  1.0000
  C   C1632     1.0  0.57076  0.21653  0.36290  1.0000
  C   C1633     1.0  0.55663  0.20804  0.35885  1.0000
  H   H1944     1.0  0.57024  0.16287  0.38060  1.0000
  H   H1945     1.0  0.59508  0.17790  0.38767  1.0000
  H   H1946     1.0  0.57093  0.23152  0.35791  1.0000
  H   H1947     1.0  0.54601  0.21645  0.35077  1.0000
  C   C1634     1.0  0.62032  0.16530  0.31904  1.0000
  H   H1948     1.0  0.56280  0.20790  0.41134  1.0000
  H   H1949     1.0  0.70131  0.40636  0.60982  1.0000
  H   H1950     1.0  0.63777  0.19657  0.30289  1.0000
  H   H1951     1.0  0.67238  0.10146  0.61874  1.0000
  C   C1635     1.0  0.51517  0.19077  0.43559  1.0000
  H   H1952     1.0  0.63836  0.20364  0.32486  1.0000
  H   H1953     1.0  0.70091  0.02034  0.33966  1.0000
  C   C1636     1.0  0.49427  0.18839  0.40482  1.0000
  H   H1954     1.0  0.52981  0.17761  0.45905  1.0000
  Fe  Fe224     1.0  0.73177  0.46791  0.63149  1.0000
  C   C1637     1.0  0.69909  0.19808  0.60475  1.0000
  C   C1638     1.0  0.63810  0.19124  0.31823  1.0000
  H   H1955     1.0  0.53026  0.11193  0.30872  1.0000
  C   C1639     1.0  0.72830  0.37346  0.61703  1.0000
  C   C1640     1.0  0.68951  0.02835  0.33163  1.0000
  S   S439      1.0  0.73364  0.28181  0.56638  1.0000
  H   H1956     1.0  0.64552  0.19881  0.63407  1.0000
  H   H1957     1.0  0.71207  0.27248  0.45254  1.0000
  C   C1641     1.0  0.66859  0.00396  0.34409  1.0000
  H   H1958     1.0  0.65709  0.24525  0.60973  1.0000
  C   C1642     1.0  0.63450  0.15848  0.30430  1.0000
  H   H1959     1.0  0.70312  0.18969  0.44828  1.0000
  C   C1643     1.0  0.60404  0.19616  0.32626  1.0000
  H   H1960     1.0  0.70004  0.12041  0.47593  1.0000
  H   H1961     1.0  0.65187  0.18151  0.31979  1.0000
  C   C1644     1.0  0.71924  0.24541  0.38207  1.0000
  H   H1962     1.0  0.70354  0.14396  0.44708  1.0000
  C   C1645     1.0  0.65628  0.03590  0.33002  1.0000
  C   C1646     1.0  0.71096  0.29012  0.49262  1.0000
  C   C1647     1.0  0.71882  0.19730  0.60031  1.0000
  H   H1963     1.0  0.70626  0.42827  0.61343  1.0000
  H   H1964     1.0  0.65189  0.02970  0.36782  1.0000
  C   C1648     1.0  0.67172  0.07262  0.63333  1.0000
  H   H1965     1.0  0.50632  0.18018  0.39610  1.0000
  C   C1649     1.0  0.70451  0.28314  0.47901  1.0000
  H   H1966     1.0  0.63695  0.16571  0.34928  1.0000
  H   H1967     1.0  0.72165  0.24073  0.60832  1.0000
  C   C1650     1.0  0.71233  0.41294  0.61343  1.0000
  H   H1968     1.0  0.69431  0.23000  0.44922  1.0000
  C   C1651     1.0  0.54796  0.19229  0.43623  1.0000
  C   C1652     1.0  0.73118  0.22606  0.47346  1.0000
  C   C1653     1.0  0.65117  0.99783  0.35334  1.0000
  C   C1654     1.0  0.71690  0.06070  0.58039  1.0000
  H   H1969     1.0  0.66502  0.19850  0.59380  1.0000
  H   H1970     1.0  0.71871  0.11865  0.50120  1.0000
  H   H1971     1.0  0.69785  0.17538  0.43340  1.0000
  H   H1972     1.0  0.62833  0.29270  0.30708  1.0000
  C   C1655     1.0  0.63997  0.15888  0.63169  1.0000
  H   H1973     1.0  0.70624  0.09850  0.63401  1.0000
  C   C1656     1.0  0.71023  0.12993  0.47398  1.0000
  C   C1657     1.0  0.72599  0.38302  0.63270  1.0000
  C   C1658     1.0  0.72042  0.25080  0.56130  1.0000
  S   S440      1.0  0.48752  0.17878  0.36085  1.0000
  H   H1974     1.0  0.56016  0.18858  0.44345  1.0000
  H   H1975     1.0  0.64336  0.21388  0.60027  1.0000
  C   C1659     1.0  0.72066  0.12895  0.48823  1.0000
  C   C1660     1.0  0.53383  0.20791  0.40862  1.0000
  H   H1976     1.0  0.59110  0.19084  0.33478  1.0000
  H   H1977     1.0  0.71334  0.31975  0.51202  1.0000
  H   H1978     1.0  0.67658  0.02164  0.36958  1.0000
  C   C1661     1.0  0.72348  0.21164  0.38216  1.0000
  H   H1979     1.0  0.69354  0.18591  0.60316  1.0000
  C   C1662     1.0  0.70880  0.18316  0.43530  1.0000
  S   S441      1.0  0.71131  0.04061  0.59728  1.0000
  C   C1663     1.0  0.72690  0.21253  0.60187  1.0000
  C   C1664     1.0  0.54942  0.20319  0.41813  1.0000
  H   H1980     1.0  0.62269  0.18736  0.35503  1.0000
  C   C1665     1.0  0.73265  0.08001  0.62587  1.0000
  H   H1981     1.0  0.71405  0.29724  0.52833  1.0000
  H   H1982     1.0  0.66839  0.04563  0.35872  1.0000
  H   H1983     1.0  0.53609  0.21625  0.39460  1.0000
  H   H1984     1.0  0.61182  0.16726  0.35579  1.0000
  H   H1985     1.0  0.67364  0.03943  0.62030  1.0000
  H   H1986     1.0  0.72705  0.42922  0.63362  1.0000
  H   H1987     1.0  0.65833  0.03110  0.31612  1.0000
  H   H1988     1.0  0.68737  0.24271  0.61633  1.0000
  C   C1666     1.0  0.70862  0.22992  0.45151  1.0000
  C   C1667     1.0  0.71242  0.14345  0.45744  1.0000
  H   H1989     1.0  0.71030  0.25924  0.38088  1.0000
  H   H1990     1.0  0.53238  0.13635  0.30493  1.0000
  C   C1668     1.0  0.60334  0.13965  0.31825  1.0000
  H   H1991     1.0  0.68964  0.28178  0.48084  1.0000
  C   C1669     1.0  0.71709  0.27789  0.46305  1.0000
  C   C1670     1.0  0.71255  0.22635  0.46997  1.0000
  C   C1671     1.0  0.60977  0.17976  0.62881  1.0000
  C   C1672     1.0  0.53087  0.18612  0.44496  1.0000
  C   C1673     1.0  0.66667  0.03051  0.36022  1.0000
  H   H1992     1.0  0.71989  0.27219  0.33294  1.0000
  H   H1993     1.0  0.70988  0.19483  0.42283  1.0000
  C   C1674     1.0  0.73036  0.29217  0.49048  1.0000
  H   H1994     1.0  0.69283  0.02488  0.31699  1.0000
  H   H1995     1.0  0.72427  0.38048  0.60357  1.0000
  H   H1996     1.0  0.68336  0.06711  0.62303  1.0000
  H   H1997     1.0  0.60480  0.20903  0.33191  1.0000
  H   H1998     1.0  0.73241  0.28753  0.36500  1.0000
  H   H1999     1.0  0.71956  0.30156  0.33577  1.0000
  H   H2000     1.0  0.65761  0.05121  0.32717  1.0000
  N   N106      1.0  0.67041  0.02424  0.34150  1.0000
  H   H2001     1.0  0.71980  0.23578  0.42177  1.0000
  N   N107      1.0  0.66587  0.21484  0.61511  1.0000
  H   H2002     1.0  0.60164  0.20069  0.31132  1.0000
  N   N108      1.0  0.62153  0.18171  0.32751  1.0000
  C   C1675     1.0  0.72298  0.23316  0.43601  1.0000
  C   C1676     1.0  0.61738  0.13345  0.30371  1.0000
  H   H2003     1.0  0.66345  0.22355  0.58558  1.0000
  H   H2004     1.0  0.72234  0.15268  0.41876  1.0000
  C   C1677     1.0  0.69548  0.22967  0.61215  1.0000
  H   H2005     1.0  0.51430  0.21075  0.37846  1.0000
  C   C1678     1.0  0.73326  0.16074  0.42021  1.0000
  N   N109      1.0  0.49941  0.20626  0.40736  1.0000
  C   C1679     1.0  0.66115  0.19904  0.63066  1.0000
  C   C1680     1.0  0.64223  0.98413  0.30557  1.0000
  H   H2006     1.0  0.71802  0.19935  0.38076  1.0000
  C   C1681     1.0  0.66556  0.09228  0.63076  1.0000
  H   H2007     1.0  0.59352  0.15944  0.33725  1.0000
  C   C1682     1.0  0.65491  0.23278  0.62112  1.0000
  H   H2008     1.0  0.72293  0.21732  0.52242  1.0000
  H   H2009     1.0  0.72895  0.31313  0.52923  1.0000
  H   H2010     1.0  0.70854  0.23363  0.50715  1.0000
  H   H2011     1.0  0.69722  0.99318  0.32961  1.0000
  C   C1683     1.0  0.72553  0.09372  0.55482  1.0000
  H   H2012     1.0  0.72489  0.41245  0.60180  1.0000
  H   H2013     1.0  0.59157  0.13197  0.32402  1.0000
  H   H2014     1.0  0.65039  0.03579  0.63285  1.0000
  H   H2015     1.0  0.72093  0.23869  0.33372  1.0000
  H   H2016     1.0  0.70071  0.22367  0.48124  1.0000
  C   C1684     1.0  0.50272  0.21817  0.38829  1.0000
  C   C1685     1.0  0.72535  0.15637  0.45459  1.0000
  H   H2017     1.0  0.71179  0.20838  0.50750  1.0000
  H   H2018     1.0  0.48978  0.22149  0.38151  1.0000
  N   N110      1.0  0.71776  0.40342  0.63203  1.0000
  H   H2019     1.0  0.50968  0.12988  0.30621  1.0000
  H   H2020     1.0  0.70969  0.12175  0.60430  1.0000
  C   C1686     1.0  0.73356  0.05979  0.56679  1.0000
  S   S442      1.0  0.72257  0.98470  0.60195  1.0000
  Fe  Fe225     1.0  0.73191  0.01271  0.60039  1.0000
  H   H2021     1.0  0.55147  0.13784  0.62526  1.0000
  C   C1687     1.0  0.71873  0.09619  0.62318  1.0000
  H   H2022     1.0  0.72792  0.18499  0.59518  1.0000
  H   H2023     1.0  0.62717  0.98627  0.31130  1.0000
  N   N111      1.0  0.72736  0.17057  0.43692  1.0000
  C   C1688     1.0  0.73373  0.24369  0.33464  1.0000
  C   C1689     1.0  0.66579  0.03266  0.63392  1.0000
  H   H2024     1.0  0.67063  0.01709  0.63470  1.0000
  C   C1690     1.0  0.73403  0.30305  0.32761  1.0000
  C   C1691     1.0  0.73334  0.26301  0.33425  1.0000
  H   H2025     1.0  0.49444  0.18385  0.63564  1.0000
  Fe  Fe226     1.0  0.59659  0.00786  0.73893  1.0000
  H   H2026     1.0  0.51268  0.33912  0.80925  1.0000
  S   S443      1.0  0.57776  0.03602  0.74355  1.0000
  S   S444      1.0  0.62739  0.00596  0.72576  1.0000
  S   S445      1.0  0.59046  0.98827  0.72159  1.0000
  S   S446      1.0  0.63227  0.98561  0.67917  1.0000
  C   C1692     1.0  0.72872  0.04316  0.95108  1.0000
  S   S447      1.0  0.70125  0.99483  0.87896  1.0000
  Fe  Fe227     1.0  0.69583  0.99421  0.84975  1.0000
  C   C1693     1.0  0.73134  0.98223  0.70239  1.0000
  C   C1694     1.0  0.72755  0.99653  0.73595  1.0000
  H   H2027     1.0  0.64556  0.11543  0.64126  1.0000
  H   H2028     1.0  0.65664  0.98639  0.64299  1.0000
  S   S448      1.0  0.65018  0.45148  0.76266  1.0000
  Fe  Fe228     1.0  0.62409  0.44032  0.76046  1.0000
  S   S449      1.0  0.62936  0.40843  0.76042  1.0000
  C   C1695     1.0  0.50396  0.28236  0.79733  1.0000
  H   H2029     1.0  0.69687  0.00985  0.93855  1.0000
  Fe  Fe229     1.0  0.57279  0.32370  0.77505  1.0000
  S   S450      1.0  0.56612  0.30851  0.80509  1.0000
  S   S451      1.0  0.56648  0.35606  0.76984  1.0000
  Fe  Fe230     1.0  0.58163  0.28650  0.75907  1.0000
  S   S452      1.0  0.57579  0.26894  0.78788  1.0000
  S   S453      1.0  0.59101  0.27220  0.73308  1.0000
  Fe  Fe231     1.0  0.55034  0.29143  0.79319  1.0000
  S   S454      1.0  0.52238  0.28304  0.80944  1.0000
  Fe  Fe232     1.0  0.59220  0.28748  0.79694  1.0000
  S   S455      1.0  0.61373  0.27295  0.81596  1.0000
  S   S456      1.0  0.55505  0.30797  0.76367  1.0000
  S   S457      1.0  0.60007  0.30367  0.76759  1.0000
  Fe  Fe233     1.0  0.70615  0.29526  0.88470  1.0000
  S   S458      1.0  0.67556  0.29156  0.89197  1.0000
  H   H2030     1.0  0.53847  0.07265  0.67473  1.0000
  Fe  Fe234     1.0  0.69662  0.33812  0.88587  1.0000
  S   S459      1.0  0.66510  0.33756  0.89386  1.0000
  S   S460      1.0  0.71214  0.36308  0.87339  1.0000
  Fe  Fe235     1.0  0.67366  0.31026  0.91353  1.0000
  S   S461      1.0  0.65813  0.29734  0.94186  1.0000
  Fe  Fe236     1.0  0.66965  0.31887  0.87180  1.0000
  S   S462      1.0  0.65240  0.32739  0.84796  1.0000
  S   S463      1.0  0.70484  0.31233  0.90738  1.0000
  S   S464      1.0  0.70053  0.32092  0.86273  1.0000
  Fe  Fe237     1.0  0.58175  0.14225  0.69874  1.0000
  S   S465      1.0  0.56705  0.14844  0.67348  1.0000
  S   S466      1.0  0.60289  0.11477  0.70232  1.0000
  Fe  Fe238     1.0  0.56381  0.18106  0.71062  1.0000
  S   S467      1.0  0.54812  0.19013  0.68592  1.0000
  S   S468      1.0  0.55679  0.19829  0.73464  1.0000
  Fe  Fe239     1.0  0.54123  0.16065  0.69270  1.0000
  S   S469      1.0  0.51168  0.15319  0.69787  1.0000
  Fe  Fe240     1.0  0.57548  0.17717  0.66889  1.0000
  S   S470      1.0  0.55532  0.15207  0.71850  1.0000
  S   S471      1.0  0.59183  0.17047  0.69307  1.0000
  C   C1696     1.0  0.69075  0.27867  0.84853  1.0000
  C   C1697     1.0  0.50230  0.17094  0.66292  1.0000
  C   C1698     1.0  0.71752  0.22842  0.95135  1.0000
  H   H2031     1.0  0.51644  0.17462  0.65920  1.0000
  C   C1699     1.0  0.66529  0.98008  0.65380  1.0000
  H   H2032     1.0  0.56991  0.08549  0.66881  1.0000
  C   C1700     1.0  0.71234  0.22297  0.88771  1.0000
  C   C1701     1.0  0.71295  0.24244  0.88543  1.0000
  H   H2033     1.0  0.69876  0.21819  0.89020  1.0000
  H   H2034     1.0  0.69985  0.25255  0.88636  1.0000
  C   C1702     1.0  0.58059  0.25237  0.73292  1.0000
  C   C1703     1.0  0.58736  0.24166  0.71821  1.0000
  C   C1704     1.0  0.57999  0.22520  0.71833  1.0000
  C   C1705     1.0  0.56579  0.21937  0.73320  1.0000
  C   C1706     1.0  0.55882  0.23026  0.74772  1.0000
  C   C1707     1.0  0.56616  0.24669  0.74759  1.0000
  H   H2035     1.0  0.59845  0.24603  0.70675  1.0000
  H   H2036     1.0  0.58540  0.21694  0.70703  1.0000
  H   H2037     1.0  0.54787  0.22587  0.75929  1.0000
  H   H2038     1.0  0.56076  0.25485  0.75895  1.0000
  C   C1708     1.0  0.62391  0.28819  0.82529  1.0000
  C   C1709     1.0  0.62296  0.30737  0.81719  1.0000
  C   C1710     1.0  0.63172  0.31919  0.82439  1.0000
  C   C1711     1.0  0.64121  0.31201  0.83990  1.0000
  C   C1712     1.0  0.64182  0.29292  0.84829  1.0000
  C   C1713     1.0  0.63343  0.28097  0.84081  1.0000
  H   H2039     1.0  0.61562  0.31307  0.80526  1.0000
  H   H2040     1.0  0.63109  0.33396  0.81788  1.0000
  H   H2041     1.0  0.64850  0.28746  0.86067  1.0000
  H   H2042     1.0  0.63395  0.26619  0.84728  1.0000
  H   H2043     1.0  0.70032  0.27712  0.85900  1.0000
  C   C1714     1.0  0.50531  0.28883  0.77780  1.0000
  H   H2044     1.0  0.65625  0.46016  0.70288  1.0000
  H   H2045     1.0  0.56860  0.08127  0.69396  1.0000
  S   S472      1.0  0.63812  0.46646  0.81327  1.0000
  H   H2046     1.0  0.51810  0.29373  0.76970  1.0000
  Fe  Fe241     1.0  0.71982  0.01668  0.86407  1.0000
  C   C1715     1.0  0.69251  0.24938  0.93636  1.0000
  H   H2047     1.0  0.72505  0.00169  0.74925  1.0000
  N   N112      1.0  0.66921  0.03940  0.65058  1.0000
  H   H2048     1.0  0.67715  0.32471  0.95176  1.0000
  C   C1716     1.0  0.70951  0.41990  0.89234  1.0000
  C   C1717     1.0  0.70129  0.40531  0.90504  1.0000
  C   C1718     1.0  0.70099  0.38810  0.89923  1.0000
  C   C1719     1.0  0.70936  0.38524  0.88078  1.0000
  C   C1720     1.0  0.68992  0.03469  0.65129  1.0000
  C   C1721     1.0  0.71686  0.41738  0.87359  1.0000
  H   H2049     1.0  0.73349  0.09666  0.89694  1.0000
  C   C1722     1.0  0.65924  0.02852  0.66796  1.0000
  C   C1723     1.0  0.61155  0.39417  0.76338  1.0000
  C   C1724     1.0  0.61705  0.37439  0.76462  1.0000
  C   C1725     1.0  0.60340  0.36251  0.76694  1.0000
  C   C1726     1.0  0.58410  0.37035  0.76780  1.0000
  C   C1727     1.0  0.57858  0.39012  0.76671  1.0000
  C   C1728     1.0  0.59222  0.40199  0.76462  1.0000
  H   H2050     1.0  0.63198  0.36821  0.76360  1.0000
  H   H2051     1.0  0.60785  0.34733  0.76773  1.0000
  H   H2052     1.0  0.56370  0.39633  0.76734  1.0000
  H   H2053     1.0  0.58779  0.41718  0.76368  1.0000
  H   H2054     1.0  0.72753  0.25466  0.91958  1.0000
  C   C1729     1.0  0.50958  0.12727  0.65144  1.0000
  C   C1730     1.0  0.71524  0.28797  0.82306  1.0000
  C   C1731     1.0  0.70931  0.22011  0.84178  1.0000
  N   N113      1.0  0.70855  0.24850  0.94635  1.0000
  C   C1732     1.0  0.64729  0.06877  0.66126  1.0000
  C   C1733     1.0  0.68086  0.98893  0.80564  1.0000
  C   C1734     1.0  0.67146  0.31588  0.96463  1.0000
  C   C1735     1.0  0.73050  0.24867  0.88185  1.0000
  H   H2055     1.0  0.68198  0.29251  0.81328  1.0000
  C   C1736     1.0  0.70063  0.23912  0.83811  1.0000
  H   H2056     1.0  0.68011  0.26915  0.85480  1.0000
  C   C1737     1.0  0.52223  0.13531  0.63641  1.0000
  C   C1738     1.0  0.58483  0.05782  0.73181  1.0000
  C   C1739     1.0  0.57238  0.07490  0.73434  1.0000
  C   C1740     1.0  0.57763  0.09250  0.72521  1.0000
  C   C1741     1.0  0.59545  0.09309  0.71363  1.0000
  C   C1742     1.0  0.60796  0.07604  0.71128  1.0000
  C   C1743     1.0  0.60262  0.05848  0.72020  1.0000
  H   H2057     1.0  0.55865  0.07451  0.74345  1.0000
  H   H2058     1.0  0.56804  0.10560  0.72737  1.0000
  H   H2059     1.0  0.62189  0.07643  0.70264  1.0000
  H   H2060     1.0  0.61236  0.04550  0.71818  1.0000
  N   N114      1.0  0.72806  0.46069  0.71489  1.0000
  H   H2061     1.0  0.62954  0.09481  0.66843  1.0000
  H   H2062     1.0  0.63250  0.98071  0.79671  1.0000
  C   C1744     1.0  0.70040  0.40568  0.64670  1.0000
  C   C1745     1.0  0.53612  0.11025  0.66766  1.0000
  C   C1746     1.0  0.71190  0.99129  0.73115  1.0000
  H   H2063     1.0  0.50628  0.25064  0.75773  1.0000
  H   H2064     1.0  0.51780  0.33109  0.75889  1.0000
  C   C1747     1.0  0.71259  0.45127  0.71261  1.0000
  C   C1748     1.0  0.67621  0.46098  0.67639  1.0000
  H   H2065     1.0  0.68544  0.26428  0.93219  1.0000
  C   C1749     1.0  0.73154  0.24882  0.83226  1.0000
  C   C1750     1.0  0.72946  0.98592  0.94285  1.0000
  H   H2066     1.0  0.69503  0.37681  0.90923  1.0000
  N   N115      1.0  0.72678  0.00204  0.92704  1.0000
  C   C1751     1.0  0.50119  0.20728  0.73309  1.0000
  Fe  Fe242     1.0  0.62193  0.98447  0.71060  1.0000
  C   C1752     1.0  0.49652  0.16067  0.68086  1.0000
  H   H2067     1.0  0.68526  0.24201  0.83988  1.0000
  H   H2068     1.0  0.72450  0.28506  0.80946  1.0000
  S   S473      1.0  0.71216  0.01770  0.83543  1.0000
  H   H2069     1.0  0.69472  0.27343  0.95861  1.0000
  H   H2070     1.0  0.50705  0.19013  0.71107  1.0000
  H   H2071     1.0  0.49195  0.25220  0.74005  1.0000
  C   C1753     1.0  0.69007  0.47046  0.66390  1.0000
  S   S474      1.0  0.60531  0.45461  0.78379  1.0000
  C   C1754     1.0  0.72654  0.21766  0.93683  1.0000
  N   N116      1.0  0.54291  0.09722  0.68423  1.0000
  C   C1755     1.0  0.73196  0.05702  0.87920  1.0000
  H   H2072     1.0  0.73278  0.97642  0.68948  1.0000
  H   H2073     1.0  0.70148  0.99456  0.92138  1.0000
  S   S475      1.0  0.61586  0.46426  0.73717  1.0000
  S   S476      1.0  0.71529  0.04253  0.87858  1.0000
  C   C1756     1.0  0.72922  0.20962  0.88669  1.0000
  H   H2074     1.0  0.71180  0.43784  0.72299  1.0000
  H   H2075     1.0  0.61648  0.16232  0.65490  1.0000
  H   H2076     1.0  0.51528  0.23772  0.73862  1.0000
  H   H2077     1.0  0.73012  0.07031  0.63903  1.0000
  S   S477      1.0  0.66712  0.99201  0.84340  1.0000
  C   C1757     1.0  0.72270  0.25945  0.93355  1.0000
  H   H2078     1.0  0.63940  0.06057  0.67317  1.0000
  H   H2079     1.0  0.69721  0.24324  0.92311  1.0000
  C   C1758     1.0  0.50453  0.36863  0.78229  1.0000
  H   H2080     1.0  0.54082  0.06874  0.69937  1.0000
  H   H2081     1.0  0.52059  0.11048  0.70434  1.0000
  H   H2082     1.0  0.67293  0.44830  0.67315  1.0000
  C   C1759     1.0  0.65674  0.97747  0.67297  1.0000
  H   H2083     1.0  0.69874  0.04041  0.63782  1.0000
  H   H2084     1.0  0.70343  0.40026  0.66132  1.0000
  H   H2085     1.0  0.69498  0.01903  0.65350  1.0000
  C   C1760     1.0  0.66668  0.46773  0.69318  1.0000
  H   H2086     1.0  0.51189  0.22020  0.78072  1.0000
  N   N117      1.0  0.63136  0.38793  0.82069  1.0000
  C   C1761     1.0  0.61939  0.40398  0.81024  1.0000
  C   C1762     1.0  0.64270  0.37594  0.80680  1.0000
  C   C1763     1.0  0.61827  0.37659  0.83464  1.0000
  C   C1764     1.0  0.64439  0.39411  0.83048  1.0000
  C   C1765     1.0  0.64674  0.41338  0.82822  1.0000
  C   C1766     1.0  0.65563  0.38057  0.84239  1.0000
  C   C1767     1.0  0.65931  0.41862  0.83760  1.0000
  C   C1768     1.0  0.66802  0.38599  0.85180  1.0000
  C   C1769     1.0  0.66984  0.40499  0.84945  1.0000
  H   H2087     1.0  0.60960  0.39895  0.80319  1.0000
  H   H2088     1.0  0.61046  0.41360  0.81987  1.0000
  H   H2089     1.0  0.62826  0.41244  0.79862  1.0000
  H   H2090     1.0  0.65272  0.38395  0.79601  1.0000
  H   H2091     1.0  0.63342  0.37118  0.79896  1.0000
  H   H2092     1.0  0.65121  0.36291  0.81375  1.0000
  H   H2093     1.0  0.61043  0.38461  0.84612  1.0000
  H   H2094     1.0  0.60761  0.37265  0.82781  1.0000
  H   H2095     1.0  0.62586  0.36292  0.84148  1.0000
  H   H2096     1.0  0.63912  0.42475  0.81925  1.0000
  H   H2097     1.0  0.65503  0.36563  0.84446  1.0000
  H   H2098     1.0  0.66091  0.43338  0.83560  1.0000
  H   H2099     1.0  0.67635  0.37536  0.86089  1.0000
  H   H2100     1.0  0.67950  0.40911  0.85676  1.0000
  N   N118      1.0  0.61851  0.03965  0.78014  1.0000
  C   C1770     1.0  0.63044  0.03472  0.79526  1.0000
  C   C1771     1.0  0.59835  0.03949  0.78952  1.0000
  C   C1772     1.0  0.62377  0.02464  0.76816  1.0000
  C   C1773     1.0  0.62184  0.05806  0.76818  1.0000
  C   C1774     1.0  0.60696  0.07379  0.76531  1.0000
  C   C1775     1.0  0.64048  0.06052  0.75861  1.0000
  C   C1776     1.0  0.61066  0.09083  0.75362  1.0000
  C   C1777     1.0  0.64396  0.07756  0.74676  1.0000
  C   C1778     1.0  0.62904  0.09266  0.74421  1.0000
  H   H2101     1.0  0.62821  0.04648  0.80351  1.0000
  H   H2102     1.0  0.62708  0.02179  0.80550  1.0000
  H   H2103     1.0  0.64592  0.03149  0.78954  1.0000
  H   H2104     1.0  0.58869  0.04208  0.77887  1.0000
  H   H2105     1.0  0.59345  0.05027  0.79905  1.0000
  H   H2106     1.0  0.59636  0.02544  0.79838  1.0000
  H   H2107     1.0  0.61536  0.02816  0.75641  1.0000
  H   H2108     1.0  0.63912  0.02256  0.76171  1.0000
  H   H2109     1.0  0.62104  0.01062  0.77647  1.0000
  H   H2110     1.0  0.59225  0.07322  0.77159  1.0000
  H   H2111     1.0  0.65246  0.04914  0.76005  1.0000
  H   H2112     1.0  0.59907  0.10256  0.75130  1.0000
  H   H2113     1.0  0.65824  0.07904  0.73938  1.0000
  H   H2114     1.0  0.63160  0.10574  0.73468  1.0000
  C   C1779     1.0  0.71378  0.98420  0.71442  1.0000
  C   C1780     1.0  0.53636  0.10642  0.70129  1.0000
  C   C1781     1.0  0.66182  0.30149  0.96360  1.0000
  C   C1782     1.0  0.66285  0.47471  0.83287  1.0000
  C   C1783     1.0  0.64791  0.98557  0.81719  1.0000
  H   H2115     1.0  0.54230  0.11973  0.69942  1.0000
  C   C1784     1.0  0.66534  0.98854  0.82055  1.0000
  H   H2116     1.0  0.69544  0.40720  0.91953  1.0000
  H   H2117     1.0  0.51063  0.35573  0.74987  1.0000
  H   H2118     1.0  0.51930  0.08157  0.69218  1.0000
  C   C1785     1.0  0.65041  0.10019  0.64340  1.0000
  C   C1786     1.0  0.50752  0.21305  0.77059  1.0000
  C   C1787     1.0  0.53502  0.07932  0.68772  1.0000
  H   H2119     1.0  0.66095  0.03307  0.68106  1.0000
  C   C1788     1.0  0.70088  0.25825  0.96302  1.0000
  H   H2120     1.0  0.72037  0.98888  0.95648  1.0000
  H   H2121     1.0  0.66595  0.20015  0.64385  1.0000
  H   H2122     1.0  0.70367  0.01917  0.91394  1.0000
  C   C1789     1.0  0.68860  0.27727  0.81642  1.0000
  H   H2123     1.0  0.70162  0.98001  0.71092  1.0000
  C   C1790     1.0  0.72473  0.46498  0.73441  1.0000
  H   H2124     1.0  0.66500  0.01306  0.66944  1.0000
  Fe  Fe243     1.0  0.63246  0.98171  0.74966  1.0000
  C   C1791     1.0  0.66277  0.06022  0.64863  1.0000
  H   H2125     1.0  0.49664  0.37814  0.77149  1.0000
  H   H2126     1.0  0.69820  0.99250  0.74056  1.0000
  H   H2127     1.0  0.71205  0.02118  0.95698  1.0000
  C   C1792     1.0  0.48986  0.17607  0.64958  1.0000
  C   C1793     1.0  0.72898  0.21544  0.84063  1.0000
  C   C1794     1.0  0.71710  0.40001  0.86797  1.0000
  H   H2128     1.0  0.70074  0.20891  0.84621  1.0000
  H   H2129     1.0  0.67637  0.26954  0.82190  1.0000
  H   H2130     1.0  0.72273  0.42863  0.86348  1.0000
  C   C1795     1.0  0.54171  0.13117  0.63679  1.0000
  S   S478      1.0  0.65960  0.98156  0.76081  1.0000
  H   H2131     1.0  0.70751  0.30286  0.82050  1.0000
  H   H2132     1.0  0.64377  0.02981  0.66768  1.0000
  H   H2133     1.0  0.69098  0.98694  0.77611  1.0000
  H   H2134     1.0  0.69836  0.46030  0.71484  1.0000
  H   H2135     1.0  0.68286  0.29353  0.84702  1.0000
  C   C1796     1.0  0.51726  0.34579  0.76129  1.0000
  C   C1797     1.0  0.50208  0.24228  0.74853  1.0000
  H   H2136     1.0  0.69438  0.99111  0.80808  1.0000
  H   H2137     1.0  0.51605  0.20856  0.73113  1.0000
  H   H2138     1.0  0.68954  0.39793  0.64452  1.0000
  C   C1798     1.0  0.49619  0.19673  0.72145  1.0000
  C   C1799     1.0  0.48730  0.27588  0.80766  1.0000
  C   C1800     1.0  0.64136  0.08849  0.65865  1.0000
  H   H2139     1.0  0.49658  0.37118  0.79655  1.0000
  H   H2140     1.0  0.49090  0.29461  0.75370  1.0000
  H   H2141     1.0  0.54074  0.09696  0.71421  1.0000
  C   C1801     1.0  0.51633  0.11513  0.66696  1.0000
  H   H2142     1.0  0.48618  0.27086  0.82279  1.0000
  S   S479      1.0  0.70189  0.46173  0.64297  1.0000
  H   H2143     1.0  0.63591  0.98503  0.82872  1.0000
  H   H2144     1.0  0.69613  0.27272  0.80279  1.0000
  Fe  Fe244     1.0  0.63084  0.46726  0.78446  1.0000
  C   C1802     1.0  0.54866  0.11879  0.65210  1.0000
  H   H2145     1.0  0.56387  0.11646  0.65156  1.0000
  S   S480      1.0  0.71146  0.44045  0.90073  1.0000
  H   H2146     1.0  0.69379  0.42093  0.64638  1.0000
  H   H2147     1.0  0.71461  0.44789  0.69803  1.0000
  H   H2148     1.0  0.51863  0.37328  0.78028  1.0000
  H   H2149     1.0  0.72440  0.28779  0.83364  1.0000
  H   H2150     1.0  0.71669  0.27480  0.93019  1.0000
  Fe  Fe245     1.0  0.72278  0.46585  0.88140  1.0000
  H   H2151     1.0  0.52083  0.20801  0.76107  1.0000
  N   N119      1.0  0.70186  0.27416  0.83019  1.0000
  H   H2152     1.0  0.57096  0.10438  0.68112  1.0000
  C   C1803     1.0  0.48743  0.21557  0.74724  1.0000
  H   H2153     1.0  0.53332  0.34159  0.79161  1.0000
  C   C1804     1.0  0.56400  0.09193  0.68180  1.0000
  C   C1805     1.0  0.51906  0.33721  0.79442  1.0000
  H   H2154     1.0  0.53220  0.34842  0.75905  1.0000
  H   H2155     1.0  0.71076  0.07646  0.89425  1.0000
  N   N120      1.0  0.62728  0.23232  0.76850  1.0000
  C   C1806     1.0  0.64456  0.22233  0.77639  1.0000
  C   C1807     1.0  0.62991  0.22894  0.74866  1.0000
  C   C1808     1.0  0.62581  0.25303  0.76773  1.0000
  C   C1809     1.0  0.61020  0.22568  0.78086  1.0000
  C   C1810     1.0  0.59760  0.21694  0.77426  1.0000
  C   C1811     1.0  0.60578  0.22787  0.80026  1.0000
  C   C1812     1.0  0.58161  0.21090  0.78638  1.0000
  C   C1813     1.0  0.58965  0.22195  0.81219  1.0000
  C   C1814     1.0  0.57758  0.21350  0.80525  1.0000
  H   H2156     1.0  0.64563  0.20665  0.77811  1.0000
  H   H2157     1.0  0.65779  0.22635  0.76706  1.0000
  H   H2158     1.0  0.64457  0.22579  0.79054  1.0000
  H   H2159     1.0  0.63160  0.21356  0.74804  1.0000
  H   H2160     1.0  0.64275  0.23417  0.73969  1.0000
  H   H2161     1.0  0.61765  0.23670  0.74169  1.0000
  H   H2162     1.0  0.62535  0.25680  0.78182  1.0000
  H   H2163     1.0  0.63802  0.25877  0.75802  1.0000
  H   H2164     1.0  0.61264  0.26092  0.76249  1.0000
  H   H2165     1.0  0.59949  0.21490  0.75970  1.0000
  H   H2166     1.0  0.61445  0.23470  0.80626  1.0000
  H   H2167     1.0  0.57212  0.20444  0.78094  1.0000
  H   H2168     1.0  0.58631  0.22432  0.82679  1.0000
  H   H2169     1.0  0.56494  0.20917  0.81448  1.0000
  H   H2170     1.0  0.50584  0.11000  0.67862  1.0000
  S   S481      1.0  0.60171  0.98465  0.76388  1.0000
  H   H2171     1.0  0.52166  0.32181  0.79364  1.0000
  C   C1815     1.0  0.70634  0.00659  0.92522  1.0000
  H   H2172     1.0  0.68147  0.24140  0.94547  1.0000
  C   C1816     1.0  0.71733  0.47368  0.77173  1.0000
  H   H2173     1.0  0.72693  0.22377  0.92201  1.0000
  C   C1817     1.0  0.72356  0.02705  0.94724  1.0000
  N   N121      1.0  0.50687  0.34835  0.78060  1.0000
  H   H2174     1.0  0.65687  0.46481  0.84464  1.0000
  H   H2175     1.0  0.72350  0.39793  0.85364  1.0000
  C   C1818     1.0  0.66138  0.98390  0.78406  1.0000
  C   C1819     1.0  0.48989  0.28928  0.76877  1.0000
  H   H2176     1.0  0.72120  0.04941  0.96336  1.0000
  C   C1820     1.0  0.67887  0.98660  0.78751  1.0000
  C   C1821     1.0  0.64592  0.98324  0.79903  1.0000
  S   S482      1.0  0.72797  0.18540  0.88900  1.0000
  H   H2177     1.0  0.69328  0.04038  0.66301  1.0000
  C   C1822     1.0  0.48792  0.34259  0.78364  1.0000
  C   C1823     1.0  0.72566  0.07302  0.88826  1.0000
  C   C1824     1.0  0.71149  0.25409  0.83309  1.0000
  H   H2178     1.0  0.73260  0.98308  0.90653  1.0000
  H   H2179     1.0  0.49036  0.32132  0.80958  1.0000
  S   S483      1.0  0.73367  0.46819  0.85017  1.0000
  H   H2180     1.0  0.64916  0.14909  0.64053  1.0000
  H   H2181     1.0  0.73120  0.37847  0.66182  1.0000
  S   S484      1.0  0.58714  0.19063  0.63912  1.0000
  S   S485      1.0  0.73203  0.27294  0.87866  1.0000
  H   H2182     1.0  0.50173  0.20023  0.77880  1.0000
  C   C1825     1.0  0.73240  0.37216  0.64938  1.0000
  C   C1826     1.0  0.62150  0.16646  0.63990  1.0000
  C   C1827     1.0  0.73285  0.01886  0.93098  1.0000
  N   N122      1.0  0.49329  0.22596  0.75993  1.0000
  H   H2183     1.0  0.49438  0.13099  0.65133  1.0000
  H   H2184     1.0  0.73337  0.37100  0.92681  1.0000
  C   C1828     1.0  0.73187  0.41360  0.63587  1.0000
  Fe  Fe246     1.0  0.70430  0.84462  0.01293  1.0000
  S   S486      1.0  0.67943  0.82816  0.02186  1.0000
  H   H2185     1.0  0.71726  0.55457  0.10405  1.0000
  H   H2186     1.0  0.64245  0.90332  0.97056  1.0000
  C   C1829     1.0  0.66731  0.87671  0.98858  1.0000
  S   S487      1.0  0.70058  0.87316  0.02182  1.0000
  N   N123      1.0  0.73100  0.69671  0.97809  1.0000
  S   S488      1.0  0.70520  0.90989  0.97541  1.0000
  C   C1830     1.0  0.62904  0.84342  0.98043  1.0000
  Fe  Fe247     1.0  0.62174  0.76745  0.98362  1.0000
  S   S489      1.0  0.62006  0.75184  0.01346  1.0000
  C   C1831     1.0  0.72828  0.86878  0.15672  1.0000
  S   S490      1.0  0.59382  0.72514  0.00226  1.0000
  Fe  Fe248     1.0  0.58927  0.75270  0.01291  1.0000
  S   S491      1.0  0.56710  0.75830  0.03881  1.0000
  Fe  Fe249     1.0  0.62479  0.72549  0.00069  1.0000
  S   S492      1.0  0.59006  0.77092  0.98379  1.0000
  Fe  Fe250     1.0  0.57131  0.70059  0.14523  1.0000
  S   S493      1.0  0.56871  0.67121  0.16167  1.0000
  S   S494      1.0  0.58274  0.70048  0.11376  1.0000
  Fe  Fe251     1.0  0.56370  0.71783  0.18195  1.0000
  S   S495      1.0  0.56112  0.68974  0.20050  1.0000
  S   S496      1.0  0.55976  0.74490  0.19441  1.0000
  Fe  Fe252     1.0  0.58642  0.67773  0.18049  1.0000
  S   S497      1.0  0.61299  0.65991  0.19058  1.0000
  Fe  Fe253     1.0  0.54357  0.68594  0.17992  1.0000
  S   S498      1.0  0.51551  0.67622  0.19364  1.0000
  S   S499      1.0  0.59044  0.70628  0.16326  1.0000
  S   S500      1.0  0.54466  0.71489  0.16220  1.0000
  Fe  Fe254     1.0  0.71263  0.56476  0.14553  1.0000
  S   S501      1.0  0.68745  0.55267  0.14329  1.0000
  C   C1832     1.0  0.65792  0.68453  0.00158  1.0000
  Fe  Fe255     1.0  0.71104  0.54732  0.18800  1.0000
  S   S502      1.0  0.68513  0.53458  0.18856  1.0000
  S   S503      1.0  0.64432  0.70140  0.01517  1.0000
  Fe  Fe256     1.0  0.70028  0.52613  0.16088  1.0000
  S   S504      1.0  0.70450  0.49660  0.15389  1.0000
  Fe  Fe257     1.0  0.67456  0.56248  0.17111  1.0000
  S   S505      1.0  0.64366  0.57635  0.17261  1.0000
  H   H2187     1.0  0.68609  0.61767  0.13375  1.0000
  S   S506      1.0  0.69911  0.57610  0.17268  1.0000
  Fe  Fe258     1.0  0.72885  0.86338  0.03175  1.0000
  S   S507      1.0  0.56451  0.79890  0.27895  1.0000
  S   S508      1.0  0.58061  0.74357  0.27528  1.0000
  Fe  Fe259     1.0  0.72145  0.62388  0.97828  1.0000
  H   H2188     1.0  0.49529  0.74388  0.00424  1.0000
  H   H2189     1.0  0.62240  0.83435  0.99262  1.0000
  H   H2190     1.0  0.67756  0.88578  0.98951  1.0000
  H   H2191     1.0  0.71008  0.84416  0.24877  1.0000
  H   H2192     1.0  0.63374  0.79154  0.01205  1.0000
  S   S509      1.0  0.73322  0.62629  0.00359  1.0000
  C   C1833     1.0  0.67196  0.48485  0.11833  1.0000
  H   H2193     1.0  0.71028  0.80994  0.28451  1.0000
  C   C1834     1.0  0.71370  0.89471  0.23697  1.0000
  C   C1835     1.0  0.71213  0.89627  0.25616  1.0000
  H   H2194     1.0  0.70122  0.89362  0.23165  1.0000
  H   H2195     1.0  0.69842  0.89679  0.26531  1.0000
  C   C1836     1.0  0.70568  0.87892  0.13495  1.0000
  C   C1837     1.0  0.73280  0.53075  0.01122  1.0000
  H   H2196     1.0  0.71433  0.67591  0.99504  1.0000
  H   H2197     1.0  0.69125  0.69861  0.98266  1.0000
  C   C1838     1.0  0.64170  0.49432  0.13757  1.0000
  H   H2198     1.0  0.64609  0.70688  0.05989  1.0000
  C   C1839     1.0  0.73332  0.59535  0.08146  1.0000
  S   S510      1.0  0.64142  0.78933  0.97163  1.0000
  C   C1840     1.0  0.52446  0.72978  0.99486  1.0000
  C   C1841     1.0  0.67297  0.74969  0.02760  1.0000
  C   C1842     1.0  0.73289  0.57033  0.22053  1.0000
  H   H2199     1.0  0.50172  0.73608  0.17380  1.0000
  H   H2200     1.0  0.64102  0.48363  0.18643  1.0000
  H   H2201     1.0  0.68907  0.82382  0.98166  1.0000
  H   H2202     1.0  0.60799  0.73151  0.18290  1.0000
  H   H2203     1.0  0.62857  0.71900  0.09751  1.0000
  C   C1843     1.0  0.61554  0.74671  0.07007  1.0000
  C   C1844     1.0  0.68197  0.72824  0.97877  1.0000
  C   C1845     1.0  0.66703  0.77090  0.05028  1.0000
  C   C1846     1.0  0.56347  0.74452  0.21780  1.0000
  C   C1847     1.0  0.56680  0.72749  0.23042  1.0000
  C   C1848     1.0  0.57099  0.72756  0.24840  1.0000
  C   C1849     1.0  0.57197  0.74461  0.25398  1.0000
  C   C1850     1.0  0.56770  0.76176  0.24175  1.0000
  C   C1851     1.0  0.56346  0.76169  0.22375  1.0000
  H   H2204     1.0  0.56652  0.71424  0.22615  1.0000
  H   H2205     1.0  0.57395  0.71431  0.25791  1.0000
  H   H2206     1.0  0.56842  0.77500  0.24582  1.0000
  H   H2207     1.0  0.56076  0.77497  0.21416  1.0000
  C   C1852     1.0  0.50153  0.66919  0.18013  1.0000
  C   C1853     1.0  0.49156  0.74765  0.23939  1.0000
  C   C1854     1.0  0.62136  0.63674  0.18537  1.0000
  C   C1855     1.0  0.61068  0.62777  0.17713  1.0000
  C   C1856     1.0  0.61768  0.60923  0.17338  1.0000
  C   C1857     1.0  0.63548  0.59963  0.17759  1.0000
  C   C1858     1.0  0.64631  0.60871  0.18556  1.0000
  C   C1859     1.0  0.63920  0.62717  0.18954  1.0000
  H   H2208     1.0  0.59694  0.63500  0.17386  1.0000
  H   H2209     1.0  0.60921  0.60228  0.16724  1.0000
  H   H2210     1.0  0.65998  0.60139  0.18896  1.0000
  H   H2211     1.0  0.64754  0.63403  0.19590  1.0000
  H   H2212     1.0  0.51221  0.78759  0.23694  1.0000
  H   H2213     1.0  0.68610  0.48766  0.11166  1.0000
  C   C1860     1.0  0.56997  0.74179  0.05981  1.0000
  C   C1861     1.0  0.56143  0.74669  0.07765  1.0000
  C   C1862     1.0  0.56454  0.73396  0.09451  1.0000
  C   C1863     1.0  0.57594  0.71614  0.09352  1.0000
  C   C1864     1.0  0.58369  0.71100  0.07567  1.0000
  C   C1865     1.0  0.58098  0.72383  0.05890  1.0000
  H   H2214     1.0  0.55284  0.76056  0.07845  1.0000
  H   H2215     1.0  0.55851  0.73808  0.10820  1.0000
  H   H2216     1.0  0.59225  0.69712  0.07479  1.0000
  H   H2217     1.0  0.58753  0.71980  0.04529  1.0000
  C   C1866     1.0  0.49526  0.79814  0.29575  1.0000
  H   H2218     1.0  0.65396  0.88124  0.99828  1.0000
  H   H2219     1.0  0.68571  0.60355  0.09873  1.0000
  C   C1867     1.0  0.69789  0.87263  0.10039  1.0000
  C   C1868     1.0  0.71566  0.71354  0.97729  1.0000
  C   C1869     1.0  0.67104  0.66998  0.00981  1.0000
  Fe  Fe260     1.0  0.71753  0.88193  0.99272  1.0000
  H   H2220     1.0  0.67215  0.66890  0.02455  1.0000
  H   H2221     1.0  0.69288  0.64566  0.00547  1.0000
  C   C1870     1.0  0.64902  0.74452  0.05642  1.0000
  H   H2222     1.0  0.53923  0.76162  0.98860  1.0000
  H   H2223     1.0  0.66850  0.60440  0.14906  1.0000
  H   H2224     1.0  0.68097  0.88607  0.16640  1.0000
  N   N124      1.0  0.63431  0.73403  0.06875  1.0000
  C   C1871     1.0  0.66980  0.81675  0.00763  1.0000
  C   C1872     1.0  0.65413  0.80760  0.01603  1.0000
  C   C1873     1.0  0.64585  0.79842  0.00538  1.0000
  C   C1874     1.0  0.65278  0.79885  0.98599  1.0000
  C   C1875     1.0  0.67703  0.81684  0.98832  1.0000
  H   H2225     1.0  0.64828  0.80765  0.03089  1.0000
  C   C1876     1.0  0.68285  0.65688  0.99900  1.0000
  H   H2226     1.0  0.51056  0.73735  0.03130  1.0000
  C   C1877     1.0  0.73129  0.89456  0.22466  1.0000
  C   C1878     1.0  0.73349  0.95034  0.23722  1.0000
  H   H2227     1.0  0.68386  0.62827  0.09950  1.0000
  H   H2228     1.0  0.64344  0.60204  0.11014  1.0000
  H   H2229     1.0  0.65674  0.96508  0.25875  1.0000
  C   C1879     1.0  0.69151  0.48030  0.21574  1.0000
  H   H2230     1.0  0.71867  0.51539  0.99034  1.0000
  C   C1880     1.0  0.49133  0.76913  0.28669  1.0000
  H   H2231     1.0  0.69868  0.84351  0.11370  1.0000
  H   H2232     1.0  0.66106  0.58506  0.12102  1.0000
  H   H2233     1.0  0.51822  0.77522  0.28976  1.0000
  H   H2234     1.0  0.49016  0.75810  0.24846  1.0000
  C   C1881     1.0  0.67189  0.96286  0.29827  1.0000
  H   H2235     1.0  0.70527  0.90826  0.11954  1.0000
  H   H2236     1.0  0.73293  0.87130  0.16950  1.0000
  H   H2237     1.0  0.51864  0.81088  0.25407  1.0000
  H   H2238     1.0  0.63771  0.66537  0.15322  1.0000
  S   S511      1.0  0.72588  0.58463  0.12028  1.0000
  H   H2239     1.0  0.72008  0.55040  0.07061  1.0000
  H   H2240     1.0  0.73114  0.69583  0.00768  1.0000
  C   C1882     1.0  0.72378  0.84381  0.25247  1.0000
  C   C1883     1.0  0.72010  0.73216  0.97391  1.0000
  C   C1884     1.0  0.73184  0.49127  0.24517  1.0000
  C   C1885     1.0  0.49403  0.66659  0.14995  1.0000
  C   C1886     1.0  0.61172  0.74337  0.20620  1.0000
  H   H2241     1.0  0.73184  0.52977  0.25296  1.0000
  C   C1887     1.0  0.54536  0.71932  0.01842  1.0000
  S   S512      1.0  0.71968  0.85384  0.98348  1.0000
  C   C1888     1.0  0.72831  0.89691  0.26342  1.0000
  H   H2242     1.0  0.52359  0.72673  0.20581  1.0000
  C   C1889     1.0  0.62424  0.66597  0.12956  1.0000
  C   C1890     1.0  0.61480  0.83431  0.30145  1.0000
  H   H2243     1.0  0.63579  0.63400  0.09971  1.0000
  H   H2244     1.0  0.52034  0.75084  0.22605  1.0000
  S   S513      1.0  0.72492  0.59213  0.98451  1.0000
  C   C1891     1.0  0.51032  0.72995  0.21546  1.0000
  N   N125      1.0  0.61652  0.68575  0.23678  1.0000
  C   C1892     1.0  0.63346  0.67377  0.22753  1.0000
  C   C1893     1.0  0.61818  0.68384  0.25705  1.0000
  C   C1894     1.0  0.59921  0.67813  0.23633  1.0000
  C   C1895     1.0  0.61532  0.70556  0.22643  1.0000
  C   C1896     1.0  0.61278  0.70983  0.20715  1.0000
  C   C1897     1.0  0.61657  0.72106  0.23496  1.0000
  C   C1898     1.0  0.61085  0.72849  0.19730  1.0000
  S   S514      1.0  0.72435  0.53674  0.21482  1.0000
  H   H2245     1.0  0.69773  0.87928  0.18262  1.0000
  H   H2246     1.0  0.64678  0.67904  0.22751  1.0000
  H   H2247     1.0  0.63483  0.65867  0.23473  1.0000
  H   H2248     1.0  0.63277  0.67361  0.21251  1.0000
  H   H2249     1.0  0.63143  0.68838  0.25855  1.0000
  H   H2250     1.0  0.61873  0.66885  0.26447  1.0000
  H   H2251     1.0  0.60571  0.69242  0.26489  1.0000
  H   H2252     1.0  0.59977  0.66315  0.24374  1.0000
  H   H2253     1.0  0.58613  0.68671  0.24313  1.0000
  H   H2254     1.0  0.59723  0.67805  0.22170  1.0000
  H   H2255     1.0  0.61182  0.69882  0.19964  1.0000
  H   H2256     1.0  0.61810  0.71944  0.24963  1.0000
  C   C1899     1.0  0.61474  0.73965  0.22491  1.0000
  C   C1900     1.0  0.64114  0.85506  0.98281  1.0000
  H   H2257     1.0  0.61444  0.86308  0.28658  1.0000
  C   C1901     1.0  0.62384  0.65706  0.11454  1.0000
  H   H2258     1.0  0.64634  0.69701  0.97612  1.0000
  H   H2259     1.0  0.53612  0.70891  0.02652  1.0000
  H   H2260     1.0  0.72774  0.51715  0.01797  1.0000
  C   C1902     1.0  0.53519  0.71872  0.98112  1.0000
  H   H2261     1.0  0.70251  0.86854  0.28845  1.0000
  H   H2262     1.0  0.61548  0.75963  0.07592  1.0000
  H   H2263     1.0  0.66018  0.63668  0.14858  1.0000
  C   C1903     1.0  0.70345  0.89397  0.11934  1.0000
  N   N126      1.0  0.71033  0.88160  0.15296  1.0000
  C   C1904     1.0  0.69589  0.85685  0.28630  1.0000
  C   C1905     1.0  0.66831  0.67274  0.97172  1.0000
  H   H2264     1.0  0.51298  0.75985  0.01567  1.0000
  H   H2265     1.0  0.66985  0.78343  0.05437  1.0000
  C   C1906     1.0  0.69608  0.71208  0.97985  1.0000
  H   H2266     1.0  0.52875  0.75026  0.03220  1.0000
  C   C1907     1.0  0.63903  0.72763  0.08813  1.0000
  Fe  Fe261     1.0  0.57346  0.76839  0.29148  1.0000
  H   H2267     1.0  0.65679  0.72758  0.03340  1.0000
  C   C1908     1.0  0.52089  0.74628  0.02236  1.0000
  H   H2268     1.0  0.60945  0.75787  0.19875  1.0000
  H   H2269     1.0  0.68718  0.77364  0.02424  1.0000
  H   H2270     1.0  0.69560  0.87013  0.08694  1.0000
  C   C1909     1.0  0.49105  0.82851  0.25351  1.0000
  C   C1910     1.0  0.72707  0.58147  0.09659  1.0000
  H   H2271     1.0  0.64579  0.76576  0.07459  1.0000
  H   H2272     1.0  0.64178  0.59793  0.13542  1.0000
  H   H2273     1.0  0.66426  0.51094  0.12958  1.0000
  H   H2274     1.0  0.49478  0.83777  0.26147  1.0000
  C   C1911     1.0  0.69949  0.89078  0.10242  1.0000
  H   H2275     1.0  0.69287  0.86194  0.17099  1.0000
  C   C1912     1.0  0.48716  0.73993  0.17119  1.0000
  H   H2276     1.0  0.67975  0.94868  0.29782  1.0000
  H   H2277     1.0  0.66712  0.72669  0.98088  1.0000
  C   C1913     1.0  0.50461  0.73532  0.99452  1.0000
  H   H2278     1.0  0.69093  0.86124  0.27239  1.0000
  C   C1914     1.0  0.65646  0.68584  0.98254  1.0000
  H   H2279     1.0  0.48870  0.71480  0.16025  1.0000
  H   H2280     1.0  0.55244  0.72358  0.02872  1.0000
  C   C1915     1.0  0.65495  0.47789  0.17935  1.0000
  H   H2281     1.0  0.65343  0.71873  0.08767  1.0000
  H   H2282     1.0  0.66681  0.62030  0.08961  1.0000
  H   H2283     1.0  0.71643  0.90283  0.16658  1.0000
  H   H2284     1.0  0.69835  0.90233  0.09051  1.0000
  C   C1916     1.0  0.65927  0.73936  0.03890  1.0000
  H   H2285     1.0  0.73019  0.57633  0.20632  1.0000
  C   C1917     1.0  0.69479  0.87699  0.16891  1.0000
  C   C1918     1.0  0.67685  0.76541  0.03326  1.0000
  C   C1919     1.0  0.73040  0.55164  0.22824  1.0000
  C   C1920     1.0  0.73144  0.51341  0.97990  1.0000
  C   C1921     1.0  0.72206  0.56538  0.09255  1.0000
  H   H2286     1.0  0.71838  0.50077  0.24989  1.0000
  H   H2287     1.0  0.60419  0.73942  0.07954  1.0000
  C   C1922     1.0  0.50850  0.74358  0.22686  1.0000
  N   N127      1.0  0.70966  0.83888  0.28725  1.0000
  H   H2288     1.0  0.72131  0.54069  0.00454  1.0000
  H   H2289     1.0  0.61387  0.67848  0.13230  1.0000
  C   C1923     1.0  0.70348  0.86069  0.13255  1.0000
  H   H2290     1.0  0.63873  0.73967  0.09541  1.0000
  H   H2291     1.0  0.49764  0.66831  0.13463  1.0000
  C   C1924     1.0  0.72397  0.67838  0.98114  1.0000
  S   S515      1.0  0.73273  0.57271  0.03481  1.0000
  C   C1925     1.0  0.70475  0.48360  0.22564  1.0000
  S   S516      1.0  0.73306  0.89083  0.20110  1.0000
  C   C1926     1.0  0.65327  0.76070  0.06170  1.0000
  H   H2292     1.0  0.61113  0.75150  0.05589  1.0000
  H   H2293     1.0  0.51940  0.67597  0.15312  1.0000
  C   C1927     1.0  0.66903  0.48951  0.17298  1.0000
  C   C1928     1.0  0.65965  0.49805  0.12839  1.0000
  H   H2294     1.0  0.62200  0.70875  0.07179  1.0000
  H   H2295     1.0  0.71941  0.95228  0.26579  1.0000
  C   C1929     1.0  0.50633  0.67100  0.16037  1.0000
  H   H2296     1.0  0.55465  0.75417  0.00590  1.0000
  S   S517      1.0  0.72684  0.53731  0.16093  1.0000
  C   C1930     1.0  0.70586  0.74826  0.97274  1.0000
  H   H2297     1.0  0.70491  0.84859  0.14379  1.0000
  H   H2298     1.0  0.69982  0.91175  0.15072  1.0000
  C   C1931     1.0  0.73017  0.57680  0.05842  1.0000
  H   H2299     1.0  0.67579  0.75879  0.97406  1.0000
  H   H2300     1.0  0.62705  0.72065  0.04796  1.0000
  C   C1932     1.0  0.54715  0.74895  0.99669  1.0000
  C   C1933     1.0  0.71295  0.90128  0.15287  1.0000
  H   H2301     1.0  0.68593  0.59389  0.13164  1.0000
  H   H2302     1.0  0.55697  0.71170  0.00889  1.0000
  C   C1934     1.0  0.63236  0.71689  0.06174  1.0000
  C   C1935     1.0  0.66841  0.80809  0.97752  1.0000
  H   H2303     1.0  0.72493  0.90545  0.14161  1.0000
  Fe  Fe262     1.0  0.58079  0.80555  0.29934  1.0000
  H   H2304     1.0  0.66590  0.50414  0.17513  1.0000
  H   H2305     1.0  0.68044  0.74560  0.01424  1.0000
  H   H2306     1.0  0.61311  0.66287  0.10559  1.0000
  H   H2307     1.0  0.61475  0.75133  0.23202  1.0000
  S   S518      1.0  0.73113  0.83404  0.02518  1.0000
  S   S519      1.0  0.50967  0.81236  0.30108  1.0000
  H   H2308     1.0  0.70650  0.49823  0.22420  1.0000
  H   H2309     1.0  0.63240  0.50440  0.14588  1.0000
  C   C1936     1.0  0.72613  0.84122  0.27172  1.0000
  C   C1937     1.0  0.70003  0.82346  0.28526  1.0000
  C   C1938     1.0  0.72370  0.56303  0.07357  1.0000
  H   H2310     1.0  0.49743  0.75528  0.28299  1.0000
  C   C1939     1.0  0.50140  0.79978  0.23979  1.0000
  N   N128      1.0  0.53412  0.73598  0.00795  1.0000
  C   C1940     1.0  0.68161  0.65834  0.97990  1.0000
  H   H2311     1.0  0.64324  0.85431  0.99719  1.0000
  C   C1941     1.0  0.69979  0.85763  0.11546  1.0000
  N   N129      1.0  0.66339  0.61428  0.12033  1.0000
  C   C1942     1.0  0.67647  0.60741  0.13436  1.0000
  C   C1943     1.0  0.65194  0.59923  0.12171  1.0000
  C   C1944     1.0  0.67537  0.61675  0.10120  1.0000
  C   C1945     1.0  0.65047  0.63231  0.12340  1.0000
  C   C1946     1.0  0.65061  0.64193  0.13846  1.0000
  C   C1947     1.0  0.63681  0.64053  0.11139  1.0000
  C   C1948     1.0  0.63771  0.65855  0.14134  1.0000
  H   H2312     1.0  0.69319  0.82694  0.27243  1.0000
  H   H2313     1.0  0.72694  0.85355  0.15937  1.0000
  C   C1949     1.0  0.49623  0.73023  0.98108  1.0000
  C   C1950     1.0  0.72751  0.95933  0.25305  1.0000
  C   C1951     1.0  0.49531  0.72021  0.21669  1.0000
  H   H2314     1.0  0.72995  0.93650  0.23764  1.0000
  H   H2315     1.0  0.55049  0.71462  0.97990  1.0000
  H   H2316     1.0  0.49749  0.70967  0.20766  1.0000
  C   C1952     1.0  0.68684  0.48233  0.16326  1.0000
  S   S520      1.0  0.72742  0.89701  0.28786  1.0000
  H   H2317     1.0  0.55830  0.74196  0.98622  1.0000
  C   C1953     1.0  0.50309  0.78033  0.29070  1.0000
  H   H2318     1.0  0.67341  0.86186  0.99422  1.0000
  C   C1954     1.0  0.62072  0.85211  0.29697  1.0000
  C   C1955     1.0  0.50505  0.81298  0.24932  1.0000
  H   H2319     1.0  0.68369  0.49210  0.20724  1.0000
  H   H2320     1.0  0.68297  0.85573  0.29737  1.0000
  H   H2321     1.0  0.68826  0.82080  0.29746  1.0000
  S   S521      1.0  0.59680  0.83053  0.29034  1.0000
  Fe  Fe263     1.0  0.59655  0.74302  0.97300  1.0000
  S   S522      1.0  0.62842  0.74086  0.97064  1.0000
  C   C1956     1.0  0.68683  0.74630  0.97502  1.0000
  H   H2322     1.0  0.72448  0.47681  0.18575  1.0000
  H   H2323     1.0  0.73093  0.90330  0.05331  1.0000
  C   C1957     1.0  0.48466  0.66251  0.18942  1.0000
  C   C1958     1.0  0.63601  0.47730  0.13689  1.0000
  S   S523      1.0  0.67185  0.89757  0.30201  1.0000
  C   C1959     1.0  0.73396  0.54409  0.24674  1.0000
  H   H2324     1.0  0.70955  0.76237  0.97002  1.0000
  H   H2325     1.0  0.71636  0.67762  0.96961  1.0000
  H   H2326     1.0  0.71915  0.65946  0.50761  1.0000
  C   C1960     1.0  0.72233  0.93693  0.46466  1.0000
  H   H2327     1.0  0.64903  0.71527  0.52807  1.0000
  H   H2328     1.0  0.64391  0.86189  0.43439  1.0000
  H   H2329     1.0  0.55390  0.84560  0.37472  1.0000
  S   S524      1.0  0.52875  0.73340  0.59049  1.0000
  H   H2330     1.0  0.73047  0.94333  0.59673  1.0000
  S   S525      1.0  0.64087  0.94596  0.31551  1.0000
  N   N130      1.0  0.67938  0.71487  0.52492  1.0000
  C   C1961     1.0  0.71789  0.67293  0.51231  1.0000
  Fe  Fe264     1.0  0.70304  0.85983  0.49759  1.0000
  C   C1962     1.0  0.51853  0.71350  0.51415  1.0000
  S   S526      1.0  0.67411  0.85164  0.49998  1.0000
  H   H2331     1.0  0.49265  0.70911  0.53247  1.0000
  H   H2332     1.0  0.72765  0.93312  0.43490  1.0000
  H   H2333     1.0  0.66368  0.87165  0.43715  1.0000
  H   H2334     1.0  0.52091  0.78434  0.34767  1.0000
  S   S527      1.0  0.70696  0.88994  0.48554  1.0000
  H   H2335     1.0  0.50734  0.78092  0.33132  1.0000
  Fe  Fe265     1.0  0.64116  0.76412  0.47810  1.0000
  S   S528      1.0  0.62667  0.74403  0.50158  1.0000
  S   S529      1.0  0.66907  0.77276  0.47926  1.0000
  Fe  Fe266     1.0  0.61737  0.75981  0.44912  1.0000
  S   S530      1.0  0.60134  0.73908  0.47041  1.0000
  S   S531      1.0  0.61932  0.76827  0.41699  1.0000
  Fe  Fe267     1.0  0.59950  0.75885  0.49114  1.0000
  S   S532      1.0  0.57168  0.76997  0.50967  1.0000
  Fe  Fe268     1.0  0.62973  0.72598  0.47928  1.0000
  S   S533      1.0  0.64044  0.69422  0.48492  1.0000
  S   S534      1.0  0.61398  0.78060  0.46902  1.0000
  S   S535      1.0  0.64570  0.74507  0.45656  1.0000
  C   C1963     1.0  0.51301  0.74898  0.52506  1.0000
  C   C1964     1.0  0.73156  0.72855  0.47628  1.0000
  H   H2336     1.0  0.54463  0.72098  0.49692  1.0000
  C   C1965     1.0  0.62316  0.82014  0.31470  1.0000
  H   H2337     1.0  0.62296  0.86519  0.37204  1.0000
  C   C1966     1.0  0.65244  0.96559  0.30573  1.0000
  Fe  Fe269     1.0  0.56532  0.77682  0.33234  1.0000
  S   S536      1.0  0.55528  0.80777  0.32256  1.0000
  S   S537      1.0  0.56044  0.76615  0.36426  1.0000
  H   H2338     1.0  0.67864  0.84445  0.45546  1.0000
  H   H2339     1.0  0.53965  0.75243  0.50643  1.0000
  H   H2340     1.0  0.66307  0.70293  0.51011  1.0000
  C   C1967     1.0  0.68845  0.93885  0.47900  1.0000
  Fe  Fe270     1.0  0.68407  0.89589  0.35253  1.0000
  S   S538      1.0  0.65457  0.89650  0.34725  1.0000
  S   S539      1.0  0.68229  0.89539  0.38414  1.0000
  Fe  Fe271     1.0  0.66791  0.87522  0.32813  1.0000
  S   S540      1.0  0.65907  0.84634  0.33210  1.0000
  Fe  Fe272     1.0  0.66144  0.91873  0.32189  1.0000
  S   S541      1.0  0.69712  0.87319  0.33481  1.0000
  S   S542      1.0  0.69007  0.91958  0.32827  1.0000
  H   H2341     1.0  0.58534  0.82199  0.33622  1.0000
  H   H2342     1.0  0.57427  0.80472  0.38799  1.0000
  H   H2343     1.0  0.66203  0.95081  0.35027  1.0000
  C   C1968     1.0  0.64229  0.84199  0.31982  1.0000
  C   C1969     1.0  0.63676  0.82402  0.32394  1.0000
  N   N131      1.0  0.50128  0.76460  0.35939  1.0000
  H   H2344     1.0  0.64297  0.81307  0.33438  1.0000
  C   C1970     1.0  0.61297  0.86296  0.36387  1.0000
  C   C1971     1.0  0.48910  0.74586  0.56406  1.0000
  H   H2345     1.0  0.69046  0.74032  0.51016  1.0000
  H   H2346     1.0  0.71864  0.55111  0.55620  1.0000
  H   H2347     1.0  0.66186  0.72902  0.54740  1.0000
  H   H2348     1.0  0.57776  0.82562  0.39523  1.0000
  H   H2349     1.0  0.50011  0.75336  0.38924  1.0000
  C   C1972     1.0  0.60298  0.76644  0.40283  1.0000
  C   C1973     1.0  0.60861  0.76918  0.38300  1.0000
  C   C1974     1.0  0.59593  0.76855  0.37105  1.0000
  C   C1975     1.0  0.57735  0.76548  0.37882  1.0000
  C   C1976     1.0  0.57185  0.76232  0.39868  1.0000
  C   C1977     1.0  0.58462  0.76274  0.41066  1.0000
  H   H2350     1.0  0.62285  0.77191  0.37681  1.0000
  H   H2351     1.0  0.60047  0.77064  0.35580  1.0000
  H   H2352     1.0  0.55754  0.75981  0.40484  1.0000
  H   H2353     1.0  0.58013  0.76060  0.42592  1.0000
  C   C1978     1.0  0.66511  0.68569  0.47905  1.0000
  C   C1979     1.0  0.67213  0.66622  0.48368  1.0000
  C   C1980     1.0  0.69174  0.65916  0.47923  1.0000
  C   C1981     1.0  0.70439  0.67158  0.46998  1.0000
  C   C1982     1.0  0.69738  0.69104  0.46555  1.0000
  C   C1983     1.0  0.67787  0.69808  0.47016  1.0000
  H   H2354     1.0  0.66237  0.65655  0.49070  1.0000
  H   H2355     1.0  0.69702  0.64413  0.48271  1.0000
  H   H2356     1.0  0.70706  0.70069  0.45829  1.0000
  H   H2357     1.0  0.67277  0.71308  0.46669  1.0000
  H   H2358     1.0  0.64408  0.79206  0.42465  1.0000
  C   C1984     1.0  0.70725  0.89183  0.42975  1.0000
  C   C1985     1.0  0.69398  0.89464  0.41751  1.0000
  C   C1986     1.0  0.69996  0.89373  0.39812  1.0000
  C   C1987     1.0  0.52909  0.74321  0.51207  1.0000
  H   H2359     1.0  0.69761  0.85436  0.42611  1.0000
  H   H2360     1.0  0.70237  0.89227  0.44470  1.0000
  H   H2361     1.0  0.67894  0.89750  0.42314  1.0000
  H   H2362     1.0  0.57846  0.80290  0.35413  1.0000
  C   C1988     1.0  0.50229  0.71917  0.52708  1.0000
  C   C1989     1.0  0.67275  0.82897  0.49590  1.0000
  C   C1990     1.0  0.68922  0.81610  0.49091  1.0000
  C   C1991     1.0  0.68781  0.79877  0.48620  1.0000
  C   C1992     1.0  0.66995  0.79415  0.48645  1.0000
  C   C1993     1.0  0.65343  0.80679  0.49184  1.0000
  C   C1994     1.0  0.65485  0.82416  0.49660  1.0000
  H   H2363     1.0  0.70305  0.81959  0.49048  1.0000
  H   H2364     1.0  0.70062  0.78905  0.48207  1.0000
  H   H2365     1.0  0.63958  0.80332  0.49217  1.0000
  H   H2366     1.0  0.64205  0.83404  0.50053  1.0000
  H   H2367     1.0  0.70364  0.94108  0.55011  1.0000
  C   C1995     1.0  0.69074  0.84665  0.41841  1.0000
  C   C1996     1.0  0.64743  0.81176  0.39843  1.0000
  Fe  Fe273     1.0  0.50086  0.74497  0.60869  1.0000
  C   C1997     1.0  0.54082  0.74408  0.56829  1.0000
  C   C1998     1.0  0.55650  0.73313  0.55845  1.0000
  C   C1999     1.0  0.56638  0.74089  0.54072  1.0000
  C   C2000     1.0  0.56064  0.75975  0.53257  1.0000
  C   C2001     1.0  0.54500  0.77072  0.54244  1.0000
  C   C2002     1.0  0.53521  0.76301  0.56022  1.0000
  H   H2368     1.0  0.56101  0.71850  0.56456  1.0000
  H   H2369     1.0  0.57829  0.73221  0.53329  1.0000
  H   H2370     1.0  0.54047  0.78535  0.53631  1.0000
  H   H2371     1.0  0.52345  0.77176  0.56774  1.0000
  C   C2003     1.0  0.70008  0.68449  0.51542  1.0000
  C   C2004     1.0  0.65904  0.86320  0.42838  1.0000
  Fe  Fe274     1.0  0.54005  0.79840  0.30328  1.0000
  C   C2005     1.0  0.65362  0.82867  0.38915  1.0000
  H   H2372     1.0  0.60638  0.83823  0.38286  1.0000
  C   C2006     1.0  0.69802  0.70228  0.52140  1.0000
  S   S543      1.0  0.72950  0.84686  0.47982  1.0000
  C   C2007     1.0  0.71901  0.93777  0.54838  1.0000
  H   H2373     1.0  0.51185  0.76263  0.52921  1.0000
  C   C2008     1.0  0.63444  0.85595  0.30609  1.0000
  C   C2009     1.0  0.60335  0.84743  0.36988  1.0000
  H   H2374     1.0  0.66535  0.74212  0.51234  1.0000
  H   H2375     1.0  0.60203  0.80845  0.35084  1.0000
  H   H2376     1.0  0.68161  0.82138  0.44944  1.0000
  H   H2377     1.0  0.68644  0.72980  0.54472  1.0000
  C   C2010     1.0  0.73270  0.90570  0.59980  1.0000
  H   H2378     1.0  0.57942  0.85481  0.33259  1.0000
  C   C2011     1.0  0.66130  0.83912  0.39891  1.0000
  C   C2012     1.0  0.71442  0.90374  0.59717  1.0000
  S   S544      1.0  0.71707  0.85897  0.52246  1.0000
  C   C2013     1.0  0.49905  0.73718  0.53294  1.0000
  Fe  Fe275     1.0  0.70027  0.89695  0.30980  1.0000
  H   H2379     1.0  0.72655  0.87887  0.56055  1.0000
  H   H2380     1.0  0.49436  0.77908  0.38354  1.0000
  H   H2381     1.0  0.49788  0.73251  0.57016  1.0000
  C   C2014     1.0  0.50662  0.78188  0.34643  1.0000
  C   C2015     1.0  0.67633  0.72058  0.54387  1.0000
  H   H2382     1.0  0.69490  0.93213  0.43335  1.0000
  N   N132      1.0  0.63955  0.70244  0.42060  1.0000
  C   C2016     1.0  0.63023  0.69138  0.41134  1.0000
  C   C2017     1.0  0.62809  0.70457  0.43956  1.0000
  C   C2018     1.0  0.63912  0.72173  0.40899  1.0000
  C   C2019     1.0  0.65902  0.69233  0.42276  1.0000
  C   C2020     1.0  0.67562  0.70067  0.41498  1.0000
  C   C2021     1.0  0.66179  0.67353  0.43304  1.0000
  C   C2022     1.0  0.69378  0.69055  0.41713  1.0000
  C   C2023     1.0  0.68001  0.66354  0.43501  1.0000
  C   C2024     1.0  0.69597  0.67200  0.42701  1.0000
  H   H2383     1.0  0.62807  0.67739  0.42015  1.0000
  H   H2384     1.0  0.61585  0.69901  0.40873  1.0000
  H   H2385     1.0  0.63893  0.68867  0.39741  1.0000
  H   H2386     1.0  0.62630  0.69072  0.44885  1.0000
  H   H2387     1.0  0.61355  0.71279  0.43860  1.0000
  H   H2388     1.0  0.63510  0.71217  0.44719  1.0000
  H   H2389     1.0  0.62431  0.72886  0.40750  1.0000
  H   H2390     1.0  0.64491  0.73125  0.41570  1.0000
  H   H2391     1.0  0.64720  0.72129  0.39435  1.0000
  H   H2392     1.0  0.67498  0.71503  0.40734  1.0000
  H   H2393     1.0  0.64985  0.66649  0.43994  1.0000
  H   H2394     1.0  0.70626  0.69719  0.41137  1.0000
  H   H2395     1.0  0.68178  0.64932  0.44323  1.0000
  H   H2396     1.0  0.71005  0.66434  0.42898  1.0000
  H   H2397     1.0  0.69275  0.96046  0.33420  1.0000
  H   H2398     1.0  0.71467  0.72153  0.52728  1.0000
  H   H2399     1.0  0.66260  0.69237  0.53482  1.0000
  C   C2025     1.0  0.59775  0.87248  0.33627  1.0000
  C   C2026     1.0  0.55929  0.83462  0.36543  1.0000
  S   S545      1.0  0.54799  0.76757  0.31476  1.0000
  H   H2400     1.0  0.69095  0.85505  0.40386  1.0000
  H   H2401     1.0  0.70159  0.90993  0.60568  1.0000
  H   H2402     1.0  0.66950  0.93540  0.46138  1.0000
  C   C2027     1.0  0.66313  0.83282  0.41829  1.0000
  H   H2403     1.0  0.65257  0.83368  0.37428  1.0000
  H   H2404     1.0  0.68818  0.67918  0.51286  1.0000
  C   C2028     1.0  0.72584  0.90689  0.63357  1.0000
  H   H2405     1.0  0.49609  0.79478  0.34930  1.0000
  H   H2406     1.0  0.70000  0.83266  0.41717  1.0000
  H   H2407     1.0  0.72563  0.94421  0.62169  1.0000
  C   C2029     1.0  0.65668  0.81549  0.42733  1.0000
  H   H2408     1.0  0.66582  0.85223  0.39115  1.0000
  C   C2030     1.0  0.73283  0.88868  0.40302  1.0000
  C   C2031     1.0  0.68403  0.93618  0.46217  1.0000
  S   S546      1.0  0.59190  0.77489  0.31016  1.0000
  H   H2409     1.0  0.67783  0.70789  0.55523  1.0000
  H   H2410     1.0  0.51092  0.73439  0.36263  1.0000
  H   H2411     1.0  0.48841  0.76063  0.32778  1.0000
  H   H2412     1.0  0.61774  0.88736  0.34243  1.0000
  H   H2413     1.0  0.49798  0.75717  0.56101  1.0000
  Fe  Fe276     1.0  0.72348  0.88812  0.50907  1.0000
  H   H2414     1.0  0.69824  0.89324  0.58103  1.0000
  H   H2415     1.0  0.52090  0.69962  0.51007  1.0000
  C   C2032     1.0  0.53191  0.72548  0.50670  1.0000
  N   N133      1.0  0.58003  0.82779  0.36493  1.0000
  C   C2033     1.0  0.72661  0.74790  0.47698  1.0000
  C   C2034     1.0  0.72880  0.94730  0.55732  1.0000
  S   S547      1.0  0.72894  0.66354  0.46313  1.0000
  H   H2416     1.0  0.70219  0.83228  0.31784  1.0000
  H   H2417     1.0  0.73124  0.59633  0.39012  1.0000
  H   H2418     1.0  0.51845  0.76727  0.37929  1.0000
  C   C2035     1.0  0.67911  0.73216  0.51019  1.0000
  H   H2419     1.0  0.68107  0.72858  0.49571  1.0000
  C   C2036     1.0  0.71497  0.70791  0.52349  1.0000
  C   C2037     1.0  0.71231  0.89409  0.58323  1.0000
  C   C2038     1.0  0.58675  0.81474  0.35094  1.0000
  C   C2039     1.0  0.66291  0.70588  0.52449  1.0000
  C   C2040     1.0  0.58258  0.81663  0.38395  1.0000
  H   H2420     1.0  0.65740  0.80949  0.44205  1.0000
  H   H2421     1.0  0.59600  0.88193  0.32298  1.0000
  N   N134      1.0  0.67118  0.84424  0.42829  1.0000
  C   C2041     1.0  0.59049  0.84404  0.35913  1.0000
  H   H2422     1.0  0.59770  0.80985  0.38432  1.0000
  H   H2423     1.0  0.65806  0.83422  0.45689  1.0000
  H   H2424     1.0  0.55093  0.82282  0.37085  1.0000
  H   H2425     1.0  0.63539  0.97452  0.36232  1.0000
  C   C2042     1.0  0.64894  0.80522  0.41746  1.0000
  H   H2426     1.0  0.55578  0.84087  0.35110  1.0000
  C   C2043     1.0  0.67240  0.83560  0.44834  1.0000
  H   H2427     1.0  0.51575  0.74664  0.33868  1.0000
  H   H2428     1.0  0.65945  0.87183  0.41390  1.0000
  H   H2429     1.0  0.71229  0.75516  0.47532  1.0000
  C   C2044     1.0  0.69834  0.93430  0.44643  1.0000
  C   C2045     1.0  0.71948  0.89078  0.39086  1.0000
  H   H2430     1.0  0.64148  0.80362  0.39091  1.0000
  H   H2431     1.0  0.72968  0.55321  0.49292  1.0000
  S   S548      1.0  0.71559  0.91237  0.52656  1.0000
  C   C2046     1.0  0.68125  0.97093  0.33977  1.0000
  C   C2047     1.0  0.58824  0.85691  0.34199  1.0000
  C   C2048     1.0  0.70724  0.93943  0.48025  1.0000
  C   C2049     1.0  0.51495  0.74778  0.35379  1.0000
  H   H2432     1.0  0.70956  0.94145  0.49378  1.0000
  S   S549      1.0  0.73327  0.57593  0.52281  1.0000
  H   H2433     1.0  0.72549  0.82101  0.30812  1.0000
  H   H2434     1.0  0.72527  0.52483  0.48270  1.0000
  C   C2050     1.0  0.72827  0.88591  0.57168  1.0000
  C   C2051     1.0  0.61009  0.87549  0.34717  1.0000
  H   H2435     1.0  0.67734  0.94010  0.49133  1.0000
  C   C2052     1.0  0.50350  0.76614  0.37877  1.0000
  H   H2436     1.0  0.52974  0.74835  0.35537  1.0000
  H   H2437     1.0  0.70893  0.93687  0.61121  1.0000
  H   H2438     1.0  0.72068  0.84605  0.30972  1.0000
  H   H2439     1.0  0.61910  0.80623  0.31782  1.0000
  C   C2053     1.0  0.71719  0.93475  0.44755  1.0000
  C   C2054     1.0  0.72440  0.93594  0.61089  1.0000
  H   H2440     1.0  0.72116  0.72075  0.47422  1.0000
  C   C2055     1.0  0.72888  0.92398  0.53729  1.0000
  H   H2441     1.0  0.73010  0.52473  0.51286  1.0000
  C   C2056     1.0  0.66394  0.96545  0.34883  1.0000
  C   C2057     1.0  0.73269  0.69612  0.52054  1.0000
  H   H2442     1.0  0.72094  0.95796  0.56563  1.0000
  C   C2058     1.0  0.71486  0.83428  0.30652  1.0000
  C   C2059     1.0  0.72676  0.88896  0.42256  1.0000
  H   H2443     1.0  0.72429  0.89010  0.37593  1.0000
  H   H2444     1.0  0.71032  0.90722  0.63472  1.0000
  H   H2445     1.0  0.63866  0.86980  0.30273  1.0000
  C   C2060     1.0  0.73413  0.67866  0.51497  1.0000
  C   C2061     1.0  0.73399  0.54713  0.55377  1.0000
  H   H2446     1.0  0.73415  0.52439  0.57805  1.0000
  H   H2447     1.0  0.73401  0.53407  0.45864  1.0000
  H   H2448     1.0  0.61250  0.49163  0.83514  1.0000
  H   H2449     1.0  0.65887  0.49409  0.78710  1.0000
  C   C2062     1.0  0.51033  0.82558  0.83451  1.0000
  C   C2063     1.0  0.50831  0.80392  0.79802  1.0000
  H   H2450     1.0  0.70020  0.59999  0.88963  1.0000
  N   N135      1.0  0.50654  0.69191  0.72557  1.0000
  S   S550      1.0  0.58355  0.93852  0.75557  1.0000
  H   H2451     1.0  0.62169  0.50513  0.80141  1.0000
  H   H2452     1.0  0.61064  0.94270  0.65467  1.0000
  C   C2064     1.0  0.67265  0.61656  0.89191  1.0000
  C   C2065     1.0  0.49763  0.79267  0.81258  1.0000
  H   H2453     1.0  0.72475  0.63767  0.90162  1.0000
  C   C2066     1.0  0.52708  0.73818  0.71134  1.0000
  H   H2454     1.0  0.59396  0.91074  0.71479  1.0000
  H   H2455     1.0  0.62537  0.92607  0.66961  1.0000
  S   S551      1.0  0.58525  0.73448  0.94923  1.0000
  N   N136      1.0  0.49105  0.79099  0.74658  1.0000
  C   C2067     1.0  0.71232  0.60215  0.93716  1.0000
  S   S552      1.0  0.51462  0.72944  0.86471  1.0000
  Fe  Fe277     1.0  0.49747  0.73813  0.89188  1.0000
  S   S553      1.0  0.50744  0.74610  0.91675  1.0000
  C   C2068     1.0  0.50985  0.71134  0.71649  1.0000
  H   H2456     1.0  0.59464  0.52406  0.68441  1.0000
  S   S554      1.0  0.50995  0.62779  0.75162  1.0000
  C   C2069     1.0  0.50675  0.77771  0.73725  1.0000
  H   H2457     1.0  0.53794  0.55091  0.71464  1.0000
  Fe  Fe278     1.0  0.51008  0.59836  0.76871  1.0000
  S   S555      1.0  0.53918  0.58099  0.77294  1.0000
  H   H2458     1.0  0.65534  0.90174  0.94700  1.0000
  S   S556      1.0  0.50957  0.77173  0.82479  1.0000
  Fe  Fe279     1.0  0.50657  0.88712  0.72340  1.0000
  S   S557      1.0  0.52283  0.91209  0.71846  1.0000
  S   S558      1.0  0.51829  0.82533  0.69612  1.0000
  S   S559      1.0  0.51337  0.85609  0.73631  1.0000
  H   H2459     1.0  0.69047  0.48907  0.76490  1.0000
  Fe  Fe280     1.0  0.48703  0.62174  0.73863  1.0000
  H   H2460     1.0  0.50184  0.68465  0.69981  1.0000
  C   C2070     1.0  0.72979  0.93660  0.91468  1.0000
  H   H2461     1.0  0.61931  0.92641  0.70446  1.0000
  S   S560      1.0  0.56929  0.49587  0.75849  1.0000
  H   H2462     1.0  0.73093  0.60554  0.89033  1.0000
  H   H2463     1.0  0.73051  0.47608  0.68612  1.0000
  S   S561      1.0  0.62308  0.49338  0.76354  1.0000
  C   C2071     1.0  0.58514  0.51642  0.81808  1.0000
  H   H2464     1.0  0.70455  0.49446  0.65847  1.0000
  S   S562      1.0  0.70212  0.50960  0.82296  1.0000
  H   H2465     1.0  0.59615  0.97199  0.68203  1.0000
  C   C2072     1.0  0.68761  0.96342  0.68164  1.0000
  C   C2073     1.0  0.67787  0.50094  0.80298  1.0000
  C   C2074     1.0  0.68463  0.49723  0.82028  1.0000
  H   H2466     1.0  0.59841  0.94147  0.71476  1.0000
  H   H2467     1.0  0.68352  0.51128  0.79147  1.0000
  H   H2468     1.0  0.58967  0.54131  0.84026  1.0000
  H   H2469     1.0  0.52360  0.79974  0.79471  1.0000
  C   C2075     1.0  0.51835  0.68289  0.74041  1.0000
  H   H2470     1.0  0.68228  0.87622  0.94152  1.0000
  H   H2471     1.0  0.66727  0.67390  0.95695  1.0000
  C   C2076     1.0  0.50493  0.81896  0.68152  1.0000
  H   H2472     1.0  0.56083  0.78436  0.87240  1.0000
  C   C2077     1.0  0.55186  0.57086  0.72216  1.0000
  C   C2078     1.0  0.64680  0.86592  0.94882  1.0000
  S   S563      1.0  0.48798  0.60863  0.79270  1.0000
  C   C2079     1.0  0.54723  0.55731  0.76888  1.0000
  C   C2080     1.0  0.56631  0.54906  0.76983  1.0000
  C   C2081     1.0  0.57332  0.53032  0.76658  1.0000
  C   C2082     1.0  0.56128  0.51964  0.76235  1.0000
  C   C2083     1.0  0.54222  0.52790  0.76138  1.0000
  C   C2084     1.0  0.53519  0.54663  0.76466  1.0000
  H   H2473     1.0  0.57568  0.55722  0.77314  1.0000
  H   H2474     1.0  0.58793  0.52409  0.76763  1.0000
  H   H2475     1.0  0.53279  0.51972  0.75817  1.0000
  H   H2476     1.0  0.52049  0.55280  0.76391  1.0000
  H   H2477     1.0  0.72749  0.56230  0.95327  1.0000
  C   C2085     1.0  0.49938  0.82069  0.78786  1.0000
  H   H2478     1.0  0.53277  0.71311  0.73120  1.0000
  H   H2479     1.0  0.50778  0.82935  0.77681  1.0000
  H   H2480     1.0  0.53813  0.74444  0.71450  1.0000
  H   H2481     1.0  0.61791  0.95152  0.69999  1.0000
  H   H2482     1.0  0.55684  0.88806  0.69074  1.0000
  C   C2086     1.0  0.56620  0.89830  0.68929  1.0000
  S   S564      1.0  0.62956  0.95981  0.73313  1.0000
  H   H2483     1.0  0.51901  0.76204  0.69010  1.0000
  C   C2087     1.0  0.63488  0.85400  0.94659  1.0000
  C   C2088     1.0  0.56392  0.73912  0.93929  1.0000
  C   C2089     1.0  0.56269  0.72858  0.92554  1.0000
  C   C2090     1.0  0.54581  0.73093  0.91798  1.0000
  C   C2091     1.0  0.52978  0.74376  0.92424  1.0000
  C   C2092     1.0  0.53118  0.75472  0.93756  1.0000
  C   C2093     1.0  0.54817  0.75257  0.94489  1.0000
  H   H2484     1.0  0.57481  0.71822  0.92096  1.0000
  H   H2485     1.0  0.54502  0.72237  0.90777  1.0000
  H   H2486     1.0  0.51892  0.76472  0.94252  1.0000
  Fe  Fe281     1.0  0.59911  0.47966  0.76083  1.0000
  C   C2094     1.0  0.51635  0.74815  0.69759  1.0000
  H   H2487     1.0  0.49376  0.64054  0.81575  1.0000
  C   C2095     1.0  0.51096  0.67954  0.71090  1.0000
  C   C2096     1.0  0.69603  0.61820  0.91124  1.0000
  Fe  Fe282     1.0  0.49235  0.71158  0.86586  1.0000
  C   C2097     1.0  0.55161  0.52551  0.81394  1.0000
  C   C2098     1.0  0.71370  0.94219  0.81182  1.0000
  H   H2488     1.0  0.70109  0.92447  0.83644  1.0000
  H   H2489     1.0  0.56915  0.58751  0.72998  1.0000
  C   C2099     1.0  0.68206  0.63172  0.92021  1.0000
  H   H2490     1.0  0.50871  0.66471  0.71708  1.0000
  H   H2491     1.0  0.51515  0.66849  0.74716  1.0000
  C   C2100     1.0  0.71236  0.94493  0.92419  1.0000
  C   C2101     1.0  0.70505  0.93658  0.94277  1.0000
  C   C2102     1.0  0.71499  0.91978  0.95198  1.0000
  H   H2492     1.0  0.68485  0.63774  0.93153  1.0000
  H   H2493     1.0  0.59675  0.55116  0.81551  1.0000
  H   H2494     1.0  0.70449  0.95776  0.91723  1.0000
  H   H2495     1.0  0.69158  0.94315  0.95004  1.0000
  H   H2496     1.0  0.63146  0.52304  0.80750  1.0000
  C   C2103     1.0  0.69625  0.96656  0.66253  1.0000
  C   C2104     1.0  0.56591  0.93173  0.74578  1.0000
  C   C2105     1.0  0.55751  0.94358  0.73105  1.0000
  C   C2106     1.0  0.54424  0.93737  0.72308  1.0000
  C   C2107     1.0  0.53887  0.91938  0.72993  1.0000
  C   C2108     1.0  0.54694  0.90768  0.74498  1.0000
  C   C2109     1.0  0.56044  0.91380  0.75277  1.0000
  H   H2497     1.0  0.56114  0.95758  0.72592  1.0000
  H   H2498     1.0  0.53803  0.94658  0.71152  1.0000
  H   H2499     1.0  0.54300  0.89382  0.75040  1.0000
  H   H2500     1.0  0.56674  0.90455  0.76424  1.0000
  C   C2110     1.0  0.49920  0.72196  0.70238  1.0000
  H   H2501     1.0  0.51867  0.77305  0.74547  1.0000
  C   C2111     1.0  0.71401  0.92973  0.82901  1.0000
  H   H2502     1.0  0.57570  0.96130  0.69366  1.0000
  Fe  Fe283     1.0  0.72747  0.97336  0.87264  1.0000
  H   H2503     1.0  0.69619  0.95672  0.69243  1.0000
  N   N137      1.0  0.60052  0.94140  0.68485  1.0000
  C   C2112     1.0  0.58830  0.96036  0.68209  1.0000
  C   C2113     1.0  0.60938  0.94004  0.70178  1.0000
  H   H2504     1.0  0.53383  0.68097  0.73444  1.0000
  C   C2114     1.0  0.58905  0.92633  0.68656  1.0000
  C   C2115     1.0  0.57905  0.92615  0.67183  1.0000
  C   C2116     1.0  0.58735  0.91160  0.70262  1.0000
  Fe  Fe284     1.0  0.59814  0.96472  0.74522  1.0000
  C   C2117     1.0  0.66393  0.49124  0.80049  1.0000
  C   C2118     1.0  0.60928  0.50634  0.83825  1.0000
  C   C2119     1.0  0.65937  0.63002  0.90087  1.0000
  H   H2505     1.0  0.71435  0.47684  0.78606  1.0000
  H   H2506     1.0  0.49811  0.65116  0.66951  1.0000
  S   S565      1.0  0.48869  0.62942  0.70679  1.0000
  H   H2507     1.0  0.50082  0.71610  0.95693  1.0000
  C   C2120     1.0  0.50235  0.74011  0.69322  1.0000
  C   C2121     1.0  0.69411  0.48691  0.66813  1.0000
  H   H2508     1.0  0.58291  0.96363  0.66844  1.0000
  H   H2509     1.0  0.48821  0.81833  0.75475  1.0000
  H   H2510     1.0  0.65328  0.87442  0.93615  1.0000
  C   C2122     1.0  0.61610  0.94027  0.66824  1.0000
  C   C2123     1.0  0.61797  0.51957  0.80519  1.0000
  C   C2124     1.0  0.49892  0.80792  0.74737  1.0000
  H   H2511     1.0  0.57448  0.88708  0.71645  1.0000
  H   H2512     1.0  0.61419  0.54219  0.83056  1.0000
  H   H2513     1.0  0.51510  0.78275  0.90309  1.0000
  H   H2514     1.0  0.51144  0.80415  0.75476  1.0000
  Fe  Fe285     1.0  0.50358  0.85016  0.71098  1.0000
  C   C2125     1.0  0.51169  0.80245  0.67343  1.0000
  H   H2515     1.0  0.54230  0.76933  0.85632  1.0000
  H   H2516     1.0  0.51185  0.80765  0.89367  1.0000
  C   C2126     1.0  0.68417  0.49397  0.68458  1.0000
  C   C2127     1.0  0.53031  0.77204  0.86819  1.0000
  C   C2128     1.0  0.56770  0.91240  0.67331  1.0000
  H   H2517     1.0  0.71617  0.63820  0.92646  1.0000
  C   C2129     1.0  0.52871  0.80598  0.85839  1.0000
  H   H2518     1.0  0.54898  0.76117  0.95500  1.0000
  H   H2519     1.0  0.66644  0.90823  0.96381  1.0000
  H   H2520     1.0  0.69367  0.88124  0.95876  1.0000
  H   H2521     1.0  0.61338  0.52952  0.79259  1.0000
  H   H2522     1.0  0.63458  0.52805  0.70573  1.0000
  C   C2130     1.0  0.67064  0.48429  0.69727  1.0000
  H   H2523     1.0  0.63259  0.85331  0.93256  1.0000
  H   H2524     1.0  0.50006  0.79191  0.88595  1.0000
  H   H2525     1.0  0.62530  0.95118  0.66680  1.0000
  C   C2131     1.0  0.58494  0.49862  0.81311  1.0000
  C   C2132     1.0  0.54310  0.81744  0.85101  1.0000
  H   H2526     1.0  0.55612  0.81508  0.85667  1.0000
  H   H2527     1.0  0.56729  0.52908  0.70627  1.0000
  C   C2133     1.0  0.52388  0.72007  0.72079  1.0000
  Fe  Fe286     1.0  0.73059  0.50557  0.88305  1.0000
  H   H2528     1.0  0.55217  0.84098  0.83029  1.0000
  H   H2529     1.0  0.52600  0.67894  0.70350  1.0000
  C   C2134     1.0  0.56858  0.49453  0.80867  1.0000
  C   C2135     1.0  0.56791  0.52981  0.81836  1.0000
  H   H2530     1.0  0.51708  0.77210  0.86287  1.0000
  S   S566      1.0  0.49755  0.74778  0.63966  1.0000
  S   S567      1.0  0.70485  0.49490  0.87890  1.0000
  C   C2136     1.0  0.72840  0.59899  0.90558  1.0000
  H   H2531     1.0  0.62122  0.53918  0.72500  1.0000
  H   H2532     1.0  0.49147  0.70664  0.82488  1.0000
  H   H2533     1.0  0.61984  0.52080  0.68263  1.0000
  H   H2534     1.0  0.62361  0.55234  0.70090  1.0000
  H   H2535     1.0  0.60646  0.54438  0.67767  1.0000
  H   H2536     1.0  0.72964  0.95951  0.78932  1.0000
  C   C2137     1.0  0.69072  0.61063  0.89698  1.0000
  C   C2138     1.0  0.51233  0.81045  0.84956  1.0000
  H   H2537     1.0  0.55965  0.91286  0.66222  1.0000
  C   C2139     1.0  0.55149  0.55435  0.71558  1.0000
  C   C2140     1.0  0.55195  0.50793  0.80911  1.0000
  H   H2538     1.0  0.59126  0.50687  0.71708  1.0000
  C   C2141     1.0  0.54773  0.78773  0.88291  1.0000
  H   H2539     1.0  0.71455  0.48867  0.70321  1.0000
  H   H2540     1.0  0.61639  0.50327  0.71646  1.0000
  Fe  Fe287     1.0  0.49479  0.75294  0.84984  1.0000
  H   H2541     1.0  0.70061  0.94659  0.80599  1.0000
  S   S568      1.0  0.72350  0.52523  0.90550  1.0000
  H   H2542     1.0  0.50361  0.81551  0.73293  1.0000
  C   C2142     1.0  0.65634  0.47814  0.81548  1.0000
  H   H2543     1.0  0.72621  0.59725  0.94220  1.0000
  H   H2544     1.0  0.53950  0.50491  0.80504  1.0000
  H   H2545     1.0  0.52532  0.79408  0.67579  1.0000
  S   S569      1.0  0.65977  0.49293  0.71847  1.0000
  H   H2546     1.0  0.50099  0.80209  0.85406  1.0000
  C   C2143     1.0  0.66405  0.63755  0.91503  1.0000
  H   H2547     1.0  0.59894  0.56666  0.72162  1.0000
  C   C2144     1.0  0.57617  0.89778  0.70379  1.0000
  C   C2145     1.0  0.51361  0.79329  0.88991  1.0000
  H   H2548     1.0  0.68218  0.48113  0.84861  1.0000
  H   H2549     1.0  0.53880  0.53614  0.81361  1.0000
  N   N138      1.0  0.53023  0.79009  0.87457  1.0000
  H   H2550     1.0  0.56665  0.54387  0.82154  1.0000
  C   C2146     1.0  0.50106  0.79696  0.66200  1.0000
  H   H2551     1.0  0.71150  0.54442  0.93750  1.0000
  H   H2552     1.0  0.65364  0.64787  0.92217  1.0000
  N   N139      1.0  0.60284  0.52056  0.82219  1.0000
  C   C2147     1.0  0.60067  0.53966  0.82735  1.0000
  H   H2553     1.0  0.52313  0.84807  0.81574  1.0000
  H   H2554     1.0  0.54823  0.77570  0.89511  1.0000
  C   C2148     1.0  0.49523  0.67722  0.83786  1.0000
  H   H2555     1.0  0.68714  0.50691  0.68755  1.0000
  Fe  Fe288     1.0  0.71762  0.49799  0.84796  1.0000
  S   S570      1.0  0.49799  0.68132  0.86011  1.0000
  H   H2556     1.0  0.50641  0.78431  0.65569  1.0000
  C   C2149     1.0  0.56913  0.57497  0.72415  1.0000
  H   H2557     1.0  0.59755  0.48781  0.81229  1.0000
  C   C2150     1.0  0.68286  0.87319  0.95693  1.0000
  H   H2558     1.0  0.57964  0.93685  0.65920  1.0000
  H   H2559     1.0  0.59820  0.50646  0.85127  1.0000
  H   H2560     1.0  0.53867  0.58019  0.72638  1.0000
  H   H2561     1.0  0.51309  0.78466  0.72290  1.0000
  C   C2151     1.0  0.52467  0.83651  0.82759  1.0000
  Fe  Fe289     1.0  0.48625  0.63743  0.77435  1.0000
  H   H2562     1.0  0.70330  0.61140  0.94708  1.0000
  C   C2152     1.0  0.49327  0.65496  0.81768  1.0000
  S   S571      1.0  0.49929  0.88070  0.69697  1.0000
  H   H2563     1.0  0.60023  0.51459  0.73463  1.0000
  C   C2153     1.0  0.72604  0.54641  0.93178  1.0000
  N   N140      1.0  0.60402  0.53236  0.70734  1.0000
  C   C2154     1.0  0.62154  0.53839  0.70987  1.0000
  C   C2155     1.0  0.60293  0.51348  0.71933  1.0000
  C   C2156     1.0  0.60631  0.53034  0.68715  1.0000
  C   C2157     1.0  0.58631  0.54575  0.71253  1.0000
  C   C2158     1.0  0.58617  0.56269  0.71942  1.0000
  C   C2159     1.0  0.56840  0.54192  0.71087  1.0000
  H   H2564     1.0  0.50168  0.76473  0.73590  1.0000
  C   C2160     1.0  0.72397  0.62890  0.91605  1.0000
  N   N141      1.0  0.71489  0.61210  0.91724  1.0000
  H   H2565     1.0  0.64535  0.63452  0.89695  1.0000
  H   H2566     1.0  0.51543  0.69121  0.75221  1.0000
  H   H2567     1.0  0.54841  0.80065  0.88846  1.0000
  C   C2161     1.0  0.48630  0.69238  0.73476  1.0000
  H   H2568     1.0  0.72962  0.91535  0.85063  1.0000
  C   C2162     1.0  0.62616  0.84264  0.96237  1.0000
  C   C2163     1.0  0.70747  0.47637  0.74147  1.0000
  H   H2569     1.0  0.53152  0.75966  0.87994  1.0000
  H   H2570     1.0  0.62267  0.50894  0.84167  1.0000
  H   H2571     1.0  0.49893  0.64681  0.84641  1.0000
  S   S572      1.0  0.72098  0.95979  0.65640  1.0000
  S   S573      1.0  0.72047  0.97097  0.84478  1.0000
  H   H2572     1.0  0.49409  0.74782  0.68239  1.0000
  C   C2164     1.0  0.73062  0.92459  0.83702  1.0000
  C   C2165     1.0  0.66794  0.96919  0.68690  1.0000
  C   C2166     1.0  0.65062  0.86655  0.96697  1.0000
  C   C2167     1.0  0.65672  0.89882  0.96224  1.0000
  S   S574      1.0  0.48886  0.59144  0.75386  1.0000
  H   H2573     1.0  0.56891  0.48109  0.80431  1.0000
  H   H2574     1.0  0.72736  0.91420  0.64507  1.0000
  H   H2575     1.0  0.70529  0.58959  0.93873  1.0000
  C   C2168     1.0  0.54102  0.83245  0.83581  1.0000
  H   H2576     1.0  0.66887  0.61057  0.88104  1.0000
  H   H2577     1.0  0.49769  0.82865  0.82798  1.0000
  H   H2578     1.0  0.69650  0.48210  0.73286  1.0000
  C   C2169     1.0  0.67716  0.48400  0.83518  1.0000
  H   H2579     1.0  0.72327  0.58529  0.90697  1.0000
  H   H2580     1.0  0.61740  0.83293  0.96061  1.0000
  H   H2581     1.0  0.48624  0.70049  0.79439  1.0000
  C   C2170     1.0  0.72817  0.47865  0.70104  1.0000
  H   H2582     1.0  0.72885  0.51435  0.78635  1.0000
  C   C2171     1.0  0.48954  0.67009  0.80301  1.0000
  C   C2172     1.0  0.49615  0.65853  0.83504  1.0000
  Fe  Fe290     1.0  0.64034  0.47648  0.74135  1.0000
  H   H2583     1.0  0.68839  0.85776  0.96072  1.0000
  H   H2584     1.0  0.53525  0.70565  0.95715  1.0000
  H   H2585     1.0  0.48851  0.71620  0.69803  1.0000
  C   C2173     1.0  0.48902  0.68871  0.80570  1.0000
  C   C2174     1.0  0.49180  0.69226  0.82304  1.0000
  C   C2175     1.0  0.73007  0.94940  0.80242  1.0000
  H   H2586     1.0  0.66148  0.96718  0.70172  1.0000
  C   C2176     1.0  0.48791  0.66036  0.67808  1.0000
  H   H2587     1.0  0.67376  0.80863  0.96249  1.0000
  H   H2588     1.0  0.48706  0.78428  0.71087  1.0000
  C   C2177     1.0  0.73233  0.91138  0.94240  1.0000
  H   H2589     1.0  0.48790  0.68499  0.65572  1.0000
  H   H2590     1.0  0.49733  0.77596  0.77398  1.0000
  C   C2178     1.0  0.48754  0.83005  0.67801  1.0000
  H   H2591     1.0  0.71672  0.50161  0.96338  1.0000
  N   N142      1.0  0.66409  0.87855  0.96880  1.0000
  H   H2592     1.0  0.72577  0.97278  0.93997  1.0000
  C   C2179     1.0  0.48502  0.78146  0.76632  1.0000
  S   S575      1.0  0.69695  0.64279  0.96577  1.0000
  C   C2180     1.0  0.52662  0.71356  0.96790  1.0000
  C   C2181     1.0  0.50722  0.71946  0.96775  1.0000
  C   C2182     1.0  0.70387  0.48055  0.75984  1.0000
  C   C2183     1.0  0.73010  0.50533  0.96450  1.0000
  H   H2593     1.0  0.73269  0.89176  0.63672  1.0000
  C   C2184     1.0  0.68507  0.97495  0.64861  1.0000
  S   S576      1.0  0.96356  0.32887  0.22153  1.0000
  H   H2594     1.0  0.76370  0.00883  0.17151  1.0000
  Fe  Fe291     1.0  0.95245  0.35699  0.23108  1.0000
  S   S577      1.0  0.92236  0.35810  0.24798  1.0000
  C   C2185     1.0  0.84329  0.42781  0.30224  1.0000
  S   S578      1.0  0.96567  0.08777  0.26158  1.0000
  C   C2186     1.0  0.90920  0.16715  0.19717  1.0000
  S   S579      1.0  0.95922  0.13371  0.24791  1.0000
  H   H2595     1.0  0.89143  0.03701  0.24655  1.0000
  H   H2596     1.0  0.91740  0.05011  0.25208  1.0000
  H   H2597     1.0  0.82751  0.05820  0.24527  1.0000
  Fe  Fe292     1.0  0.94995  0.10888  0.24053  1.0000
  S   S580      1.0  0.91833  0.11330  0.23849  1.0000
  H   H2598     1.0  0.74171  0.12112  0.18686  1.0000
  Fe  Fe293     1.0  0.94444  0.23897  0.09163  1.0000
  S   S581      1.0  0.97119  0.22016  0.08049  1.0000
  S   S582      1.0  0.91749  0.24683  0.07833  1.0000
  Fe  Fe294     1.0  0.96245  0.24867  0.12265  1.0000
  S   S583      1.0  0.95603  0.26126  0.15007  1.0000
  C   C2187     1.0  0.75831  0.01363  0.21763  1.0000
  H   H2599     1.0  0.74823  0.37908  0.24448  1.0000
  S   S584      1.0  0.95975  0.26274  0.09266  1.0000
  S   S585      1.0  0.94514  0.22631  0.12229  1.0000
  Fe  Fe295     1.0  0.82015  0.41042  0.24415  1.0000
  S   S586      1.0  0.81437  0.40751  0.27585  1.0000
  S   S587      1.0  0.84871  0.41602  0.22686  1.0000
  Fe  Fe296     1.0  0.77865  0.40765  0.24243  1.0000
  S   S588      1.0  0.77027  0.40368  0.27418  1.0000
  S   S589      1.0  0.75748  0.41518  0.22195  1.0000
  Fe  Fe297     1.0  0.78681  0.42718  0.27233  1.0000
  H   H2600     1.0  0.97455  0.25626  0.04901  1.0000
  S   S590      1.0  0.79384  0.43201  0.24064  1.0000
  S   S591      1.0  0.80581  0.38638  0.24283  1.0000
  Fe  Fe298     1.0  0.79677  0.20696  0.05879  1.0000
  S   S592      1.0  0.81975  0.21536  0.03448  1.0000
  S   S593      1.0  0.77336  0.23070  0.06768  1.0000
  Fe  Fe299     1.0  0.81340  0.16528  0.06163  1.0000
  S   S594      1.0  0.83687  0.17052  0.03697  1.0000
  S   S595      1.0  0.81379  0.13460  0.07524  1.0000
  Fe  Fe300     1.0  0.84029  0.19426  0.05088  1.0000
  S   S596      1.0  0.87125  0.19219  0.05448  1.0000
  Fe  Fe301     1.0  0.81433  0.19092  0.02300  1.0000
  S   S597      1.0  0.81046  0.19639  0.99213  1.0000
  S   S598      1.0  0.81768  0.18790  0.07630  1.0000
  S   S599      1.0  0.79045  0.18366  0.04649  1.0000
  Fe  Fe302     1.0  0.84762  0.06508  0.19731  1.0000
  S   S600      1.0  0.82117  0.08489  0.20732  1.0000
  S   S601      1.0  0.87827  0.06314  0.20148  1.0000
  Fe  Fe303     1.0  0.82537  0.04407  0.17879  1.0000
  S   S602      1.0  0.79737  0.06268  0.18670  1.0000
  S   S603      1.0  0.82994  0.01814  0.16473  1.0000
  Fe  Fe304     1.0  0.81426  0.08662  0.17835  1.0000
  S   S604      1.0  0.80232  0.11601  0.16478  1.0000
  Fe  Fe305     1.0  0.80652  0.05939  0.21483  1.0000
  S   S605      1.0  0.78629  0.05132  0.24180  1.0000
  S   S606      1.0  0.84162  0.06846  0.16765  1.0000
  S   S607      1.0  0.83351  0.03921  0.20757  1.0000
  H   H2601     1.0  0.90464  0.17112  0.21157  1.0000
  C   C2188     1.0  0.81171  0.00448  0.16816  1.0000
  C   C2189     1.0  0.79251  0.01291  0.17036  1.0000
  Fe  Fe306     1.0  0.79861  0.38431  0.27470  1.0000
  H   H2602     1.0  0.97109  0.22578  0.03889  1.0000
  H   H2603     1.0  0.78861  0.02792  0.17098  1.0000
  C   C2190     1.0  0.81052  0.12959  0.10013  1.0000
  C   C2191     1.0  0.80239  0.14384  0.11099  1.0000
  C   C2192     1.0  0.80020  0.13957  0.13086  1.0000
  C   C2193     1.0  0.80622  0.12108  0.13991  1.0000
  C   C2194     1.0  0.81437  0.10682  0.12907  1.0000
  C   C2195     1.0  0.81643  0.11107  0.10920  1.0000
  H   H2604     1.0  0.79764  0.15812  0.10409  1.0000
  H   H2605     1.0  0.79376  0.15060  0.13924  1.0000
  H   H2606     1.0  0.81895  0.09250  0.13597  1.0000
  H   H2607     1.0  0.82275  0.10002  0.10081  1.0000
  C   C2196     1.0  0.88086  0.07842  0.27496  1.0000
  C   C2197     1.0  0.79998  0.18091  0.98322  1.0000
  C   C2198     1.0  0.79567  0.16374  0.99415  1.0000
  H   H2608     1.0  0.86537  0.03593  0.23418  1.0000
  H   H2609     1.0  0.79865  0.15968  0.00848  1.0000
  H   H2610     1.0  0.94965  0.17524  0.21658  1.0000
  H   H2611     1.0  0.94817  0.27860  0.18331  1.0000
  H   H2612     1.0  0.77709  0.22088  0.98228  1.0000
  H   H2613     1.0  0.76926  0.11642  0.13972  1.0000
  H   H2614     1.0  0.77281  0.98131  0.10838  1.0000
  N   N143      1.0  0.93013  0.16539  0.19131  1.0000
  C   C2199     1.0  0.90289  0.05559  0.25808  1.0000
  H   H2615     1.0  0.75299  0.43743  0.16328  1.0000
  H   H2616     1.0  0.76412  0.24426  0.97773  1.0000
  S   S608      1.0  0.97832  0.35654  0.24385  1.0000
  H   H2617     1.0  0.77139  0.08564  0.21795  1.0000
  H   H2618     1.0  0.90427  0.15347  0.19782  1.0000
  C   C2200     1.0  0.75684  0.20879  0.01513  1.0000
  H   H2619     1.0  0.75035  0.04565  0.26560  1.0000
  C   C2201     1.0  0.89948  0.07070  0.26796  1.0000
  H   H2620     1.0  0.90148  0.17818  0.18724  1.0000
  C   C2202     1.0  0.97193  0.29435  0.13962  1.0000
  C   C2203     1.0  0.85752  0.03182  0.24880  1.0000
  H   H2621     1.0  0.98144  0.20069  0.14884  1.0000
  C   C2204     1.0  0.74934  0.22968  0.06769  1.0000
  H   H2622     1.0  0.95390  0.22726  0.02399  1.0000
  C   C2205     1.0  0.94558  0.18652  0.20531  1.0000
  C   C2206     1.0  0.77845  0.00211  0.17068  1.0000
  C   C2207     1.0  0.92631  0.32380  0.28783  1.0000
  H   H2623     1.0  0.75220  0.19922  0.07450  1.0000
  C   C2208     1.0  0.90437  0.23111  0.07291  1.0000
  C   C2209     1.0  0.91198  0.21199  0.07224  1.0000
  C   C2210     1.0  0.90155  0.20032  0.06671  1.0000
  C   C2211     1.0  0.88328  0.20748  0.06210  1.0000
  C   C2212     1.0  0.87550  0.22649  0.06316  1.0000
  C   C2213     1.0  0.88609  0.23825  0.06835  1.0000
  H   H2624     1.0  0.92604  0.20629  0.07562  1.0000
  H   H2625     1.0  0.90776  0.18568  0.06583  1.0000
  H   H2626     1.0  0.86152  0.23224  0.05959  1.0000
  H   H2627     1.0  0.88007  0.25303  0.06878  1.0000
  C   C2214     1.0  0.90763  0.09998  0.22704  1.0000
  C   C2215     1.0  0.88788  0.10452  0.22702  1.0000
  C   C2216     1.0  0.87867  0.09373  0.21887  1.0000
  C   C2217     1.0  0.88914  0.07816  0.21076  1.0000
  C   C2218     1.0  0.90894  0.07386  0.21047  1.0000
  C   C2219     1.0  0.91816  0.08473  0.21848  1.0000
  H   H2628     1.0  0.87961  0.11629  0.23360  1.0000
  H   H2629     1.0  0.86348  0.09734  0.21909  1.0000
  H   H2630     1.0  0.91718  0.06188  0.20420  1.0000
  H   H2631     1.0  0.93335  0.08106  0.21838  1.0000
  C   C2220     1.0  0.76440  0.10295  0.14741  1.0000
  C   C2221     1.0  0.76306  0.06424  0.24157  1.0000
  H   H2632     1.0  0.97705  0.28016  0.20552  1.0000
  H   H2633     1.0  0.74737  0.20188  0.00956  1.0000
  N   N144      1.0  0.74784  0.10643  0.16276  1.0000
  H   H2634     1.0  0.77598  0.44314  0.16241  1.0000
  H   H2635     1.0  0.84483  0.02644  0.24700  1.0000
  C   C2222     1.0  0.97605  0.31118  0.14339  1.0000
  S   S609      1.0  0.77137  0.45239  0.28631  1.0000
  H   H2636     1.0  0.95136  0.23266  0.18976  1.0000
  C   C2223     1.0  0.90219  0.37435  0.24155  1.0000
  C   C2224     1.0  0.90383  0.39052  0.22763  1.0000
  C   C2225     1.0  0.88735  0.40322  0.22321  1.0000
  C   C2226     1.0  0.86915  0.39981  0.23261  1.0000
  C   C2227     1.0  0.86754  0.38357  0.24641  1.0000
  C   C2228     1.0  0.88399  0.37093  0.25087  1.0000
  H   H2637     1.0  0.91778  0.39344  0.22053  1.0000
  H   H2638     1.0  0.88870  0.41582  0.21259  1.0000
  H   H2639     1.0  0.85360  0.38077  0.25371  1.0000
  H   H2640     1.0  0.88258  0.35845  0.26163  1.0000
  C   C2229     1.0  0.84862  0.16099  0.97628  1.0000
  C   C2230     1.0  0.96023  0.30441  0.17591  1.0000
  C   C2231     1.0  0.95610  0.28759  0.17215  1.0000
  C   C2232     1.0  0.96188  0.28248  0.15399  1.0000
  H   H2641     1.0  0.95540  0.30829  0.18984  1.0000
  C   C2233     1.0  0.76138  0.44360  0.17092  1.0000
  C   C2234     1.0  0.77026  0.23649  0.01375  1.0000
  H   H2642     1.0  0.94487  0.27949  0.01206  1.0000
  H   H2643     1.0  0.74777  0.04064  0.17476  1.0000
  Fe  Fe307     1.0  0.97703  0.11266  0.26670  1.0000
  C   C2235     1.0  0.88771  0.04817  0.25502  1.0000
  H   H2644     1.0  0.84046  0.44314  0.30112  1.0000
  H   H2645     1.0  0.93686  0.28579  0.29577  1.0000
  C   C2236     1.0  0.97031  0.31627  0.16155  1.0000
  H   H2646     1.0  0.86653  0.01968  0.25642  1.0000
  H   H2647     1.0  0.76071  0.12826  0.16885  1.0000
  C   C2237     1.0  0.78785  0.15152  0.98637  1.0000
  Fe  Fe308     1.0  0.97622  0.34519  0.19419  1.0000
  C   C2238     1.0  0.73724  0.24087  0.00970  1.0000
  H   H2648     1.0  0.83763  0.97843  0.08760  1.0000
  C   C2239     1.0  0.74789  0.45969  0.24218  1.0000
  H   H2649     1.0  0.77259  0.25091  0.00632  1.0000
  C   C2240     1.0  0.94682  0.21923  0.19044  1.0000
  H   H2650     1.0  0.92710  0.16967  0.16164  1.0000
  H   H2651     1.0  0.84825  0.06881  0.23426  1.0000
  H   H2652     1.0  0.75284  0.20725  0.03088  1.0000
  H   H2653     1.0  0.95609  0.32903  0.29888  1.0000
  H   H2654     1.0  0.74632  0.26750  0.99462  1.0000
  H   H2655     1.0  0.87831  0.09051  0.28221  1.0000
  C   C2241     1.0  0.97898  0.24508  0.99544  1.0000
  S   S610      1.0  0.96336  0.37365  0.20286  1.0000
  H   H2656     1.0  0.76414  0.01750  0.25048  1.0000
  C   C2242     1.0  0.85347  0.14233  0.98515  1.0000
  H   H2657     1.0  0.93315  0.14554  0.17204  1.0000
  C   C2243     1.0  0.93691  0.21715  0.17680  1.0000
  C   C2244     1.0  0.82598  0.98832  0.09475  1.0000
  H   H2658     1.0  0.94917  0.26282  0.05366  1.0000
  C   C2245     1.0  0.74251  0.21243  0.07176  1.0000
  H   H2659     1.0  0.87358  0.39312  0.28148  1.0000
  H   H2660     1.0  0.77239  0.00458  0.21393  1.0000
  H   H2661     1.0  0.85591  0.13945  0.99970  1.0000
  C   C2246     1.0  0.93547  0.16017  0.17203  1.0000
  C   C2247     1.0  0.78341  0.98278  0.16921  1.0000
  C   C2248     1.0  0.98270  0.15537  0.28569  1.0000
  H   H2662     1.0  0.79317  0.46942  0.24853  1.0000
  C   C2249     1.0  0.75943  0.00380  0.25077  1.0000
  N   N145      1.0  0.75242  0.46325  0.17374  1.0000
  H   H2663     1.0  0.84930  0.03079  0.28691  1.0000
  H   H2664     1.0  0.97642  0.29066  0.12557  1.0000
  C   C2250     1.0  0.94334  0.26455  0.01846  1.0000
  H   H2665     1.0  0.95076  0.16075  0.16636  1.0000
  H   H2666     1.0  0.73854  0.10363  0.21798  1.0000
  S   S611      1.0  0.97556  0.33777  0.16545  1.0000
  C   C2251     1.0  0.78019  0.46260  0.19039  1.0000
  H   H2667     1.0  0.78485  0.13811  0.99481  1.0000
  N   N146      1.0  0.96055  0.25430  0.02631  1.0000
  C   C2252     1.0  0.95785  0.23442  0.03430  1.0000
  H   H2668     1.0  0.95488  0.14795  0.20147  1.0000
  H   H2669     1.0  0.75168  0.99966  0.26537  1.0000
  C   C2253     1.0  0.74896  0.07055  0.16881  1.0000
  H   H2670     1.0  0.93035  0.26487  0.02971  1.0000
  H   H2671     1.0  0.93557  0.13550  0.20339  1.0000
  C   C2254     1.0  0.74105  0.09070  0.22801  1.0000
  H   H2672     1.0  0.74187  0.26007  0.06070  1.0000
  C   C2255     1.0  0.81662  0.98503  0.16709  1.0000
  H   H2673     1.0  0.81148  0.45434  0.28445  1.0000
  H   H2674     1.0  0.94614  0.23368  0.04683  1.0000
  H   H2675     1.0  0.95876  0.20560  0.21536  1.0000
  C   C2256     1.0  0.76278  0.22968  0.98543  1.0000
  H   H2676     1.0  0.93832  0.32736  0.27623  1.0000
  H   H2677     1.0  0.96294  0.27875  0.03759  1.0000
  S   S612      1.0  0.98173  0.17785  0.12081  1.0000
  H   H2678     1.0  0.92353  0.19906  0.16644  1.0000
  H   H2679     1.0  0.76444  0.10579  0.18416  1.0000
  H   H2680     1.0  0.82827  0.03549  0.27612  1.0000
  H   H2681     1.0  0.78830  0.98571  0.13062  1.0000
  H   H2682     1.0  0.75284  0.22412  0.97910  1.0000
  H   H2683     1.0  0.95714  0.29777  0.28792  1.0000
  C   C2257     1.0  0.74059  0.08892  0.17309  1.0000
  H   H2684     1.0  0.94045  0.25775  0.00727  1.0000
  C   C2258     1.0  0.74009  0.40137  0.22191  1.0000
  C   C2259     1.0  0.74287  0.98656  0.23614  1.0000
  H   H2685     1.0  0.80655  0.99973  0.12686  1.0000
  H   H2686     1.0  0.91805  0.31586  0.28188  1.0000
  C   C2260     1.0  0.97751  0.25445  0.01106  1.0000
  H   H2687     1.0  0.76089  0.09618  0.13652  1.0000
  H   H2688     1.0  0.91129  0.07688  0.26962  1.0000
  N   N147      1.0  0.74756  0.00543  0.23607  1.0000
  C   C2261     1.0  0.75384  0.11579  0.17625  1.0000
  N   N148      1.0  0.75635  0.22906  0.00616  1.0000
  C   C2262     1.0  0.73855  0.38425  0.23443  1.0000
  H   H2689     1.0  0.76144  0.06821  0.15808  1.0000
  H   H2690     1.0  0.74261  0.46882  0.14684  1.0000
  H   H2691     1.0  0.80355  0.46443  0.20357  1.0000
  H   H2692     1.0  0.77251  0.99297  0.24851  1.0000
  C   C2263     1.0  0.85832  0.41929  0.28992  1.0000
  H   H2693     1.0  0.86709  0.42794  0.27918  1.0000
  C   C2264     1.0  0.93907  0.14937  0.20449  1.0000
  C   C2265     1.0  0.93134  0.19978  0.17726  1.0000
  H   H2694     1.0  0.81879  0.99812  0.08353  1.0000
  H   H2695     1.0  0.76220  0.43387  0.18469  1.0000
  H   H2696     1.0  0.76146  0.02790  0.21799  1.0000
  N   N149      1.0  0.91527  0.35827  0.18131  1.0000
  C   C2266     1.0  0.92391  0.35008  0.19848  1.0000
  C   C2267     1.0  0.92600  0.37341  0.17022  1.0000
  C   C2268     1.0  0.89531  0.36743  0.18721  1.0000
  C   C2269     1.0  0.91570  0.34283  0.17074  1.0000
  C   C2270     1.0  0.92699  0.34164  0.15249  1.0000
  C   C2271     1.0  0.90532  0.32781  0.17912  1.0000
  C   C2272     1.0  0.92765  0.32641  0.14330  1.0000
  C   C2273     1.0  0.90618  0.31260  0.16982  1.0000
  C   C2274     1.0  0.91735  0.31189  0.15196  1.0000
  H   H2697     1.0  0.93860  0.34239  0.19449  1.0000
  H   H2698     1.0  0.92484  0.36123  0.20645  1.0000
  H   H2699     1.0  0.91565  0.33993  0.20867  1.0000
  H   H2700     1.0  0.94150  0.36781  0.16657  1.0000
  H   H2701     1.0  0.92507  0.38497  0.17845  1.0000
  H   H2702     1.0  0.92039  0.38009  0.15691  1.0000
  H   H2703     1.0  0.88683  0.35774  0.19777  1.0000
  H   H2704     1.0  0.89463  0.37984  0.19419  1.0000
  H   H2705     1.0  0.88788  0.37257  0.17477  1.0000
  H   H2706     1.0  0.93598  0.35193  0.14525  1.0000
  H   H2707     1.0  0.89680  0.32751  0.19314  1.0000
  H   H2708     1.0  0.93676  0.32550  0.12963  1.0000
  H   H2709     1.0  0.89842  0.30111  0.17662  1.0000
  H   H2710     1.0  0.91846  0.29980  0.14501  1.0000
  N   N150      1.0  0.86996  0.14735  0.10118  1.0000
  C   C2275     1.0  0.86603  0.16657  0.10637  1.0000
  C   C2276     1.0  0.88787  0.14591  0.08705  1.0000
  C   C2277     1.0  0.85443  0.14546  0.09166  1.0000
  C   C2278     1.0  0.87079  0.13288  0.11862  1.0000
  C   C2279     1.0  0.88772  0.12002  0.12217  1.0000
  C   C2280     1.0  0.85442  0.13170  0.13299  1.0000
  C   C2281     1.0  0.88805  0.10684  0.13904  1.0000
  C   C2282     1.0  0.85495  0.11851  0.14980  1.0000
  C   C2283     1.0  0.87172  0.10610  0.15282  1.0000
  H   H2711     1.0  0.85208  0.16929  0.11587  1.0000
  H   H2712     1.0  0.87726  0.16861  0.11369  1.0000
  H   H2713     1.0  0.86546  0.17791  0.09362  1.0000
  H   H2714     1.0  0.89999  0.14862  0.09267  1.0000
  H   H2715     1.0  0.88659  0.15668  0.07395  1.0000
  H   H2716     1.0  0.89153  0.13179  0.08245  1.0000
  H   H2717     1.0  0.85442  0.15507  0.07766  1.0000
  H   H2718     1.0  0.85566  0.13067  0.08913  1.0000
  H   H2719     1.0  0.84011  0.14931  0.10005  1.0000
  H   H2720     1.0  0.90090  0.11980  0.11217  1.0000
  H   H2721     1.0  0.84104  0.14099  0.13136  1.0000
  H   H2722     1.0  0.90103  0.09706  0.14149  1.0000
  H   H2723     1.0  0.84224  0.11784  0.16053  1.0000
  H   H2724     1.0  0.87206  0.09583  0.16587  1.0000
  C   C2284     1.0  0.74131  0.05443  0.17847  1.0000
  S   S613      1.0  0.80729  0.35503  0.29129  1.0000
  C   C2285     1.0  0.93592  0.18375  0.19127  1.0000
  H   H2725     1.0  0.77137  0.20034  0.01220  1.0000
  C   C2286     1.0  0.75965  0.08057  0.22807  1.0000
  H   H2726     1.0  0.78603  0.44796  0.18916  1.0000
  S   S614      1.0  0.97389  0.10590  0.21588  1.0000
  H   H2727     1.0  0.77692  0.09394  0.15321  1.0000
  N   N151      1.0  0.85201  0.04814  0.25923  1.0000
  C   C2287     1.0  0.83988  0.06336  0.24816  1.0000
  C   C2288     1.0  0.84047  0.04173  0.27784  1.0000
  C   C2289     1.0  0.86850  0.05559  0.26214  1.0000
  C   C2290     1.0  0.96196  0.26343  0.04228  1.0000
  C   C2291     1.0  0.86556  0.07099  0.27219  1.0000
  H   H2728     1.0  0.79114  0.00375  0.10971  1.0000
  H   H2729     1.0  0.83385  0.07568  0.25557  1.0000
  H   H2730     1.0  0.93389  0.15101  0.21960  1.0000
  H   H2731     1.0  0.93369  0.22909  0.16570  1.0000
  C   C2292     1.0  0.86195  0.39962  0.29125  1.0000
  C   C2293     1.0  0.73663  0.24670  0.06418  1.0000
  C   C2294     1.0  0.74778  0.05806  0.25490  1.0000
  H   H2732     1.0  0.74775  0.44418  0.24625  1.0000
  H   H2733     1.0  0.78455  0.22727  0.01231  1.0000
  H   H2734     1.0  0.75723  0.98271  0.20717  1.0000
  C   C2295     1.0  0.85497  0.12744  0.97536  1.0000
  C   C2296     1.0  0.94537  0.29481  0.29997  1.0000
  C   C2297     1.0  0.79891  0.99247  0.11942  1.0000
  C   C2298     1.0  0.98087  0.13996  0.30048  1.0000
  C   C2299     1.0  0.95094  0.20402  0.20480  1.0000
  H   H2735     1.0  0.73771  0.13283  0.14548  1.0000
  H   H2736     1.0  0.76546  0.23724  0.02910  1.0000
  C   C2300     1.0  0.74885  0.97692  0.22028  1.0000
  H   H2737     1.0  0.83411  0.05358  0.28584  1.0000
  H   H2738     1.0  0.85865  0.11292  0.98234  1.0000
  H   H2739     1.0  0.85139  0.07764  0.27767  1.0000
  Fe  Fe309     1.0  0.97306  0.20929  0.11129  1.0000
  H   H2740     1.0  0.96764  0.23815  0.99412  1.0000
  H   H2741     1.0  0.84730  0.17253  0.98404  1.0000
  H   H2742     1.0  0.93906  0.15817  0.29167  1.0000
  H   H2743     1.0  0.75014  0.01544  0.20591  1.0000
  N   N152      1.0  0.81214  0.97818  0.10900  1.0000
  H   H2744     1.0  0.91738  0.33762  0.29055  1.0000
  C   C2301     1.0  0.80286  0.46708  0.28897  1.0000
  H   H2745     1.0  0.83296  0.99693  0.10139  1.0000
  H   H2746     1.0  0.75269  0.46268  0.22657  1.0000
  S   S615      1.0  0.97845  0.11751  0.29625  1.0000
  H   H2747     1.0  0.98272  0.15367  0.27130  1.0000
  H   H2748     1.0  0.82791  0.46014  0.23865  1.0000
  C   C2302     1.0  0.78303  0.46958  0.29094  1.0000
  H   H2749     1.0  0.75899  0.46251  0.24919  1.0000
  C   C2303     1.0  0.79037  0.47189  0.19890  1.0000
  C   C2304     1.0  0.76308  0.47213  0.18380  1.0000
  C   C2305     1.0  0.73455  0.26069  0.00256  1.0000
  C   C2306     1.0  0.75101  0.47476  0.15467  1.0000
  H   H2750     1.0  0.83146  0.97842  0.16554  1.0000
  C   C2307     1.0  0.82172  0.47499  0.23880  1.0000
  H   H2751     1.0  0.98373  0.32032  0.13214  1.0000
  H   H2752     1.0  0.83064  0.36962  0.63180  1.0000
  S   S616      1.0  0.96211  0.23520  0.34241  1.0000
  Fe  Fe310     1.0  0.96082  0.22367  0.37345  1.0000
  S   S617      1.0  0.93270  0.22028  0.39308  1.0000
  H   H2753     1.0  0.77939  0.29018  0.33566  1.0000
  H   H2754     1.0  0.79683  0.40542  0.32741  1.0000
  H   H2755     1.0  0.77858  0.25978  0.34240  1.0000
  S   S618      1.0  0.75692  0.36485  0.56891  1.0000
  Fe  Fe311     1.0  0.77033  0.44433  0.61864  1.0000
  S   S619      1.0  0.78628  0.41465  0.61542  1.0000
  H   H2756     1.0  0.75021  0.21559  0.33821  1.0000
  C   C2308     1.0  0.75648  0.22875  0.55499  1.0000
  Fe  Fe312     1.0  0.78725  0.28991  0.38673  1.0000
  S   S620      1.0  0.80085  0.26746  0.36901  1.0000
  S   S621      1.0  0.77196  0.31857  0.37432  1.0000
  Fe  Fe313     1.0  0.79673  0.26432  0.42330  1.0000
  S   S622      1.0  0.81179  0.24016  0.40801  1.0000
  S   S623      1.0  0.79089  0.25802  0.45552  1.0000
  Fe  Fe314     1.0  0.82463  0.26243  0.38586  1.0000
  S   S624      1.0  0.85395  0.26121  0.36735  1.0000
  Fe  Fe315     1.0  0.78682  0.24729  0.39264  1.0000
  S   S625      1.0  0.77368  0.22275  0.38926  1.0000
  S   S626      1.0  0.81163  0.28624  0.40241  1.0000
  S   S627      1.0  0.77107  0.27014  0.40905  1.0000
  H   H2757     1.0  0.74457  0.30765  0.35846  1.0000
  N   N153      1.0  0.93329  0.31258  0.30519  1.0000
  Fe  Fe316     1.0  0.79618  0.29777  0.57760  1.0000
  S   S628      1.0  0.76534  0.30845  0.58842  1.0000
  S   S629      1.0  0.81756  0.28213  0.59640  1.0000
  Fe  Fe317     1.0  0.79199  0.31044  0.53620  1.0000
  H   H2758     1.0  0.74766  0.04149  0.63554  1.0000
  S   S630      1.0  0.80575  0.31357  0.50523  1.0000
  Fe  Fe318     1.0  0.76990  0.33428  0.56626  1.0000
  H   H2759     1.0  0.77875  0.22644  0.34279  1.0000
  Fe  Fe319     1.0  0.75939  0.29567  0.56499  1.0000
  S   S631      1.0  0.80106  0.32441  0.55688  1.0000
  S   S632      1.0  0.78987  0.28284  0.55596  1.0000
  H   H2760     1.0  0.79671  0.37506  0.61187  1.0000
  C   C2309     1.0  0.75458  0.24730  0.55863  1.0000
  C   C2310     1.0  0.79720  0.27280  0.46874  1.0000
  C   C2311     1.0  0.80212  0.29052  0.46027  1.0000
  C   C2312     1.0  0.80525  0.30271  0.47157  1.0000
  C   C2313     1.0  0.80313  0.29740  0.49138  1.0000
  C   C2314     1.0  0.79857  0.27952  0.49979  1.0000
  C   C2315     1.0  0.79582  0.26719  0.48846  1.0000
  H   H2761     1.0  0.80324  0.29497  0.44507  1.0000
  H   H2762     1.0  0.80888  0.31650  0.46495  1.0000
  H   H2763     1.0  0.79714  0.27518  0.51501  1.0000
  H   H2764     1.0  0.79221  0.25340  0.49506  1.0000
  C   C2316     1.0  0.78186  0.32890  0.35137  1.0000
  C   C2317     1.0  0.79896  0.32009  0.34179  1.0000
  C   C2318     1.0  0.80630  0.32817  0.32326  1.0000
  C   C2319     1.0  0.79678  0.34524  0.31422  1.0000
  C   C2320     1.0  0.77968  0.35413  0.32378  1.0000
  C   C2321     1.0  0.77223  0.34595  0.34233  1.0000
  H   H2765     1.0  0.80656  0.30704  0.34865  1.0000
  C   C2322     1.0  0.76767  0.29629  0.32741  1.0000
  H   H2766     1.0  0.86186  0.29122  0.63502  1.0000
  H   H2767     1.0  0.75896  0.35280  0.34968  1.0000
  H   H2768     1.0  0.89584  0.19588  0.34632  1.0000
  H   H2769     1.0  0.81538  0.40425  0.35267  1.0000
  H   H2770     1.0  0.93707  0.29364  0.34121  1.0000
  C   C2323     1.0  0.74578  0.29251  0.35709  1.0000
  H   H2771     1.0  0.87814  0.29349  0.36404  1.0000
  C   C2324     1.0  0.75940  0.39806  0.57942  1.0000
  H   H2772     1.0  0.81995  0.42408  0.32471  1.0000
  C   C2325     1.0  0.77903  0.40107  0.60148  1.0000
  C   C2326     1.0  0.78637  0.38157  0.60273  1.0000
  H   H2773     1.0  0.81134  0.32259  0.59687  1.0000
  H   H2774     1.0  0.73643  0.25042  0.49460  1.0000
  C   C2327     1.0  0.76566  0.40930  0.58963  1.0000
  N   N154      1.0  0.73789  0.29860  0.50503  1.0000
  H   H2775     1.0  0.74218  0.21203  0.59797  1.0000
  C   C2328     1.0  0.76646  0.37852  0.58089  1.0000
  C   C2329     1.0  0.83093  0.32652  0.61371  1.0000
  H   H2776     1.0  0.75941  0.23756  0.48624  1.0000
  C   C2330     1.0  0.74245  0.20984  0.38466  1.0000
  S   S633      1.0  0.74365  0.19740  0.55078  1.0000
  H   H2777     1.0  0.77477  0.03481  0.60033  1.0000
  C   C2331     1.0  0.91083  0.23205  0.38608  1.0000
  C   C2332     1.0  0.89365  0.23030  0.39875  1.0000
  C   C2333     1.0  0.87602  0.23918  0.39332  1.0000
  C   C2334     1.0  0.87550  0.24955  0.37503  1.0000
  C   C2335     1.0  0.89265  0.25093  0.36227  1.0000
  C   C2336     1.0  0.91023  0.24258  0.36788  1.0000
  H   H2778     1.0  0.89397  0.22218  0.41288  1.0000
  H   H2779     1.0  0.86289  0.23797  0.40327  1.0000
  H   H2780     1.0  0.89235  0.25878  0.34804  1.0000
  H   H2781     1.0  0.92326  0.24431  0.35809  1.0000
  C   C2337     1.0  0.82784  0.29597  0.60743  1.0000
  H   H2782     1.0  0.74896  0.40451  0.57037  1.0000
  C   C2338     1.0  0.73593  0.15488  0.46938  1.0000
  C   C2339     1.0  0.73622  0.27946  0.46069  1.0000
  H   H2783     1.0  0.79432  0.05226  0.61308  1.0000
  N   N155      1.0  0.85664  0.29373  0.53933  1.0000
  C   C2340     1.0  0.84321  0.28091  0.54998  1.0000
  C   C2341     1.0  0.84831  0.30517  0.52279  1.0000
  C   C2342     1.0  0.87474  0.28204  0.53175  1.0000
  C   C2343     1.0  0.86018  0.30539  0.55226  1.0000
  C   C2344     1.0  0.85416  0.32542  0.55015  1.0000
  C   C2345     1.0  0.86954  0.29665  0.56787  1.0000
  C   C2346     1.0  0.85770  0.33591  0.56272  1.0000
  C   C2347     1.0  0.87323  0.30732  0.58017  1.0000
  C   C2348     1.0  0.86733  0.32691  0.57759  1.0000
  H   H2784     1.0  0.82961  0.28921  0.55614  1.0000
  H   H2785     1.0  0.83973  0.27212  0.54078  1.0000
  H   H2786     1.0  0.84880  0.27105  0.56212  1.0000
  H   H2787     1.0  0.83404  0.31343  0.52730  1.0000
  H   H2788     1.0  0.84594  0.29609  0.51320  1.0000
  H   H2789     1.0  0.85769  0.31517  0.51407  1.0000
  H   H2790     1.0  0.88078  0.27121  0.54298  1.0000
  H   H2791     1.0  0.87270  0.27403  0.52106  1.0000
  H   H2792     1.0  0.88567  0.29112  0.52477  1.0000
  H   H2793     1.0  0.84641  0.33331  0.53912  1.0000
  H   H2794     1.0  0.87369  0.28142  0.57099  1.0000
  H   H2795     1.0  0.85264  0.35110  0.56112  1.0000
  H   H2796     1.0  0.88013  0.30032  0.59218  1.0000
  H   H2797     1.0  0.86971  0.33501  0.58756  1.0000
  N   N156      1.0  0.92645  0.19188  0.34266  1.0000
  C   C2349     1.0  0.92831  0.20938  0.32834  1.0000
  C   C2350     1.0  0.90731  0.19496  0.35464  1.0000
  C   C2351     1.0  0.94113  0.18959  0.35471  1.0000
  C   C2352     1.0  0.92886  0.17455  0.33422  1.0000
  H   H2798     1.0  0.74971  0.04336  0.60126  1.0000
  H   H2799     1.0  0.73506  0.31827  0.32666  1.0000
  C   C2353     1.0  0.75046  0.09031  0.59485  1.0000
  H   H2800     1.0  0.76290  0.20355  0.48507  1.0000
  H   H2801     1.0  0.78344  0.07469  0.62047  1.0000
  H   H2802     1.0  0.74983  0.32945  0.63502  1.0000
  H   H2803     1.0  0.92610  0.22216  0.33518  1.0000
  H   H2804     1.0  0.94286  0.20849  0.31956  1.0000
  H   H2805     1.0  0.77217  0.29239  0.31300  1.0000
  H   H2806     1.0  0.90467  0.20832  0.36060  1.0000
  C   C2354     1.0  0.83500  0.39658  0.31763  1.0000
  H   H2807     1.0  0.92413  0.15553  0.36138  1.0000
  H   H2808     1.0  0.94001  0.20254  0.36095  1.0000
  H   H2809     1.0  0.76687  0.31194  0.32581  1.0000
  C   C2355     1.0  0.92709  0.15675  0.34610  1.0000
  C   C2356     1.0  0.76111  0.04735  0.63279  1.0000
  H   H2810     1.0  0.74678  0.15053  0.42121  1.0000
  C   C2357     1.0  0.88416  0.30719  0.33493  1.0000
  S   S634      1.0  0.78585  0.46819  0.61786  1.0000
  H   H2811     1.0  0.75566  0.28605  0.52615  1.0000
  H   H2812     1.0  0.95222  0.28610  0.31191  1.0000
  C   C2358     1.0  0.74553  0.22929  0.45727  1.0000
  H   H2813     1.0  0.75159  0.19613  0.38518  1.0000
  C   C2359     1.0  0.78303  0.06496  0.61068  1.0000
  H   H2814     1.0  0.75789  0.28672  0.47186  1.0000
  H   H2815     1.0  0.74257  0.19162  0.49194  1.0000
  S   S635      1.0  0.74100  0.00482  0.62893  1.0000
  H   H2816     1.0  0.89343  0.31953  0.30653  1.0000
  H   H2817     1.0  0.75266  0.23502  0.42670  1.0000
  H   H2818     1.0  0.84301  0.35954  0.33660  1.0000
  H   H2819     1.0  0.92842  0.12663  0.34785  1.0000
  C   C2360     1.0  0.84200  0.28716  0.61839  1.0000
  H   H2820     1.0  0.78558  0.35525  0.59378  1.0000
  S   S636      1.0  0.76120  0.32252  0.54381  1.0000
  C   C2361     1.0  0.74141  0.23279  0.43886  1.0000
  S   S637      1.0  0.79577  0.00336  0.61982  1.0000
  C   C2362     1.0  0.92944  0.14013  0.33853  1.0000
  C   C2363     1.0  0.73813  0.24354  0.38492  1.0000
  H   H2821     1.0  0.75078  0.07551  0.54361  1.0000
  C   C2364     1.0  0.83170  0.41670  0.31582  1.0000
  S   S638      1.0  0.85653  0.33236  0.63355  1.0000
  H   H2822     1.0  0.81956  0.32124  0.31594  1.0000
  H   H2823     1.0  0.75240  0.19866  0.50954  1.0000
  H   H2824     1.0  0.75757  0.28430  0.36454  1.0000
  C   C2365     1.0  0.73654  0.25835  0.56197  1.0000
  N   N157      1.0  0.73601  0.22154  0.49281  1.0000
  H   H2825     1.0  0.93541  0.18730  0.30409  1.0000
  C   C2366     1.0  0.74281  0.28637  0.47419  1.0000
  C   C2367     1.0  0.75064  0.31268  0.49594  1.0000
  H   H2826     1.0  0.74343  0.32464  0.48642  1.0000
  C   C2368     1.0  0.74981  0.22575  0.38613  1.0000
  H   H2827     1.0  0.74309  0.04641  0.56602  1.0000
  H   H2828     1.0  0.78738  0.07215  0.59591  1.0000
  H   H2829     1.0  0.82836  0.36000  0.31922  1.0000
  H   H2830     1.0  0.91201  0.28529  0.36770  1.0000
  H   H2831     1.0  0.73787  0.11641  0.57916  1.0000
  H   H2832     1.0  0.91750  0.21218  0.31888  1.0000
  H   H2833     1.0  0.73495  0.30050  0.31290  1.0000
  C   C2369     1.0  0.82849  0.36434  0.33295  1.0000
  H   H2834     1.0  0.95571  0.18687  0.34629  1.0000
  H   H2835     1.0  0.93640  0.33661  0.31650  1.0000
  N   N158      1.0  0.76391  0.05950  0.61378  1.0000
  H   H2836     1.0  0.76206  0.08842  0.58312  1.0000
  H   H2837     1.0  0.81371  0.38015  0.36259  1.0000
  C   C2370     1.0  0.85076  0.29805  0.62685  1.0000
  H   H2838     1.0  0.79279  0.38203  0.33863  1.0000
  H   H2839     1.0  0.76013  0.22895  0.45867  1.0000
  C   C2371     1.0  0.74039  0.22104  0.55472  1.0000
  C   C2372     1.0  0.88911  0.29773  0.35227  1.0000
  C   C2373     1.0  0.90820  0.29307  0.35429  1.0000
  C   C2374     1.0  0.74904  0.20306  0.49488  1.0000
  C   C2375     1.0  0.75019  0.23061  0.33727  1.0000
  H   H2840     1.0  0.74153  0.14041  0.49717  1.0000
  C   C2376     1.0  0.74161  0.18285  0.43605  1.0000
  C   C2377     1.0  0.73656  0.10646  0.59241  1.0000
  H   H2841     1.0  0.82640  0.39436  0.62218  1.0000
  H   H2842     1.0  0.73761  0.19118  0.44787  1.0000
  H   H2843     1.0  0.76008  0.42432  0.58836  1.0000
  H   H2844     1.0  0.74930  0.23313  0.51072  1.0000
  C   C2378     1.0  0.84533  0.31779  0.62437  1.0000
  C   C2379     1.0  0.73785  0.07626  0.55405  1.0000
  H   H2845     1.0  0.86928  0.31031  0.33339  1.0000
  H   H2846     1.0  0.77221  0.36726  0.31688  1.0000
  H   H2847     1.0  0.90546  0.18349  0.36712  1.0000
  C   C2380     1.0  0.94524  0.32390  0.31099  1.0000
  C   C2381     1.0  0.78011  0.37031  0.59247  1.0000
  H   H2848     1.0  0.84416  0.46136  0.62244  1.0000
  H   H2849     1.0  0.82393  0.01697  0.63364  1.0000
  H   H2850     1.0  0.77050  0.22022  0.55268  1.0000
  S   S639      1.0  0.76127  0.00388  0.58438  1.0000
  Fe  Fe320     1.0  0.76984  0.99426  0.61337  1.0000
  C   C2382     1.0  0.93350  0.14075  0.31895  1.0000
  C   C2383     1.0  0.74967  0.26985  0.33630  1.0000
  C   C2384     1.0  0.82227  0.31567  0.60521  1.0000
  H   H2851     1.0  0.76709  0.25291  0.55906  1.0000
  C   C2385     1.0  0.91790  0.30777  0.32117  1.0000
  H   H2852     1.0  0.75540  0.31881  0.50658  1.0000
  H   H2853     1.0  0.84633  0.27191  0.62017  1.0000
  S   S640      1.0  0.74802  0.46254  0.60265  1.0000
  H   H2854     1.0  0.74615  0.27510  0.44844  1.0000
  H   H2855     1.0  0.76407  0.30637  0.48751  1.0000
  H   H2856     1.0  0.73965  0.27144  0.52331  1.0000
  H   H2857     1.0  0.80235  0.38657  0.31380  1.0000
  H   H2858     1.0  0.77271  0.03482  0.63402  1.0000
  N   N159      1.0  0.82242  0.38517  0.33210  1.0000
  N   N160      1.0  0.74927  0.29010  0.33696  1.0000
  H   H2859     1.0  0.93982  0.17776  0.36692  1.0000
  C   C2386     1.0  0.76378  0.04786  0.59940  1.0000
  C   C2387     1.0  0.74906  0.07664  0.61173  1.0000
  H   H2860     1.0  0.85397  0.37325  0.30475  1.0000
  H   H2861     1.0  0.76677  0.05564  0.58464  1.0000
  C   C2388     1.0  0.92243  0.29790  0.33900  1.0000
  H   H2862     1.0  0.74276  0.19341  0.42267  1.0000
  S   S641      1.0  0.95236  0.30723  0.63170  1.0000
  C   C2389     1.0  0.85051  0.38834  0.30483  1.0000
  H   H2863     1.0  0.82666  0.34178  0.61172  1.0000
  C   C2390     1.0  0.80277  0.39007  0.32784  1.0000
  H   H2864     1.0  0.83677  0.38712  0.35444  1.0000
  H   H2865     1.0  0.86134  0.39560  0.61994  1.0000
  H   H2866     1.0  0.86347  0.37039  0.62789  1.0000
  C   C2391     1.0  0.93528  0.15795  0.30688  1.0000
  C   C2392     1.0  0.73663  0.35432  0.61807  1.0000
  H   H2867     1.0  0.81866  0.35614  0.34381  1.0000
  C   C2393     1.0  0.82208  0.38939  0.35123  1.0000
  C   C2394     1.0  0.76602  0.25603  0.33946  1.0000
  H   H2868     1.0  0.74575  0.41078  0.62632  1.0000
  C   C2395     1.0  0.93317  0.17464  0.31429  1.0000
  H   H2869     1.0  0.75613  0.17437  0.43646  1.0000
  S   S642      1.0  0.98138  0.24106  0.37782  1.0000
  C   C2396     1.0  0.76628  0.23676  0.33974  1.0000
  C   C2397     1.0  0.74890  0.28193  0.51554  1.0000
  H   H2870     1.0  0.76039  0.27438  0.50593  1.0000
  H   H2871     1.0  0.95335  0.31557  0.32220  1.0000
  C   C2398     1.0  0.86072  0.38436  0.63277  1.0000
  C   C2399     1.0  0.89827  0.31227  0.31955  1.0000
  C   C2400     1.0  0.74570  0.23632  0.49614  1.0000
  H   H2872     1.0  0.74611  0.16400  0.46860  1.0000
  H   H2873     1.0  0.74370  0.25583  0.38608  1.0000
  H   H2874     1.0  0.97948  0.13059  0.33063  1.0000
  C   C2401     1.0  0.98090  0.14243  0.31910  1.0000
  C   C2402     1.0  0.82736  0.38410  0.63566  1.0000
  H   H2875     1.0  0.98305  0.16167  0.33724  1.0000
  C   C2403     1.0  0.98283  0.16010  0.32290  1.0000
  S   S643      1.0  0.98344  0.19801  0.36899  1.0000
  H   H2876     1.0  0.73861  0.34743  0.60579  1.0000
  H   H2877     1.0  0.93587  0.12777  0.31308  1.0000
  C   C2404     1.0  0.74301  0.34417  0.63453  1.0000
  S   S644      1.0  0.98385  0.28165  0.33386  1.0000
  H   H2878     1.0  0.73541  0.17097  0.40670  1.0000
  Fe  Fe321     1.0  0.73434  0.97622  0.62911  1.0000
  H   H2879     1.0  0.86800  0.47255  0.63539  1.0000
  Fe  Fe322     1.0  0.84519  0.99506  0.71244  1.0000
  H   H2880     1.0  0.84437  0.35827  0.65988  1.0000
  Fe  Fe323     1.0  0.86315  0.02572  0.72281  1.0000
  S   S645      1.0  0.87981  0.00446  0.74247  1.0000
  S   S646      1.0  0.86466  0.05740  0.71726  1.0000
  Fe  Fe324     1.0  0.85342  0.99145  0.75237  1.0000
  C   C2405     1.0  0.73851  0.08453  0.88976  1.0000
  S   S647      1.0  0.87134  0.00842  0.69904  1.0000
  S   S648      1.0  0.83585  0.01416  0.73454  1.0000
  H   H2881     1.0  0.78135  0.98259  0.77042  1.0000
  H   H2882     1.0  0.87424  0.07821  0.81096  1.0000
  C   C2406     1.0  0.74674  0.21583  0.88341  1.0000
  H   H2883     1.0  0.75529  0.22603  0.83576  1.0000
  Fe  Fe325     1.0  0.88163  0.45718  0.73056  1.0000
  S   S649      1.0  0.88799  0.42493  0.73664  1.0000
  H   H2884     1.0  0.76112  0.05530  0.64426  1.0000
  C   C2407     1.0  0.82195  0.42022  0.64738  1.0000
  H   H2885     1.0  0.90677  0.01465  0.70806  1.0000
  H   H2886     1.0  0.84687  0.18249  0.91946  1.0000
  H   H2887     1.0  0.80011  0.09167  0.84179  1.0000
  Fe  Fe326     1.0  0.89832  0.34523  0.67171  1.0000
  S   S650      1.0  0.85156  0.47207  0.72962  1.0000
  S   S651      1.0  0.89704  0.37678  0.67084  1.0000
  Fe  Fe327     1.0  0.89700  0.30287  0.68610  1.0000
  S   S652      1.0  0.90133  0.29571  0.65680  1.0000
  S   S653      1.0  0.89537  0.28121  0.71319  1.0000
  Fe  Fe328     1.0  0.92380  0.31438  0.65040  1.0000
  C   C2408     1.0  0.79003  0.98911  0.81231  1.0000
  Fe  Fe329     1.0  0.88045  0.32266  0.65079  1.0000
  H   H2888     1.0  0.95499  0.34827  0.69067  1.0000
  S   S654      1.0  0.92049  0.32025  0.67996  1.0000
  S   S655      1.0  0.87426  0.32856  0.68070  1.0000
  Fe  Fe330     1.0  0.91064  0.12990  0.75691  1.0000
  S   S656      1.0  0.89011  0.15438  0.74491  1.0000
  S   S657      1.0  0.91269  0.09854  0.75540  1.0000
  Fe  Fe331     1.0  0.92558  0.15504  0.77785  1.0000
  S   S658      1.0  0.90539  0.18134  0.76822  1.0000
  S   S659      1.0  0.94613  0.15289  0.79808  1.0000
  Fe  Fe332     1.0  0.88357  0.16219  0.77402  1.0000
  S   S660      1.0  0.85221  0.17058  0.78484  1.0000
  Fe  Fe333     1.0  0.91355  0.17175  0.73989  1.0000
  S   S661      1.0  0.91865  0.19247  0.71233  1.0000
  S   S662      1.0  0.90271  0.13671  0.78649  1.0000
  S   S663      1.0  0.93514  0.14635  0.74910  1.0000
  Fe  Fe334     1.0  0.77127  0.12176  0.89467  1.0000
  S   S664      1.0  0.77403  0.14793  0.87239  1.0000
  S   S665      1.0  0.77501  0.09288  0.88537  1.0000
  Fe  Fe335     1.0  0.77446  0.14299  0.92664  1.0000
  S   S666      1.0  0.77751  0.17020  0.90657  1.0000
  H   H2889     1.0  0.82235  0.17986  0.92925  1.0000
  Fe  Fe336     1.0  0.75418  0.16371  0.89428  1.0000
  Fe  Fe337     1.0  0.79704  0.15196  0.88677  1.0000
  S   S667      1.0  0.82680  0.15785  0.87420  1.0000
  S   S668      1.0  0.74972  0.13726  0.91570  1.0000
  S   S669      1.0  0.79561  0.12499  0.90775  1.0000
  C   C2409     1.0  0.75850  0.00886  0.74593  1.0000
  H   H2890     1.0  0.92923  0.39218  0.69502  1.0000
  H   H2891     1.0  0.78527  0.17778  0.94255  1.0000
  C   C2410     1.0  0.74314  0.37493  0.91388  1.0000
  H   H2892     1.0  0.98325  0.05261  0.69352  1.0000
  H   H2893     1.0  0.75633  0.04044  0.86455  1.0000
  C   C2411     1.0  0.96352  0.18324  0.77834  1.0000
  H   H2894     1.0  0.74496  0.45737  0.77455  1.0000
  H   H2895     1.0  0.95395  0.18505  0.76832  1.0000
  C   C2412     1.0  0.84529  0.16678  0.80968  1.0000
  C   C2413     1.0  0.85880  0.16328  0.82162  1.0000
  C   C2414     1.0  0.85292  0.16076  0.84140  1.0000
  C   C2415     1.0  0.83358  0.16141  0.84933  1.0000
  C   C2416     1.0  0.82010  0.16456  0.83738  1.0000
  C   C2417     1.0  0.82595  0.16739  0.81758  1.0000
  H   H2896     1.0  0.87375  0.16286  0.81563  1.0000
  H   H2897     1.0  0.86342  0.15827  0.85058  1.0000
  H   H2898     1.0  0.80518  0.16501  0.84337  1.0000
  H   H2899     1.0  0.81546  0.17000  0.80839  1.0000
  C   C2418     1.0  0.90357  0.25681  0.71230  1.0000
  C   C2419     1.0  0.90604  0.24418  0.72923  1.0000
  C   C2420     1.0  0.91119  0.22451  0.72931  1.0000
  C   C2421     1.0  0.91379  0.21725  0.71248  1.0000
  C   C2422     1.0  0.91182  0.22992  0.69546  1.0000
  C   C2423     1.0  0.90673  0.24962  0.69536  1.0000
  H   H2900     1.0  0.90381  0.24963  0.74237  1.0000
  H   H2901     1.0  0.91310  0.21500  0.74243  1.0000
  H   H2902     1.0  0.91384  0.22445  0.68235  1.0000
  H   H2903     1.0  0.90478  0.25913  0.68224  1.0000
  C   C2424     1.0  0.73454  0.46269  0.76520  1.0000
  H   H2904     1.0  0.94558  0.34976  0.66935  1.0000
  C   C2425     1.0  0.78430  0.15634  0.96763  1.0000
  N   N161      1.0  0.84204  0.38739  0.64554  1.0000
  C   C2426     1.0  0.73487  0.18980  0.95983  1.0000
  H   H2905     1.0  0.83045  0.45700  0.66474  1.0000
  H   H2906     1.0  0.79923  0.19926  0.95612  1.0000
  C   C2427     1.0  0.77688  0.98224  0.73216  1.0000
  S   S670      1.0  0.77532  0.14012  0.95812  1.0000
  H   H2907     1.0  0.90488  0.03553  0.71774  1.0000
  C   C2428     1.0  0.74639  0.44800  0.70987  1.0000
  S   S671      1.0  0.75456  0.99134  0.80280  1.0000
  H   H2908     1.0  0.82091  0.08832  0.81155  1.0000
  H   H2909     1.0  0.73577  0.00699  0.89675  1.0000
  H   H2910     1.0  0.75305  0.99113  0.90980  1.0000
  H   H2911     1.0  0.90065  0.05495  0.68742  1.0000
  H   H2912     1.0  0.90315  0.03503  0.67621  1.0000
  H   H2913     1.0  0.76099  0.24005  0.87811  1.0000
  H   H2914     1.0  0.75983  0.20567  0.88236  1.0000
  C   C2429     1.0  0.91517  0.02487  0.71029  1.0000
  C   C2430     1.0  0.81006  0.98681  0.80792  1.0000
  C   C2431     1.0  0.88947  0.41166  0.71845  1.0000
  C   C2432     1.0  0.89059  0.39181  0.72297  1.0000
  C   C2433     1.0  0.89237  0.38085  0.70866  1.0000
  C   C2434     1.0  0.89331  0.38970  0.68969  1.0000
  C   C2435     1.0  0.89229  0.40950  0.68519  1.0000
  C   C2436     1.0  0.89020  0.42046  0.69949  1.0000
  H   H2915     1.0  0.89012  0.38489  0.73761  1.0000
  H   H2916     1.0  0.89331  0.36559  0.71231  1.0000
  H   H2917     1.0  0.89334  0.41642  0.67052  1.0000
  H   H2918     1.0  0.88952  0.43568  0.69581  1.0000
  H   H2919     1.0  0.74822  0.43226  0.87682  1.0000
  H   H2920     1.0  0.83094  0.12745  0.92998  1.0000
  H   H2921     1.0  0.81927  0.45287  0.81667  1.0000
  C   C2437     1.0  0.83845  0.40658  0.65067  1.0000
  H   H2922     1.0  0.82175  0.14676  0.91345  1.0000
  H   H2923     1.0  0.88167  0.10077  0.80856  1.0000
  C   C2438     1.0  0.81544  0.46785  0.81135  1.0000
  C   C2439     1.0  0.96335  0.25097  0.70715  1.0000
  C   C2440     1.0  0.94650  0.38684  0.65665  1.0000
  C   C2441     1.0  0.91147  0.04450  0.68005  1.0000
  C   C2442     1.0  0.87617  0.06899  0.72975  1.0000
  C   C2443     1.0  0.87583  0.08871  0.72455  1.0000
  C   C2444     1.0  0.88629  0.09817  0.73282  1.0000
  C   C2445     1.0  0.89749  0.08790  0.74616  1.0000
  C   C2446     1.0  0.89746  0.06828  0.75170  1.0000
  C   C2447     1.0  0.88665  0.05891  0.74378  1.0000
  H   H2924     1.0  0.86777  0.09666  0.71372  1.0000
  H   H2925     1.0  0.88625  0.11325  0.72833  1.0000
  H   H2926     1.0  0.90607  0.06020  0.76202  1.0000
  H   H2927     1.0  0.88689  0.04380  0.74816  1.0000
  H   H2928     1.0  0.75185  0.44965  0.74276  1.0000
  H   H2929     1.0  0.81388  0.14660  0.93832  1.0000
  C   C2448     1.0  0.95973  0.38475  0.68502  1.0000
  C   C2449     1.0  0.97301  0.30958  0.63949  1.0000
  C   C2450     1.0  0.75128  0.05268  0.87156  1.0000
  H   H2930     1.0  0.76985  0.44177  0.87074  1.0000
  H   H2931     1.0  0.86421  0.40229  0.66293  1.0000
  C   C2451     1.0  0.80069  0.98240  0.67527  1.0000
  C   C2452     1.0  0.81501  0.99136  0.67819  1.0000
  C   C2453     1.0  0.82327  0.00393  0.66308  1.0000
  S   S672      1.0  0.77406  0.47486  0.67336  1.0000
  S   S673      1.0  0.82122  0.98692  0.70122  1.0000
  H   H2932     1.0  0.78182  0.97527  0.71941  1.0000
  C   C2454     1.0  0.77961  0.98805  0.79856  1.0000
  H   H2933     1.0  0.78417  0.01741  0.71627  1.0000
  C   C2455     1.0  0.77158  0.01313  0.71278  1.0000
  C   C2456     1.0  0.74740  0.36367  0.89980  1.0000
  C   C2457     1.0  0.74006  0.22975  0.83590  1.0000
  H   H2934     1.0  0.79695  0.46638  0.70240  1.0000
  H   H2935     1.0  0.77060  0.46734  0.80436  1.0000
  S   S674      1.0  0.89451  0.47490  0.70401  1.0000
  C   C2458     1.0  0.84865  0.42999  0.66465  1.0000
  C   C2459     1.0  0.74569  0.99482  0.72392  1.0000
  H   H2936     1.0  0.86034  0.27828  0.70140  1.0000
  H   H2937     1.0  0.81101  0.41740  0.64085  1.0000
  H   H2938     1.0  0.74714  0.43398  0.71942  1.0000
  H   H2939     1.0  0.87124  0.15373  0.91475  1.0000
  C   C2460     1.0  0.85596  0.26459  0.70304  1.0000
  Fe  Fe338     1.0  0.88670  0.98619  0.71974  1.0000
  H   H2940     1.0  0.74455  0.98255  0.94508  1.0000
  C   C2461     1.0  0.73830  0.45834  0.74682  1.0000
  H   H2941     1.0  0.76122  0.02621  0.70912  1.0000
  H   H2942     1.0  0.74155  0.19072  0.92961  1.0000
  H   H2943     1.0  0.85647  0.14923  0.89971  1.0000
  H   H2944     1.0  0.81814  0.98789  0.81844  1.0000
  H   H2945     1.0  0.80632  0.44830  0.65021  1.0000
  C   C2462     1.0  0.83250  0.44305  0.66102  1.0000
  N   N162      1.0  0.85585  0.10188  0.79763  1.0000
  C   C2463     1.0  0.84990  0.09094  0.78541  1.0000
  C   C2464     1.0  0.85744  0.12110  0.78656  1.0000
  C   C2465     1.0  0.87499  0.09223  0.80160  1.0000
  C   C2466     1.0  0.84252  0.10353  0.81577  1.0000
  C   C2467     1.0  0.82535  0.09578  0.82076  1.0000
  C   C2468     1.0  0.84663  0.11311  0.82917  1.0000
  C   C2469     1.0  0.81322  0.09756  0.83813  1.0000
  C   C2470     1.0  0.83451  0.11458  0.84653  1.0000
  C   C2471     1.0  0.81780  0.10693  0.85095  1.0000
  H   H2946     1.0  0.83596  0.09787  0.78114  1.0000
  H   H2947     1.0  0.86030  0.08994  0.77196  1.0000
  H   H2948     1.0  0.84895  0.07609  0.79264  1.0000
  H   H2949     1.0  0.86310  0.12982  0.79420  1.0000
  H   H2950     1.0  0.84331  0.12911  0.78365  1.0000
  H   H2951     1.0  0.86727  0.12049  0.77271  1.0000
  H   H2952     1.0  0.88514  0.08973  0.78834  1.0000
  H   H2953     1.0  0.85920  0.11968  0.82629  1.0000
  H   H2954     1.0  0.83795  0.12188  0.85659  1.0000
  H   H2955     1.0  0.80833  0.10833  0.86434  1.0000
  N   N163      1.0  0.92557  0.03364  0.69206  1.0000
  C   C2472     1.0  0.93696  0.01795  0.68229  1.0000
  C   C2473     1.0  0.93714  0.04651  0.69589  1.0000
  C   C2474     1.0  0.92812  0.06261  0.70444  1.0000
  C   C2475     1.0  0.95740  0.04323  0.69201  1.0000
  C   C2476     1.0  0.74710  0.98737  0.70705  1.0000
  H   H2956     1.0  0.79228  0.47403  0.77486  1.0000
  H   H2957     1.0  0.97395  0.35774  0.64916  1.0000
  H   H2958     1.0  0.91860  0.05241  0.66668  1.0000
  H   H2959     1.0  0.92772  0.00866  0.67955  1.0000
  H   H2960     1.0  0.94688  0.00829  0.69121  1.0000
  H   H2961     1.0  0.94514  0.02347  0.66832  1.0000
  H   H2962     1.0  0.92511  0.01695  0.72006  1.0000
  H   H2963     1.0  0.91281  0.06592  0.70799  1.0000
  H   H2964     1.0  0.96554  0.03130  0.68568  1.0000
  H   H2965     1.0  0.97863  0.14945  0.75911  1.0000
  C   C2477     1.0  0.96262  0.40591  0.71266  1.0000
  H   H2966     1.0  0.78270  0.99201  0.82615  1.0000
  N   N164      1.0  0.77102  0.41526  0.89020  1.0000
  C   C2478     1.0  0.93865  0.07458  0.70896  1.0000
  C   C2479     1.0  0.79211  0.41078  0.88565  1.0000
  H   H2967     1.0  0.79000  0.98530  0.73578  1.0000
  C   C2480     1.0  0.76279  0.39762  0.89380  1.0000
  C   C2481     1.0  0.75054  0.39175  0.91097  1.0000
  H   H2968     1.0  0.73463  0.40945  0.65067  1.0000
  H   H2969     1.0  0.74149  0.17501  0.96298  1.0000
  H   H2970     1.0  0.73558  0.20072  0.84419  1.0000
  C   C2482     1.0  0.75305  0.04356  0.92315  1.0000
  C   C2483     1.0  0.97904  0.39756  0.70175  1.0000
  C   C2484     1.0  0.85147  0.13118  0.95671  1.0000
  C   C2485     1.0  0.95846  0.07098  0.70500  1.0000
  H   H2971     1.0  0.79798  0.40027  0.89725  1.0000
  H   H2972     1.0  0.79873  0.42374  0.88350  1.0000
  H   H2973     1.0  0.79712  0.40487  0.87227  1.0000
  N   N165      1.0  0.76272  0.99975  0.72873  1.0000
  H   H2974     1.0  0.96766  0.23062  0.73228  1.0000
  H   H2975     1.0  0.81302  0.38518  0.64475  1.0000
  H   H2976     1.0  0.83431  0.01091  0.66507  1.0000
  H   H2977     1.0  0.96366  0.41405  0.72317  1.0000
  H   H2978     1.0  0.95872  0.31583  0.66687  1.0000
  H   H2979     1.0  0.77266  0.43869  0.90346  1.0000
  N   N166      1.0  0.84194  0.15349  0.92781  1.0000
  C   C2486     1.0  0.82653  0.14311  0.92742  1.0000
  C   C2487     1.0  0.83565  0.17386  0.92034  1.0000
  C   C2488     1.0  0.85917  0.14654  0.91462  1.0000
  C   C2489     1.0  0.84615  0.15003  0.94735  1.0000
  H   H2980     1.0  0.76782  0.42224  0.86056  1.0000
  H   H2981     1.0  0.74842  0.44520  0.69506  1.0000
  S   S675      1.0  0.74655  0.99510  0.85935  1.0000
  H   H2982     1.0  0.85945  0.21534  0.76838  1.0000
  H   H2983     1.0  0.81638  0.97990  0.76219  1.0000
  C   C2490     1.0  0.74789  0.02758  0.91906  1.0000
  C   C2491     1.0  0.79449  0.98611  0.65761  1.0000
  C   C2492     1.0  0.75908  0.36915  0.88272  1.0000
  C   C2493     1.0  0.81958  0.98388  0.78970  1.0000
  H   H2984     1.0  0.78355  0.97900  0.65559  1.0000
  C   C2494     1.0  0.75787  0.08003  0.88237  1.0000
  C   C2495     1.0  0.94480  0.40379  0.71004  1.0000
  C   C2496     1.0  0.84256  0.37290  0.66302  1.0000
  S   S676      1.0  0.90344  0.34052  0.64155  1.0000
  H   H2985     1.0  0.85885  0.43377  0.67157  1.0000
  H   H2986     1.0  0.75038  0.43053  0.90997  1.0000
  H   H2987     1.0  0.87373  0.22944  0.75049  1.0000
  H   H2988     1.0  0.94466  0.37930  0.64548  1.0000
  H   H2989     1.0  0.87290  0.38422  0.63986  1.0000
  Fe  Fe339     1.0  0.73739  0.99430  0.83196  1.0000
  H   H2990     1.0  0.83244  0.17589  0.90568  1.0000
  H   H2991     1.0  0.75565  0.02268  0.90620  1.0000
  C   C2497     1.0  0.74339  0.05145  0.93899  1.0000
  H   H2992     1.0  0.84068  0.23806  0.67799  1.0000
  C   C2498     1.0  0.85158  0.41201  0.65963  1.0000
  H   H2993     1.0  0.83840  0.46781  0.78722  1.0000
  H   H2994     1.0  0.75880  0.45455  0.71033  1.0000
  H   H2995     1.0  0.84943  0.23924  0.75956  1.0000
  C   C2499     1.0  0.94336  0.39338  0.69648  1.0000
  C   C2500     1.0  0.96235  0.16891  0.79428  1.0000
  C   C2501     1.0  0.97485  0.16678  0.80721  1.0000
  H   H2996     1.0  0.93265  0.36304  0.68712  1.0000
  H   H2997     1.0  0.86184  0.25650  0.73097  1.0000
  H   H2998     1.0  0.95355  0.39925  0.64956  1.0000
  H   H2999     1.0  0.85267  0.11916  0.94974  1.0000
  H   H3000     1.0  0.82917  0.37523  0.67344  1.0000
  H   H3001     1.0  0.83317  0.20456  0.76204  1.0000
  C   C2502     1.0  0.85899  0.22630  0.75527  1.0000
  H   H3002     1.0  0.96291  0.27217  0.68199  1.0000
  C   C2503     1.0  0.81908  0.43815  0.65260  1.0000
  H   H3003     1.0  0.93197  0.41028  0.71855  1.0000
  H   H3004     1.0  0.77149  0.01279  0.74893  1.0000
  H   H3005     1.0  0.84995  0.26953  0.67466  1.0000
  H   H3006     1.0  0.82260  0.22761  0.75105  1.0000
  H   H3007     1.0  0.86395  0.13099  0.91826  1.0000
  C   C2504     1.0  0.76415  0.06408  0.87324  1.0000
  H   H3008     1.0  0.74094  0.25914  0.82943  1.0000
  C   C2505     1.0  0.84500  0.24191  0.68986  1.0000
  C   C2506     1.0  0.85019  0.25965  0.68794  1.0000
  C   C2507     1.0  0.74736  0.23532  0.88089  1.0000
  H   H3009     1.0  0.84074  0.17968  0.95199  1.0000
  C   C2508     1.0  0.78818  0.17376  0.95689  1.0000
  H   H3010     1.0  0.97394  0.15579  0.81963  1.0000
  S   S677      1.0  0.75315  0.44802  0.64719  1.0000
  C   C2509     1.0  0.85671  0.25182  0.72011  1.0000
  H   H3011     1.0  0.86742  0.19158  0.74927  1.0000
  C   C2510     1.0  0.84563  0.22905  0.70688  1.0000
  H   H3012     1.0  0.93187  0.39249  0.66339  1.0000
  H   H3013     1.0  0.77106  0.41668  0.91944  1.0000
  C   C2511     1.0  0.85156  0.23357  0.72254  1.0000
  H   H3014     1.0  0.87989  0.20520  0.72907  1.0000
  C   C2512     1.0  0.80284  0.99855  0.64247  1.0000
  C   C2513     1.0  0.94731  0.35812  0.67987  1.0000
  C   C2514     1.0  0.86558  0.20200  0.73610  1.0000
  C   C2515     1.0  0.97210  0.31417  0.65737  1.0000
  H   H3015     1.0  0.77912  0.06043  0.86756  1.0000
  H   H3016     1.0  0.82785  0.20765  0.73879  1.0000
  H   H3017     1.0  0.85464  0.37301  0.67018  1.0000
  H   H3018     1.0  0.84169  0.21538  0.70760  1.0000
  C   C2516     1.0  0.97773  0.38711  0.68810  1.0000
  N   N167      1.0  0.85234  0.21954  0.74029  1.0000
  C   C2517     1.0  0.76607  0.42563  0.90656  1.0000
  H   H3019     1.0  0.76048  0.98519  0.69743  1.0000
  C   C2518     1.0  0.76396  0.42835  0.87384  1.0000
  C   C2519     1.0  0.84492  0.16490  0.95770  1.0000
  C   C2520     1.0  0.76674  0.38583  0.87973  1.0000
  C   C2521     1.0  0.97606  0.36589  0.65973  1.0000
  H   H3020     1.0  0.86064  0.19460  0.72665  1.0000
  H   H3021     1.0  0.74094  0.35109  0.90177  1.0000
  H   H3022     1.0  0.75305  0.99919  0.75894  1.0000
  C   C2522     1.0  0.97721  0.19518  0.77525  1.0000
  C   C2523     1.0  0.83314  0.21468  0.74833  1.0000
  H   H3023     1.0  0.74597  0.40015  0.92217  1.0000
  H   H3024     1.0  0.74592  0.34512  0.66295  1.0000
  H   H3025     1.0  0.74789  0.02216  0.74430  1.0000
  N   N168      1.0  0.95763  0.37406  0.67056  1.0000
  H   H3026     1.0  0.77722  0.00676  0.69975  1.0000
  H   H3027     1.0  0.96653  0.08027  0.70866  1.0000
  Fe  Fe340     1.0  0.76666  0.47341  0.64515  1.0000
  H   H3028     1.0  0.76434  0.05021  0.91370  1.0000
  H   H3029     1.0  0.94910  0.24834  0.70752  1.0000
  C   C2524     1.0  0.97385  0.24100  0.72109  1.0000
  C   C2525     1.0  0.81727  0.00741  0.64530  1.0000
  C   C2526     1.0  0.97116  0.26437  0.69279  1.0000
  H   H3030     1.0  0.93138  0.08661  0.71580  1.0000
  C   C2527     1.0  0.73759  0.99558  0.90926  1.0000
  H   H3031     1.0  0.77542  0.38963  0.86610  1.0000
  C   C2528     1.0  0.96782  0.05539  0.69649  1.0000
  S   S678      1.0  0.78695  0.46762  0.84253  1.0000
  H   H3032     1.0  0.76165  0.36071  0.87154  1.0000
  C   C2529     1.0  0.79603  0.18595  0.96464  1.0000
  H   H3033     1.0  0.97808  0.20616  0.76283  1.0000
  S   S679      1.0  0.84448  0.98193  0.78376  1.0000
  C   C2530     1.0  0.78926  0.98421  0.78074  1.0000
  C   C2531     1.0  0.80912  0.98248  0.77616  1.0000
  H   H3034     1.0  0.74721  0.06413  0.94174  1.0000
  C   C2532     1.0  0.74083  0.35305  0.65020  1.0000
  H   H3035     1.0  0.73557  0.25824  0.93999  1.0000
  C   C2533     1.0  0.73503  0.19867  0.94104  1.0000
  Fe  Fe341     1.0  0.87726  0.72844  0.98204  1.0000
  S   S680      1.0  0.88733  0.70028  0.99894  1.0000
  Fe  Fe342     1.0  0.84110  0.73570  0.01121  1.0000
  S   S681      1.0  0.84874  0.70768  0.02984  1.0000
  S   S682      1.0  0.81373  0.75252  0.02441  1.0000
  Fe  Fe343     1.0  0.87798  0.71521  0.02430  1.0000
  S   S683      1.0  0.89534  0.70946  0.04809  1.0000
  Fe  Fe344     1.0  0.85694  0.69570  0.00279  1.0000
  S   S684      1.0  0.85193  0.66668  0.99995  1.0000
  S   S685      1.0  0.86997  0.74391  0.00717  1.0000
  H   H3036     1.0  0.89579  0.81815  0.17587  1.0000
  S   S686      1.0  0.76540  0.97050  0.16766  1.0000
  Fe  Fe345     1.0  0.76156  0.62496  0.98381  1.0000
  C   C2534     1.0  0.86432  0.86870  0.18302  1.0000
  H   H3037     1.0  0.79201  0.49802  0.20729  1.0000
  H   H3038     1.0  0.92968  0.72527  0.27331  1.0000
  C   C2535     1.0  0.75641  0.49106  0.18716  1.0000
  S   S687      1.0  0.76886  0.59287  0.99012  1.0000
  Fe  Fe346     1.0  0.76792  0.57638  0.28700  1.0000
  S   S688      1.0  0.79976  0.56845  0.28088  1.0000
  H   H3039     1.0  0.93694  0.85511  0.16626  1.0000
  S   S689      1.0  0.77456  0.83090  0.98222  1.0000
  H   H3040     1.0  0.95451  0.71974  0.27349  1.0000
  H   H3041     1.0  0.78750  0.76684  0.12574  1.0000
  C   C2536     1.0  0.78904  0.85966  0.04394  1.0000
  C   C2537     1.0  0.81049  0.54714  0.23601  1.0000
  S   S690      1.0  0.86869  0.71253  0.27805  1.0000
  Fe  Fe347     1.0  0.89785  0.76609  0.13218  1.0000
  S   S691      1.0  0.87797  0.75901  0.15975  1.0000
  S   S692      1.0  0.88962  0.76881  0.10296  1.0000
  Fe  Fe348     1.0  0.92559  0.77828  0.15259  1.0000
  S   S693      1.0  0.90769  0.77240  0.18131  1.0000
  S   S694      1.0  0.95350  0.78958  0.14694  1.0000
  Fe  Fe349     1.0  0.90454  0.74593  0.17204  1.0000
  S   S695      1.0  0.90955  0.71795  0.19198  1.0000
  Fe  Fe350     1.0  0.88273  0.78616  0.16668  1.0000
  S   S696      1.0  0.85838  0.80516  0.18201  1.0000
  S   S697      1.0  0.92423  0.75078  0.14391  1.0000
  S   S698      1.0  0.90085  0.79422  0.13855  1.0000
  Fe  Fe351     1.0  0.76044  0.91713  0.13488  1.0000
  S   S699      1.0  0.77001  0.88928  0.15276  1.0000
  H   H3042     1.0  0.91945  0.84465  0.19961  1.0000
  Fe  Fe352     1.0  0.77061  0.94027  0.16177  1.0000
  S   S700      1.0  0.78119  0.91405  0.18145  1.0000
  C   C2538     1.0  0.74637  0.90532  0.09409  1.0000
  Fe  Fe353     1.0  0.79490  0.90240  0.15455  1.0000
  S   S701      1.0  0.82569  0.88926  0.14626  1.0000
  H   H3043     1.0  0.92574  0.70098  0.01704  1.0000
  S   S702      1.0  0.78618  0.92960  0.13510  1.0000
  H   H3044     1.0  0.91676  0.73104  0.24475  1.0000
  C   C2539     1.0  0.96583  0.79254  0.16437  1.0000
  C   C2540     1.0  0.95769  0.79081  0.18364  1.0000
  C   C2541     1.0  0.87873  0.64565  0.23938  1.0000
  H   H3045     1.0  0.94381  0.78666  0.18833  1.0000
  H   H3046     1.0  0.84693  0.76819  0.12134  1.0000
  C   C2542     1.0  0.84858  0.82780  0.17077  1.0000
  C   C2543     1.0  0.83128  0.83725  0.17963  1.0000
  C   C2544     1.0  0.82365  0.85580  0.17175  1.0000
  C   C2545     1.0  0.83356  0.86519  0.15519  1.0000
  C   C2546     1.0  0.85076  0.85567  0.14621  1.0000
  C   C2547     1.0  0.85814  0.83695  0.15384  1.0000
  H   H3047     1.0  0.82385  0.83026  0.19275  1.0000
  H   H3048     1.0  0.81046  0.86306  0.17883  1.0000
  H   H3049     1.0  0.85852  0.86289  0.13344  1.0000
  H   H3050     1.0  0.87143  0.82981  0.14687  1.0000
  H   H3051     1.0  0.81402  0.84211  0.06404  1.0000
  H   H3052     1.0  0.95093  0.74261  0.01038  1.0000
  C   C2548     1.0  0.74167  0.87886  0.07253  1.0000
  H   H3053     1.0  0.84882  0.71124  0.07128  1.0000
  C   C2549     1.0  0.88081  0.71443  0.25434  1.0000
  C   C2550     1.0  0.89575  0.70030  0.24857  1.0000
  C   C2551     1.0  0.90441  0.70153  0.22940  1.0000
  C   C2552     1.0  0.89842  0.71705  0.21589  1.0000
  C   C2553     1.0  0.88368  0.73134  0.22166  1.0000
  C   C2554     1.0  0.87476  0.72991  0.24080  1.0000
  H   H3054     1.0  0.90044  0.68820  0.25875  1.0000
  H   H3055     1.0  0.91571  0.69036  0.22499  1.0000
  H   H3056     1.0  0.87892  0.74335  0.21131  1.0000
  H   H3057     1.0  0.86313  0.74086  0.24512  1.0000
  C   C2555     1.0  0.96734  0.79504  0.19675  1.0000
  H   H3058     1.0  0.84003  0.71054  0.09631  1.0000
  N   N169      1.0  0.94692  0.72363  0.24562  1.0000
  H   H3059     1.0  0.85875  0.72350  0.08433  1.0000
  C   C2556     1.0  0.80240  0.96780  0.09946  1.0000
  C   C2557     1.0  0.78380  0.49073  0.20122  1.0000
  H   H3060     1.0  0.81268  0.95625  0.13359  1.0000
  H   H3061     1.0  0.73720  0.49671  0.23003  1.0000
  C   C2558     1.0  0.94642  0.70311  0.24730  1.0000
  C   C2559     1.0  0.90865  0.82334  0.16690  1.0000
  H   H3062     1.0  0.79438  0.74901  0.09976  1.0000
  H   H3063     1.0  0.84489  0.63944  0.26355  1.0000
  S   S703      1.0  0.77584  0.65104  0.97970  1.0000
  C   C2560     1.0  0.93209  0.84340  0.16186  1.0000
  H   H3064     1.0  0.76097  0.89593  0.22238  1.0000
  S   S704      1.0  0.84723  0.72320  0.98443  1.0000
  H   H3065     1.0  0.82709  0.77735  0.98953  1.0000
  H   H3066     1.0  0.98215  0.70830  0.25512  1.0000
  H   H3067     1.0  0.85465  0.75038  0.09534  1.0000
  H   H3068     1.0  0.97581  0.70397  0.98912  1.0000
  H   H3069     1.0  0.73481  0.92654  0.07232  1.0000
  H   H3070     1.0  0.82844  0.95016  0.08768  1.0000
  H   H3071     1.0  0.74240  0.49292  0.25356  1.0000
  H   H3072     1.0  0.81346  0.77658  0.13683  1.0000
  H   H3073     1.0  0.74679  0.55553  0.98052  1.0000
  H   H3074     1.0  0.83539  0.51785  0.23076  1.0000
  C   C2561     1.0  0.80360  0.80052  0.98582  1.0000
  C   C2562     1.0  0.80249  0.97413  0.16789  1.0000
  C   C2563     1.0  0.89496  0.72617  0.06278  1.0000
  C   C2564     1.0  0.88923  0.74561  0.05700  1.0000
  C   C2565     1.0  0.88839  0.75846  0.06928  1.0000
  C   C2566     1.0  0.89316  0.75206  0.08750  1.0000
  C   C2567     1.0  0.89928  0.73265  0.09314  1.0000
  C   C2568     1.0  0.90032  0.71979  0.08075  1.0000
  H   H3075     1.0  0.88536  0.75077  0.04310  1.0000
  H   H3076     1.0  0.88390  0.77348  0.06474  1.0000
  H   H3077     1.0  0.90298  0.72752  0.10713  1.0000
  H   H3078     1.0  0.90491  0.70477  0.08531  1.0000
  C   C2569     1.0  0.83036  0.66252  0.99505  1.0000
  C   C2570     1.0  0.82733  0.64372  0.99693  1.0000
  C   C2571     1.0  0.81057  0.63987  0.99267  1.0000
  C   C2572     1.0  0.79683  0.65482  0.98619  1.0000
  C   C2573     1.0  0.81652  0.67746  0.98874  1.0000
  C   C2574     1.0  0.80216  0.48022  0.24420  1.0000
  H   H3079     1.0  0.77116  0.54552  0.98123  1.0000
  C   C2575     1.0  0.80269  0.77343  0.01142  1.0000
  C   C2576     1.0  0.81252  0.78309  0.99498  1.0000
  H   H3080     1.0  0.78946  0.68527  0.97911  1.0000
  C   C2577     1.0  0.78479  0.80822  0.99293  1.0000
  C   C2578     1.0  0.77480  0.79815  0.00895  1.0000
  C   C2579     1.0  0.78382  0.78098  0.01832  1.0000
  H   H3081     1.0  0.76021  0.80368  0.01431  1.0000
  H   H3082     1.0  0.77611  0.77350  0.03096  1.0000
  C   C2580     1.0  0.83430  0.81704  0.06181  1.0000
  H   H3083     1.0  0.81867  0.69197  0.98718  1.0000
  S   S705      1.0  0.81607  0.61203  0.29559  1.0000
  H   H3084     1.0  0.77699  0.86992  0.03845  1.0000
  H   H3085     1.0  0.74366  0.48958  0.15537  1.0000
  H   H3086     1.0  0.98217  0.74403  0.27639  1.0000
  H   H3087     1.0  0.97124  0.60088  0.29973  1.0000
  C   C2581     1.0  0.86650  0.88570  0.17074  1.0000
  H   H3088     1.0  0.83796  0.63207  0.00178  1.0000
  C   C2582     1.0  0.95265  0.72606  0.98031  1.0000
  C   C2583     1.0  0.94374  0.72832  0.26499  1.0000
  H   H3089     1.0  0.84060  0.81857  0.07355  1.0000
  C   C2584     1.0  0.94809  0.72774  0.01382  1.0000
  H   H3090     1.0  0.77665  0.55516  0.22623  1.0000
  C   C2585     1.0  0.92061  0.73554  0.99870  1.0000
  H   H3091     1.0  0.74147  0.59554  0.22490  1.0000
  C   C2586     1.0  0.82551  0.50794  0.23447  1.0000
  H   H3092     1.0  0.90903  0.65262  0.19729  1.0000
  H   H3093     1.0  0.80320  0.56202  0.23694  1.0000
  C   C2587     1.0  0.75945  0.84539  0.25994  1.0000
  C   C2588     1.0  0.77357  0.96037  0.09202  1.0000
  H   H3094     1.0  0.93257  0.69939  0.25542  1.0000
  H   H3095     1.0  0.93843  0.72612  0.02787  1.0000
  C   C2589     1.0  0.86733  0.66394  0.23908  1.0000
  C   C2590     1.0  0.87174  0.67797  0.22293  1.0000
  C   C2591     1.0  0.78067  0.50042  0.30019  1.0000
  C   C2592     1.0  0.73887  0.84690  0.23753  1.0000
  H   H3096     1.0  0.85432  0.89697  0.16952  1.0000
  H   H3097     1.0  0.82587  0.65775  0.26965  1.0000
  H   H3098     1.0  0.86740  0.65062  0.27694  1.0000
  H   H3099     1.0  0.86430  0.69245  0.22157  1.0000
  Fe  Fe354     1.0  0.75540  0.90332  0.17805  1.0000
  H   H3100     1.0  0.88990  0.68480  0.19604  1.0000
  C   C2593     1.0  0.91694  0.83272  0.19357  1.0000
  H   H3101     1.0  0.94371  0.83084  0.16307  1.0000
  H   H3102     1.0  0.92954  0.82125  0.19458  1.0000
  H   H3103     1.0  0.92039  0.81092  0.16680  1.0000
  C   C2594     1.0  0.73480  0.59309  0.06245  1.0000
  C   C2595     1.0  0.93065  0.73442  0.23639  1.0000
  H   H3104     1.0  0.94413  0.74358  0.26446  1.0000
  N   N170      1.0  0.83050  0.73692  0.07880  1.0000
  C   C2596     1.0  0.81411  0.73035  0.07439  1.0000
  C   C2597     1.0  0.83841  0.74941  0.06156  1.0000
  C   C2598     1.0  0.84509  0.71986  0.08290  1.0000
  C   C2599     1.0  0.82543  0.74750  0.09493  1.0000
  C   C2600     1.0  0.83985  0.75351  0.10164  1.0000
  C   C2601     1.0  0.80633  0.75271  0.10400  1.0000
  C   C2602     1.0  0.83553  0.76383  0.11656  1.0000
  C   C2603     1.0  0.80214  0.76305  0.11897  1.0000
  C   C2604     1.0  0.81671  0.76857  0.12524  1.0000
  H   H3105     1.0  0.80316  0.74250  0.06964  1.0000
  H   H3106     1.0  0.81856  0.72223  0.06236  1.0000
  H   H3107     1.0  0.80738  0.72085  0.08677  1.0000
  H   H3108     1.0  0.84323  0.74181  0.04921  1.0000
  H   H3109     1.0  0.85084  0.75489  0.06359  1.0000
  H   H3110     1.0  0.82750  0.76187  0.05749  1.0000
  H   H3111     1.0  0.75816  0.96251  0.09359  1.0000
  H   H3112     1.0  0.80114  0.86748  0.04182  1.0000
  H   H3113     1.0  0.84964  0.66959  0.28486  1.0000
  H   H3114     1.0  0.82936  0.68988  0.26479  1.0000
  H   H3115     1.0  0.96179  0.71821  0.01579  1.0000
  C   C2605     1.0  0.83841  0.65434  0.25853  1.0000
  C   C2606     1.0  0.86047  0.66549  0.27257  1.0000
  H   H3116     1.0  0.87154  0.67457  0.27028  1.0000
  H   H3117     1.0  0.75235  0.68320  0.99541  1.0000
  H   H3118     1.0  0.74323  0.49907  0.18301  1.0000
  H   H3119     1.0  0.90469  0.82678  0.20297  1.0000
  H   H3120     1.0  0.76172  0.50095  0.01305  1.0000
  C   C2607     1.0  0.73932  0.58118  0.23109  1.0000
  N   N171      1.0  0.85197  0.66787  0.25527  1.0000
  H   H3121     1.0  0.90562  0.82786  0.15216  1.0000
  C   C2608     1.0  0.74730  0.89616  0.23167  1.0000
  H   H3122     1.0  0.83297  0.65451  0.24531  1.0000
  H   H3123     1.0  0.93134  0.69900  0.99230  1.0000
  H   H3124     1.0  0.91108  0.73296  0.01268  1.0000
  N   N172      1.0  0.91372  0.83915  0.17368  1.0000
  H   H3125     1.0  0.82056  0.54345  0.24634  1.0000
  C   C2609     1.0  0.84085  0.68741  0.25243  1.0000
  C   C2610     1.0  0.89787  0.85546  0.17277  1.0000
  C   C2611     1.0  0.89352  0.64161  0.22442  1.0000
  C   C2612     1.0  0.88655  0.67376  0.20805  1.0000
  H   H3126     1.0  0.93110  0.84708  0.14648  1.0000
  H   H3127     1.0  0.84997  0.69833  0.25102  1.0000
  H   H3128     1.0  0.88567  0.90112  0.14985  1.0000
  C   C2613     1.0  0.83336  0.48883  0.23394  1.0000
  C   C2614     1.0  0.78561  0.53567  0.25963  1.0000
  S   S706      1.0  0.73769  0.86152  0.06055  1.0000
  C   C2615     1.0  0.97094  0.71456  0.97770  1.0000
  H   H3129     1.0  0.81870  0.54738  0.22134  1.0000
  H   H3130     1.0  0.74001  0.87101  0.14446  1.0000
  H   H3131     1.0  0.83394  0.69017  0.23966  1.0000
  H   H3132     1.0  0.78000  0.82097  0.03069  1.0000
  H   H3133     1.0  0.91328  0.73272  0.98782  1.0000
  H   H3134     1.0  0.84863  0.48465  0.22997  1.0000
  H   H3135     1.0  0.81248  0.85584  0.00996  1.0000
  H   H3136     1.0  0.78753  0.86101  0.00835  1.0000
  H   H3137     1.0  0.76516  0.84329  0.03259  1.0000
  H   H3138     1.0  0.73726  0.60783  0.08445  1.0000
  C   C2616     1.0  0.74868  0.51900  0.98127  1.0000
  C   C2617     1.0  0.82257  0.96449  0.12292  1.0000
  H   H3139     1.0  0.74884  0.95203  0.20860  1.0000
  C   C2618     1.0  0.74413  0.95911  0.22090  1.0000
  H   H3140     1.0  0.82691  0.47933  0.29100  1.0000
  H   H3141     1.0  0.77896  0.55066  0.26062  1.0000
  H   H3142     1.0  0.87639  0.63437  0.25133  1.0000
  C   C2619     1.0  0.77744  0.83345  0.03788  1.0000
  H   H3143     1.0  0.87692  0.84051  0.19302  1.0000
  C   C2620     1.0  0.77199  0.48628  0.29656  1.0000
  H   H3144     1.0  0.91288  0.87571  0.15133  1.0000
  C   C2621     1.0  0.78450  0.94633  0.08213  1.0000
  Fe  Fe355     1.0  0.74632  0.84543  0.99653  1.0000
  C   C2622     1.0  0.76671  0.50022  0.19561  1.0000
  Fe  Fe356     1.0  0.73954  0.59433  0.00822  1.0000
  C   C2623     1.0  0.79906  0.84982  0.01353  1.0000
  H   H3145     1.0  0.77165  0.53170  0.22972  1.0000
  H   H3146     1.0  0.73986  0.60377  0.05095  1.0000
  C   C2624     1.0  0.98266  0.71854  0.24210  1.0000
  N   N173      1.0  0.93960  0.72332  0.99876  1.0000
  C   C2625     1.0  0.74934  0.87271  0.08938  1.0000
  H   H3147     1.0  0.75842  0.89770  0.25644  1.0000
  H   H3148     1.0  0.80073  0.83850  0.00488  1.0000
  C   C2626     1.0  0.80556  0.51372  0.23995  1.0000
  C   C2627     1.0  0.89743  0.65566  0.20879  1.0000
  C   C2628     1.0  0.89970  0.87310  0.16053  1.0000
  H   H3149     1.0  0.94962  0.69316  0.00667  1.0000
  C   C2629     1.0  0.96790  0.74103  0.21781  1.0000
  C   C2630     1.0  0.81312  0.95355  0.08902  1.0000
  H   H3150     1.0  0.78385  0.85566  0.05943  1.0000
  N   N174      1.0  0.79438  0.84281  0.03425  1.0000
  H   H3151     1.0  0.77290  0.82855  0.05334  1.0000
  C   C2631     1.0  0.79415  0.49923  0.24480  1.0000
  C   C2632     1.0  0.87966  0.85372  0.18394  1.0000
  H   H3152     1.0  0.96080  0.79413  0.21154  1.0000
  H   H3153     1.0  0.79112  0.53854  0.21184  1.0000
  C   C2633     1.0  0.96572  0.72785  0.23510  1.0000
  C   C2634     1.0  0.74584  0.89708  0.25101  1.0000
  C   C2635     1.0  0.81057  0.82888  0.04073  1.0000
  C   C2636     1.0  0.81899  0.83054  0.05613  1.0000
  H   H3154     1.0  0.83388  0.95403  0.11618  1.0000
  C   C2637     1.0  0.79993  0.67360  0.98420  1.0000
  H   H3155     1.0  0.80841  0.62536  0.99420  1.0000
  H   H3156     1.0  0.85043  0.86684  0.19129  1.0000
  H   H3157     1.0  0.95595  0.74874  0.21122  1.0000
  N   N175      1.0  0.79662  0.53379  0.24044  1.0000
  H   H3158     1.0  0.75768  0.88090  0.11295  1.0000
  C   C2638     1.0  0.81156  0.48124  0.29265  1.0000
  H   H3159     1.0  0.79498  0.53089  0.27052  1.0000
  C   C2639     1.0  0.81816  0.81276  0.03176  1.0000
  S   S707      1.0  0.75279  0.58721  0.26147  1.0000
  H   H3160     1.0  0.95741  0.69387  0.25514  1.0000
  C   C2640     1.0  0.74117  0.69611  0.99391  1.0000
  H   H3161     1.0  0.75311  0.85766  0.09439  1.0000
  C   C2641     1.0  0.88415  0.88792  0.15957  1.0000
  C   C2642     1.0  0.83354  0.79946  0.03743  1.0000
  C   C2643     1.0  0.84162  0.80162  0.05242  1.0000
  H   H3162     1.0  0.81218  0.81026  0.02029  1.0000
  H   H3163     1.0  0.83912  0.78742  0.03011  1.0000
  H   H3164     1.0  0.85355  0.79132  0.05682  1.0000
  H   H3165     1.0  0.82968  0.97180  0.13079  1.0000
  H   H3166     1.0  0.77755  0.93775  0.07605  1.0000
  H   H3167     1.0  0.75664  0.55426  0.00150  1.0000
  C   C2644     1.0  0.75184  0.88585  0.10002  1.0000
  H   H3168     1.0  0.93156  0.73090  0.22202  1.0000
  H   H3169     1.0  0.73661  0.84947  0.22293  1.0000
  H   H3170     1.0  0.74855  0.70848  0.99182  1.0000
  H   H3171     1.0  0.77969  0.51367  0.99843  1.0000
  H   H3172     1.0  0.77892  0.50245  0.24931  1.0000
  C   C2645     1.0  0.78348  0.54000  0.22645  1.0000
  H   H3173     1.0  0.80639  0.95915  0.16714  1.0000
  H   H3174     1.0  0.98082  0.77574  0.26913  1.0000
  C   C2646     1.0  0.75660  0.54650  0.98984  1.0000
  C   C2647     1.0  0.76543  0.51538  0.00759  1.0000
  S   S708      1.0  0.95158  0.68345  0.29721  1.0000
  H   H3175     1.0  0.90209  0.62756  0.22503  1.0000
  H   H3176     1.0  0.76704  0.52141  0.01992  1.0000
  C   C2648     1.0  0.74024  0.55499  0.25734  1.0000
  S   S709      1.0  0.74740  0.92236  0.10794  1.0000
  H   H3177     1.0  0.94856  0.69895  0.23306  1.0000
  H   H3178     1.0  0.77382  0.52733  0.26386  1.0000
  S   S710      1.0  0.74399  0.93021  0.15998  1.0000
  C   C2649     1.0  0.74332  0.57348  0.24941  1.0000
  H   H3179     1.0  0.92974  0.75002  0.23507  1.0000
  N   N176      1.0  0.75067  0.52772  0.99725  1.0000
  S   S711      1.0  0.74551  0.87431  0.00345  1.0000
  H   H3180     1.0  0.76142  0.51484  0.19760  1.0000
  H   H3181     1.0  0.76816  0.85067  0.22960  1.0000
  H   H3182     1.0  0.75663  0.48829  0.29823  1.0000
  C   C2650     1.0  0.93650  0.70328  0.00387  1.0000
  H   H3183     1.0  0.74754  0.84117  0.28907  1.0000
  H   H3184     1.0  0.92166  0.75090  0.99592  1.0000
  C   C2651     1.0  0.80424  0.94298  0.08056  1.0000
  H   H3185     1.0  0.81265  0.93182  0.07309  1.0000
  H   H3186     1.0  0.77320  0.84654  0.26275  1.0000
  C   C2652     1.0  0.75667  0.84769  0.24125  1.0000
  C   C2653     1.0  0.80050  0.49797  0.29831  1.0000
  Fe  Fe357     1.0  0.88352  0.69354  0.30121  1.0000
  C   C2654     1.0  0.74447  0.84225  0.27502  1.0000
  S   S712      1.0  0.90551  0.66807  0.29600  1.0000
  C   C2655     1.0  0.78227  0.97103  0.10057  1.0000
  H   H3187     1.0  0.73585  0.66606  0.98129  1.0000
  H   H3188     1.0  0.81136  0.80817  0.97332  1.0000
  H   H3189     1.0  0.74271  0.54912  0.27164  1.0000
  C   C2656     1.0  0.73686  0.89836  0.06622  1.0000
  C   C2657     1.0  0.73907  0.91150  0.07704  1.0000
  H   H3190     1.0  0.73481  0.53729  0.02305  1.0000
  H   H3191     1.0  0.73465  0.73441  0.97209  1.0000
  C   C2658     1.0  0.98394  0.79778  0.15851  1.0000
  Fe  Fe358     1.0  0.80084  0.58654  0.30197  1.0000
  H   H3192     1.0  0.76536  0.47561  0.14591  1.0000
  C   C2659     1.0  0.98397  0.58940  0.29897  1.0000
  S   S713      1.0  0.76389  0.96480  0.61564  1.0000
  C   C2660     1.0  0.74870  0.89731  0.58764  1.0000
  S   S714      1.0  0.74407  0.49395  0.63121  1.0000
  S   S715      1.0  0.76187  0.95441  0.56655  1.0000
  C   C2661     1.0  0.77348  0.53674  0.54759  1.0000
  H   H3193     1.0  0.84626  0.58445  0.31205  1.0000
  C   C2662     1.0  0.84524  0.47631  0.61952  1.0000
  S   S716      1.0  0.95370  0.75130  0.62020  1.0000
  H   H3194     1.0  0.79795  0.49682  0.51376  1.0000
  H   H3195     1.0  0.96324  0.69635  0.46635  1.0000
  H   H3196     1.0  0.74788  0.66956  0.51254  1.0000
  Fe  Fe359     1.0  0.96361  0.74520  0.59031  1.0000
  S   S717      1.0  0.94761  0.75357  0.56490  1.0000
  H   H3197     1.0  0.83537  0.51532  0.56727  1.0000
  H   H3198     1.0  0.77348  0.49057  0.54220  1.0000
  Fe  Fe360     1.0  0.74408  0.84809  0.50371  1.0000
  H   H3199     1.0  0.74475  0.51099  0.46939  1.0000
  S   S718      1.0  0.90065  0.70552  0.31665  1.0000
  Fe  Fe361     1.0  0.79545  0.54512  0.30604  1.0000
  S   S719      1.0  0.75157  0.87717  0.49181  1.0000
  C   C2663     1.0  0.77792  0.51419  0.49659  1.0000
  S   S720      1.0  0.76237  0.82227  0.51768  1.0000
  S   S721      1.0  0.77834  0.58635  0.48314  1.0000
  H   H3200     1.0  0.76394  0.78559  0.46799  1.0000
  Fe  Fe362     1.0  0.76630  0.59768  0.45622  1.0000
  S   S722      1.0  0.77862  0.57975  0.43308  1.0000
  Fe  Fe363     1.0  0.78218  0.61628  0.48237  1.0000
  S   S723      1.0  0.80998  0.62295  0.48625  1.0000
  Fe  Fe364     1.0  0.87291  0.72307  0.51136  1.0000
  S   S724      1.0  0.88270  0.74072  0.48339  1.0000
  S   S725      1.0  0.88720  0.71663  0.53769  1.0000
  Fe  Fe365     1.0  0.83863  0.71512  0.49701  1.0000
  S   S726      1.0  0.84610  0.73228  0.46817  1.0000
  S   S727      1.0  0.81031  0.70494  0.50257  1.0000
  Fe  Fe366     1.0  0.87616  0.71804  0.46998  1.0000
  S   S728      1.0  0.89728  0.70447  0.44691  1.0000
  Fe  Fe367     1.0  0.85165  0.75320  0.48418  1.0000
  S   S729      1.0  0.84182  0.78463  0.47544  1.0000
  S   S730      1.0  0.86839  0.69930  0.49802  1.0000
  S   S731      1.0  0.84217  0.73705  0.51300  1.0000
  C   C2664     1.0  0.74641  0.88745  0.57393  1.0000
  S   S732      1.0  0.79967  0.56256  0.32681  1.0000
  C   C2665     1.0  0.86382  0.60148  0.31962  1.0000
  H   H3201     1.0  0.78714  0.75933  0.50868  1.0000
  C   C2666     1.0  0.77609  0.75254  0.50543  1.0000
  H   H3202     1.0  0.75353  0.70400  0.47832  1.0000
  Fe  Fe368     1.0  0.88736  0.68808  0.34343  1.0000
  S   S733      1.0  0.91033  0.66233  0.34097  1.0000
  S   S734      1.0  0.87132  0.70053  0.36970  1.0000
  Fe  Fe369     1.0  0.89165  0.65376  0.32412  1.0000
  S   S735      1.0  0.88666  0.62342  0.32802  1.0000
  S   S736      1.0  0.76343  0.55232  0.31127  1.0000
  C   C2667     1.0  0.75034  0.50702  0.52877  1.0000
  S   S737      1.0  0.86808  0.67842  0.32811  1.0000
  C   C2668     1.0  0.76828  0.53697  0.46204  1.0000
  C   C2669     1.0  0.74274  0.53199  0.56620  1.0000
  C   C2670     1.0  0.86652  0.61991  0.32005  1.0000
  H   H3203     1.0  0.75667  0.92591  0.44021  1.0000
  C   C2671     1.0  0.95869  0.66519  0.63304  1.0000
  H   H3204     1.0  0.95955  0.67706  0.62141  1.0000
  H   H3205     1.0  0.95499  0.67637  0.48233  1.0000
  C   C2672     1.0  0.75884  0.74887  0.48191  1.0000
  H   H3206     1.0  0.77072  0.92203  0.45817  1.0000
  C   C2673     1.0  0.75167  0.58943  0.40921  1.0000
  C   C2674     1.0  0.97084  0.65806  0.32327  1.0000
  H   H3207     1.0  0.95721  0.65779  0.33259  1.0000
  C   C2675     1.0  0.89051  0.70407  0.42499  1.0000
  C   C2676     1.0  0.87363  0.71502  0.41991  1.0000
  C   C2677     1.0  0.86827  0.71404  0.40273  1.0000
  C   C2678     1.0  0.87978  0.70226  0.39030  1.0000
  C   C2679     1.0  0.89685  0.69152  0.39519  1.0000
  C   C2680     1.0  0.90218  0.69245  0.41247  1.0000
  H   H3208     1.0  0.86467  0.72426  0.42921  1.0000
  H   H3209     1.0  0.85511  0.72249  0.39901  1.0000
  H   H3210     1.0  0.90582  0.68234  0.38579  1.0000
  H   H3211     1.0  0.91534  0.68400  0.41621  1.0000
  C   C2681     1.0  0.76966  0.57962  0.41237  1.0000
  C   C2682     1.0  0.78103  0.56915  0.39873  1.0000
  C   C2683     1.0  0.77464  0.56866  0.38193  1.0000
  C   C2684     1.0  0.74878  0.91997  0.53507  1.0000
  H   H3212     1.0  0.79491  0.56140  0.40112  1.0000
  H   H3213     1.0  0.78354  0.56054  0.37155  1.0000
  C   C2685     1.0  0.80971  0.64556  0.49144  1.0000
  C   C2686     1.0  0.79280  0.65865  0.49367  1.0000
  C   C2687     1.0  0.79310  0.67678  0.49729  1.0000
  C   C2688     1.0  0.81033  0.68201  0.49836  1.0000
  C   C2689     1.0  0.82721  0.66893  0.49612  1.0000
  C   C2690     1.0  0.82687  0.65071  0.49279  1.0000
  H   H3214     1.0  0.77954  0.65479  0.49258  1.0000
  H   H3215     1.0  0.77997  0.68676  0.49919  1.0000
  H   H3216     1.0  0.84051  0.67276  0.49715  1.0000
  H   H3217     1.0  0.83997  0.64059  0.49119  1.0000
  C   C2691     1.0  0.78457  0.81248  0.50571  1.0000
  C   C2692     1.0  0.79287  0.82136  0.48798  1.0000
  C   C2693     1.0  0.81051  0.81276  0.47879  1.0000
  C   C2694     1.0  0.81966  0.79509  0.48707  1.0000
  C   C2695     1.0  0.81123  0.78622  0.50470  1.0000
  C   C2696     1.0  0.79390  0.79500  0.51411  1.0000
  H   H3218     1.0  0.78575  0.83487  0.48142  1.0000
  H   H3219     1.0  0.81700  0.81975  0.46515  1.0000
  H   H3220     1.0  0.81814  0.77269  0.51125  1.0000
  H   H3221     1.0  0.78751  0.78810  0.52784  1.0000
  C   C2697     1.0  0.74497  0.51853  0.51230  1.0000
  S   S738      1.0  0.77447  0.50742  0.57787  1.0000
  Fe  Fe370     1.0  0.76228  0.48706  0.60356  1.0000
  Fe  Fe371     1.0  0.74871  0.59504  0.49825  1.0000
  C   C2698     1.0  0.82069  0.51663  0.57566  1.0000
  H   H3222     1.0  0.90975  0.70416  0.50380  1.0000
  H   H3223     1.0  0.88453  0.81481  0.52857  1.0000
  C   C2699     1.0  0.93141  0.74251  0.55733  1.0000
  C   C2700     1.0  0.92279  0.72781  0.56909  1.0000
  C   C2701     1.0  0.90926  0.72019  0.56284  1.0000
  C   C2702     1.0  0.90426  0.72701  0.54473  1.0000
  C   C2703     1.0  0.91305  0.74156  0.53286  1.0000
  C   C2704     1.0  0.92645  0.74931  0.53919  1.0000
  H   H3224     1.0  0.92633  0.72250  0.58310  1.0000
  H   H3225     1.0  0.90261  0.70891  0.57214  1.0000
  H   H3226     1.0  0.90961  0.74682  0.51884  1.0000
  H   H3227     1.0  0.93298  0.76071  0.53000  1.0000
  C   C2705     1.0  0.74983  0.71915  0.47853  1.0000
  C   C2706     1.0  0.89938  0.80200  0.55119  1.0000
  H   H3228     1.0  0.76165  0.92468  0.60186  1.0000
  Fe  Fe372     1.0  0.92211  0.67907  0.31289  1.0000
  H   H3229     1.0  0.82231  0.48382  0.60406  1.0000
  H   H3230     1.0  0.81573  0.50284  0.57737  1.0000
  N   N177      1.0  0.74232  0.93783  0.46551  1.0000
  H   H3231     1.0  0.78098  0.73693  0.50858  1.0000
  C   C2707     1.0  0.75858  0.92950  0.54403  1.0000
  C   C2708     1.0  0.97388  0.71756  0.50956  1.0000
  H   H3232     1.0  0.75661  0.90937  0.52667  1.0000
  H   H3233     1.0  0.77395  0.92618  0.54232  1.0000
  H   H3234     1.0  0.84283  0.77065  0.55151  1.0000
  H   H3235     1.0  0.76313  0.89851  0.58809  1.0000
  Fe  Fe373     1.0  0.76789  0.57154  0.33020  1.0000
  S   S739      1.0  0.74368  0.88641  0.43760  1.0000
  N   N178      1.0  0.93767  0.70328  0.48652  1.0000
  S   S740      1.0  0.77270  0.62683  0.45431  1.0000
  S   S741      1.0  0.73613  0.60477  0.47126  1.0000
  C   C2709     1.0  0.75454  0.91699  0.61545  1.0000
  N   N179      1.0  0.83686  0.66857  0.43202  1.0000
  C   C2710     1.0  0.84482  0.67155  0.41141  1.0000
  C   C2711     1.0  0.84766  0.67742  0.44200  1.0000
  C   C2712     1.0  0.84015  0.64777  0.43904  1.0000
  C   C2713     1.0  0.81651  0.67748  0.43511  1.0000
  C   C2714     1.0  0.81103  0.69718  0.42850  1.0000
  C   C2715     1.0  0.80166  0.66721  0.44473  1.0000
  C   C2716     1.0  0.79192  0.70592  0.43103  1.0000
  C   C2717     1.0  0.78259  0.67613  0.44724  1.0000
  C   C2718     1.0  0.77773  0.69537  0.44028  1.0000
  H   H3236     1.0  0.86013  0.66501  0.40851  1.0000
  H   H3237     1.0  0.83689  0.66538  0.40332  1.0000
  H   H3238     1.0  0.84430  0.68680  0.40510  1.0000
  H   H3239     1.0  0.84668  0.69292  0.43694  1.0000
  H   H3240     1.0  0.86312  0.67130  0.43991  1.0000
  H   H3241     1.0  0.84213  0.67545  0.45753  1.0000
  H   H3242     1.0  0.83253  0.64013  0.43203  1.0000
  H   H3243     1.0  0.85554  0.64151  0.43630  1.0000
  H   H3244     1.0  0.83542  0.64441  0.45467  1.0000
  H   H3245     1.0  0.82155  0.70598  0.42131  1.0000
  H   H3246     1.0  0.80436  0.65227  0.45062  1.0000
  H   H3247     1.0  0.78812  0.72094  0.42574  1.0000
  H   H3248     1.0  0.77148  0.66805  0.45469  1.0000
  H   H3249     1.0  0.76289  0.70207  0.44210  1.0000
  N   N180      1.0  0.79421  0.62050  0.35489  1.0000
  C   C2719     1.0  0.77936  0.62123  0.37210  1.0000
  C   C2720     1.0  0.78613  0.63228  0.33834  1.0000
  C   C2721     1.0  0.79884  0.60058  0.35139  1.0000
  C   C2722     1.0  0.81084  0.62778  0.35768  1.0000
  C   C2723     1.0  0.80942  0.64727  0.35875  1.0000
  C   C2724     1.0  0.82857  0.61588  0.36005  1.0000
  C   C2725     1.0  0.82497  0.65450  0.36125  1.0000
  C   C2726     1.0  0.84391  0.62322  0.36286  1.0000
  C   C2727     1.0  0.84222  0.64249  0.36321  1.0000
  H   H3250     1.0  0.77465  0.63585  0.37536  1.0000
  H   H3251     1.0  0.76646  0.61614  0.37043  1.0000
  H   H3252     1.0  0.78466  0.61209  0.38479  1.0000
  H   H3253     1.0  0.79734  0.63347  0.32546  1.0000
  H   H3254     1.0  0.77942  0.64683  0.34079  1.0000
  H   H3255     1.0  0.77481  0.62601  0.33479  1.0000
  H   H3256     1.0  0.80345  0.59047  0.36386  1.0000
  H   H3257     1.0  0.78622  0.59576  0.34864  1.0000
  H   H3258     1.0  0.81016  0.59900  0.33873  1.0000
  H   H3259     1.0  0.79627  0.65708  0.35760  1.0000
  H   H3260     1.0  0.83115  0.60090  0.35942  1.0000
  H   H3261     1.0  0.82377  0.66952  0.36148  1.0000
  H   H3262     1.0  0.85751  0.61400  0.36401  1.0000
  H   H3263     1.0  0.85442  0.64814  0.36470  1.0000
  N   N181      1.0  0.75240  0.53435  0.47827  1.0000
  H   H3264     1.0  0.74791  0.88653  0.39733  1.0000
  H   H3265     1.0  0.91251  0.69369  0.48309  1.0000
  S   S742      1.0  0.74848  0.57894  0.35739  1.0000
  H   H3266     1.0  0.79945  0.52678  0.61931  1.0000
  C   C2728     1.0  0.73995  0.75798  0.47985  1.0000
  C   C2729     1.0  0.95026  0.69052  0.47400  1.0000
  C   C2730     1.0  0.84806  0.51486  0.61205  1.0000
  H   H3267     1.0  0.78934  0.51660  0.48482  1.0000
  H   H3268     1.0  0.76311  0.54579  0.44915  1.0000
  H   H3269     1.0  0.73670  0.96822  0.46280  1.0000
  H   H3270     1.0  0.75537  0.92482  0.62679  1.0000
  C   C2731     1.0  0.78312  0.50274  0.51320  1.0000
  H   H3271     1.0  0.81107  0.52698  0.56691  1.0000
  H   H3272     1.0  0.94455  0.72807  0.46607  1.0000
  C   C2732     1.0  0.83382  0.50901  0.60485  1.0000
  S   S743      1.0  0.98080  0.79064  0.62686  1.0000
  N   N182      1.0  0.82006  0.52251  0.59412  1.0000
  H   H3273     1.0  0.98106  0.60994  0.32541  1.0000
  H   H3274     1.0  0.74274  0.59745  0.41967  1.0000
  H   H3275     1.0  0.82221  0.54826  0.60322  1.0000
  C   C2733     1.0  0.76936  0.49911  0.52921  1.0000
  C   C2734     1.0  0.74312  0.55345  0.48244  1.0000
  C   C2735     1.0  0.84801  0.59865  0.31279  1.0000
  H   H3276     1.0  0.84982  0.52951  0.60998  1.0000
  C   C2736     1.0  0.92003  0.69505  0.49447  1.0000
  C   C2737     1.0  0.75674  0.57857  0.37866  1.0000
  C   C2738     1.0  0.74493  0.55719  0.53826  1.0000
  C   C2739     1.0  0.74868  0.94314  0.55531  1.0000
  H   H3277     1.0  0.90785  0.81320  0.54854  1.0000
  H   H3278     1.0  0.76138  0.93416  0.48575  1.0000
  C   C2740     1.0  0.95177  0.70250  0.53445  1.0000
  S   S744      1.0  0.75349  0.62428  0.49980  1.0000
  H   H3279     1.0  0.87053  0.50653  0.62887  1.0000
  H   H3280     1.0  0.77874  0.54459  0.46529  1.0000
  Fe  Fe374     1.0  0.74351  0.63325  0.47165  1.0000
  C   C2741     1.0  0.76325  0.72906  0.48143  1.0000
  C   C2742     1.0  0.94792  0.70566  0.50123  1.0000
  H   H3281     1.0  0.77900  0.78724  0.48377  1.0000
  H   H3282     1.0  0.78987  0.75774  0.45759  1.0000
  C   C2743     1.0  0.76741  0.77997  0.48246  1.0000
  C   C2744     1.0  0.86025  0.50174  0.62285  1.0000
  H   H3283     1.0  0.75505  0.78474  0.49324  1.0000
  C   C2745     1.0  0.74518  0.58874  0.39249  1.0000
  H   H3284     1.0  0.85460  0.64953  0.31520  1.0000
  C   C2746     1.0  0.76474  0.55190  0.53525  1.0000
  C   C2747     1.0  0.96439  0.71446  0.49593  1.0000
  H   H3285     1.0  0.77706  0.72100  0.48361  1.0000
  H   H3286     1.0  0.94678  0.69811  0.54946  1.0000
  N   N183      1.0  0.77316  0.75896  0.48548  1.0000
  H   H3287     1.0  0.96991  0.71924  0.48119  1.0000
  H   H3288     1.0  0.77334  0.55942  0.52333  1.0000
  C   C2748     1.0  0.96749  0.71172  0.52880  1.0000
  H   H3289     1.0  0.97457  0.71453  0.53940  1.0000
  N   N184      1.0  0.86109  0.78770  0.53056  1.0000
  C   C2749     1.0  0.85783  0.80546  0.51659  1.0000
  C   C2750     1.0  0.86811  0.77180  0.51977  1.0000
  C   C2751     1.0  0.84238  0.78496  0.54254  1.0000
  C   C2752     1.0  0.87502  0.78786  0.54271  1.0000
  C   C2753     1.0  0.87848  0.77250  0.55771  1.0000
  C   C2754     1.0  0.89173  0.77217  0.56922  1.0000
  C   C2755     1.0  0.90229  0.78678  0.56586  1.0000
  H   H3290     1.0  0.87097  0.80771  0.50610  1.0000
  H   H3291     1.0  0.84694  0.80499  0.50801  1.0000
  H   H3292     1.0  0.85258  0.81807  0.52377  1.0000
  H   H3293     1.0  0.88242  0.77304  0.51106  1.0000
  H   H3294     1.0  0.85839  0.77159  0.50991  1.0000
  H   H3295     1.0  0.86940  0.75772  0.52922  1.0000
  H   H3296     1.0  0.83118  0.78625  0.53380  1.0000
  H   H3297     1.0  0.87138  0.76032  0.56035  1.0000
  H   H3298     1.0  0.89442  0.76012  0.58037  1.0000
  H   H3299     1.0  0.91311  0.78602  0.57437  1.0000
  H   H3300     1.0  0.92299  0.72103  0.46458  1.0000
  C   C2756     1.0  0.88592  0.80267  0.53975  1.0000
  H   H3301     1.0  0.83742  0.79573  0.55209  1.0000
  H   H3302     1.0  0.76271  0.75601  0.51556  1.0000
  C   C2757     1.0  0.93210  0.72201  0.47480  1.0000
  C   C2758     1.0  0.76257  0.52669  0.56312  1.0000
  C   C2759     1.0  0.83285  0.48931  0.60890  1.0000
  H   H3303     1.0  0.73952  0.56339  0.46944  1.0000
  C   C2760     1.0  0.83496  0.61430  0.30627  1.0000
  H   H3304     1.0  0.94281  0.68824  0.46292  1.0000
  S   S745      1.0  0.97936  0.71593  0.59940  1.0000
  C   C2761     1.0  0.80056  0.52255  0.60527  1.0000
  C   C2762     1.0  0.97190  0.66927  0.30523  1.0000
  H   H3305     1.0  0.78968  0.53248  0.59765  1.0000
  H   H3306     1.0  0.92312  0.68052  0.50276  1.0000
  H   H3307     1.0  0.78878  0.53261  0.54485  1.0000
  H   H3308     1.0  0.81333  0.55204  0.58153  1.0000
  C   C2763     1.0  0.82371  0.54238  0.58996  1.0000
  H   H3309     1.0  0.92399  0.73247  0.48395  1.0000
  C   C2764     1.0  0.79169  0.75465  0.47273  1.0000
  H   H3310     1.0  0.74203  0.92116  0.49345  1.0000
  C   C2765     1.0  0.73850  0.52567  0.47201  1.0000
  H   H3311     1.0  0.80227  0.76316  0.47421  1.0000
  H   H3312     1.0  0.73827  0.94646  0.49305  1.0000
  H   H3313     1.0  0.83818  0.54340  0.58151  1.0000
  C   C2766     1.0  0.83737  0.63261  0.30734  1.0000
  S   S746      1.0  0.76925  0.59626  0.30630  1.0000
  H   H3314     1.0  0.77583  0.52320  0.45784  1.0000
  H   H3315     1.0  0.87413  0.58940  0.32429  1.0000
  H   H3316     1.0  0.79868  0.73961  0.47596  1.0000
  H   H3317     1.0  0.76300  0.90257  0.61864  1.0000
  C   C2767     1.0  0.85299  0.63539  0.31429  1.0000
  H   H3318     1.0  0.75264  0.55978  0.48857  1.0000
  H   H3319     1.0  0.79619  0.50836  0.60793  1.0000
  H   H3320     1.0  0.76136  0.95824  0.45612  1.0000
  C   C2768     1.0  0.74607  0.93480  0.48526  1.0000
  H   H3321     1.0  0.92951  0.69294  0.52653  1.0000
  C   C2769     1.0  0.94197  0.69956  0.52098  1.0000
  H   H3322     1.0  0.74543  0.70060  0.52239  1.0000
  C   C2770     1.0  0.75856  0.52234  0.49562  1.0000
  C   C2771     1.0  0.75586  0.92313  0.45585  1.0000
  H   H3323     1.0  0.75169  0.90892  0.46120  1.0000
  C   C2772     1.0  0.74648  0.95680  0.45584  1.0000
  Fe  Fe375     1.0  0.98098  0.76243  0.61768  1.0000
  H   H3324     1.0  0.73977  0.50463  0.54147  1.0000
  H   H3325     1.0  0.75874  0.88150  0.56452  1.0000
  H   H3326     1.0  0.77197  0.51310  0.30469  1.0000
  Fe  Fe376     1.0  0.97141  0.72296  0.62895  1.0000
  H   H3327     1.0  0.73509  0.77288  0.48048  1.0000
  C   C2773     1.0  0.85879  0.48254  0.62665  1.0000
  H   H3328     1.0  0.74462  0.95955  0.44071  1.0000
  H   H3329     1.0  0.97948  0.57654  0.30857  1.0000
  N   N185      1.0  0.73450  0.91612  0.61460  1.0000
  Fe  Fe377     1.0  0.73438  0.87690  0.46927  1.0000
  Fe  Fe378     1.0  0.75264  0.97497  0.58805  1.0000
  H   H3330     1.0  0.82707  0.64473  0.30281  1.0000
  S   S747      1.0  0.81189  0.51557  0.30264  1.0000
  C   C2774     1.0  0.74268  0.50551  0.78332  1.0000
  Fe  Fe379     1.0  0.85761  0.49202  0.74643  1.0000
  C   C2775     1.0  0.94456  0.62866  0.69864  1.0000
  H   H3331     1.0  0.77774  0.52023  0.96616  1.0000
  H   H3332     1.0  0.92827  0.67150  0.64021  1.0000
  C   C2776     1.0  0.86645  0.67696  0.93359  1.0000
  S   S748      1.0  0.97234  0.70126  0.90896  1.0000
  Fe  Fe380     1.0  0.86457  0.49096  0.70411  1.0000
  H   H3333     1.0  0.75258  0.91927  0.86556  1.0000
  S   S749      1.0  0.95115  0.57980  0.73218  1.0000
  C   C2777     1.0  0.82076  0.50048  0.66061  1.0000
  H   H3334     1.0  0.88919  0.93595  0.80708  1.0000
  H   H3335     1.0  0.97163  0.74954  0.74735  1.0000
  H   H3336     1.0  0.97883  0.81262  0.76993  1.0000
  S   S750      1.0  0.95928  0.88804  0.71399  1.0000
  C   C2778     1.0  0.80349  0.47602  0.69074  1.0000
  H   H3337     1.0  0.77737  0.91070  0.86025  1.0000
  C   C2779     1.0  0.93999  0.64729  0.65928  1.0000
  H   H3338     1.0  0.79806  0.52218  0.75675  1.0000
  C   C2780     1.0  0.76278  0.50793  0.95101  1.0000
  H   H3339     1.0  0.77087  0.97167  0.74395  1.0000
  H   H3340     1.0  0.98237  0.61977  0.68927  1.0000
  H   H3341     1.0  0.95134  0.52254  0.76640  1.0000
  S   S751      1.0  0.92632  0.50364  0.72184  1.0000
  C   C2781     1.0  0.97526  0.65345  0.63774  1.0000
  S   S752      1.0  0.85102  0.50069  0.67758  1.0000
  S   S753      1.0  0.83553  0.50723  0.76771  1.0000
  S   S754      1.0  0.86886  0.51212  0.72070  1.0000
  H   H3342     1.0  0.98333  0.73427  0.72245  1.0000
  C   C2782     1.0  0.97385  0.60998  0.68631  1.0000
  H   H3343     1.0  0.75609  0.68506  0.95982  1.0000
  C   C2783     1.0  0.76929  0.94524  0.84044  1.0000
  C   C2784     1.0  0.82174  0.49572  0.78799  1.0000
  C   C2785     1.0  0.80599  0.50653  0.79780  1.0000
  C   C2786     1.0  0.79492  0.49802  0.81428  1.0000
  C   C2787     1.0  0.97448  0.73426  0.69647  1.0000
  H   H3344     1.0  0.80237  0.52159  0.79275  1.0000
  H   H3345     1.0  0.78288  0.50649  0.82178  1.0000
  C   C2788     1.0  0.74479  0.69792  0.96000  1.0000
  H   H3346     1.0  0.81364  0.49487  0.72788  1.0000
  C   C2789     1.0  0.88368  0.52444  0.75976  1.0000
  H   H3347     1.0  0.97221  0.59885  0.69916  1.0000
  H   H3348     1.0  0.88799  0.55587  0.79255  1.0000
  H   H3349     1.0  0.86564  0.69136  0.96507  1.0000
  C   C2790     1.0  0.78147  0.91961  0.82267  1.0000
  S   S755      1.0  0.96952  0.75766  0.82015  1.0000
  H   H3350     1.0  0.88239  0.53955  0.75266  1.0000
  S   S756      1.0  0.86137  0.97144  0.73137  1.0000
  H   H3351     1.0  0.89606  0.51629  0.75146  1.0000
  C   C2791     1.0  0.97168  0.79345  0.72079  1.0000
  H   H3352     1.0  0.92101  0.92092  0.80148  1.0000
  H   H3353     1.0  0.87082  0.51912  0.75852  1.0000
  C   C2792     1.0  0.98044  0.65003  0.81039  1.0000
  H   H3354     1.0  0.73975  0.48607  0.70211  1.0000
  C   C2793     1.0  0.97596  0.68594  0.66527  1.0000
  C   C2794     1.0  0.82935  0.49373  0.67679  1.0000
  H   H3355     1.0  0.95189  0.59960  0.66599  1.0000
  S   S757      1.0  0.95928  0.70410  0.65517  1.0000
  S   S758      1.0  0.74205  0.51103  0.85147  1.0000
  C   C2795     1.0  0.95027  0.71215  0.92087  1.0000
  C   C2796     1.0  0.94042  0.72951  0.91294  1.0000
  C   C2797     1.0  0.92309  0.73779  0.92306  1.0000
  C   C2798     1.0  0.91536  0.72879  0.94112  1.0000
  C   C2799     1.0  0.92510  0.71131  0.94895  1.0000
  C   C2800     1.0  0.94249  0.70311  0.93891  1.0000
  H   H3356     1.0  0.94621  0.73662  0.89907  1.0000
  H   H3357     1.0  0.91567  0.75130  0.91686  1.0000
  H   H3358     1.0  0.74016  0.89848  0.94930  1.0000
  H   H3359     1.0  0.95003  0.68969  0.94515  1.0000
  C   C2801     1.0  0.97031  0.67524  0.68306  1.0000
  C   C2802     1.0  0.79140  0.52269  0.74416  1.0000
  Fe  Fe381     1.0  0.75364  0.59223  0.96621  1.0000
  S   S759      1.0  0.89388  0.74021  0.95357  1.0000
  H   H3360     1.0  0.95125  0.76703  0.74238  1.0000
  C   C2803     1.0  0.94772  0.73985  0.96449  1.0000
  H   H3361     1.0  0.92945  0.63457  0.69757  1.0000
  C   C2804     1.0  0.94488  0.55863  0.72847  1.0000
  C   C2805     1.0  0.92585  0.55866  0.72708  1.0000
  C   C2806     1.0  0.91999  0.54216  0.72460  1.0000
  C   C2807     1.0  0.93307  0.52528  0.72372  1.0000
  C   C2808     1.0  0.95218  0.52536  0.72470  1.0000
  C   C2809     1.0  0.95809  0.54192  0.72702  1.0000
  H   H3362     1.0  0.91553  0.57154  0.72802  1.0000
  H   H3363     1.0  0.90541  0.54253  0.72326  1.0000
  H   H3364     1.0  0.96248  0.51244  0.72386  1.0000
  H   H3365     1.0  0.97279  0.54166  0.72793  1.0000
  H   H3366     1.0  0.92958  0.88667  0.74748  1.0000
  H   H3367     1.0  0.94811  0.55297  0.77759  1.0000
  H   H3368     1.0  0.77172  0.49210  0.72776  1.0000
  H   H3369     1.0  0.96575  0.64840  0.81578  1.0000
  H   H3370     1.0  0.95127  0.64033  0.70070  1.0000
  C   C2810     1.0  0.75381  0.55948  0.93343  1.0000
  C   C2811     1.0  0.92211  0.91392  0.78954  1.0000
  H   H3371     1.0  0.78272  0.94273  0.84630  1.0000
  Fe  Fe382     1.0  0.97897  0.58784  0.73583  1.0000
  C   C2812     1.0  0.97382  0.76333  0.70897  1.0000
  C   C2813     1.0  0.97495  0.78813  0.79179  1.0000
  C   C2814     1.0  0.87633  0.69552  0.95239  1.0000
  C   C2815     1.0  0.94457  0.60608  0.67869  1.0000
  H   H3372     1.0  0.73889  0.48719  0.81033  1.0000
  H   H3373     1.0  0.98149  0.66672  0.83138  1.0000
  C   C2816     1.0  0.92959  0.95021  0.71458  1.0000
  C   C2817     1.0  0.94870  0.94476  0.71718  1.0000
  C   C2818     1.0  0.95805  0.92580  0.71718  1.0000
  C   C2819     1.0  0.94843  0.91216  0.71427  1.0000
  C   C2820     1.0  0.92934  0.91766  0.71161  1.0000
  C   C2821     1.0  0.91991  0.93652  0.71189  1.0000
  H   H3374     1.0  0.95635  0.95524  0.71921  1.0000
  H   H3375     1.0  0.95588  0.75170  0.93503  1.0000
  H   H3376     1.0  0.92181  0.90723  0.70923  1.0000
  H   H3377     1.0  0.90530  0.94053  0.70961  1.0000
  C   C2822     1.0  0.88806  0.50199  0.78834  1.0000
  H   H3378     1.0  0.80188  0.52699  0.73130  1.0000
  C   C2823     1.0  0.75492  0.50977  0.76616  1.0000
  H   H3379     1.0  0.97999  0.80029  0.70753  1.0000
  H   H3380     1.0  0.86413  0.94435  0.77808  1.0000
  H   H3381     1.0  0.95600  0.67871  0.69069  1.0000
  C   C2824     1.0  0.89892  0.95191  0.75981  1.0000
  N   N186      1.0  0.95509  0.62028  0.68177  1.0000
  H   H3382     1.0  0.76443  0.51727  0.72707  1.0000
  H   H3383     1.0  0.85541  0.52512  0.79000  1.0000
  C   C2825     1.0  0.96372  0.76473  0.67849  1.0000
  H   H3384     1.0  0.78672  0.50846  0.71387  1.0000
  H   H3385     1.0  0.97272  0.92179  0.71924  1.0000
  H   H3386     1.0  0.96406  0.78919  0.68958  1.0000
  C   C2826     1.0  0.89265  0.94612  0.79379  1.0000
  H   H3387     1.0  0.91938  0.70422  0.96279  1.0000
  H   H3388     1.0  0.76111  0.89989  0.85224  1.0000
  C   C2827     1.0  0.97439  0.63882  0.65344  1.0000
  N   N187      1.0  0.88294  0.68019  0.94081  1.0000
  S   S760      1.0  0.97916  0.62694  0.78549  1.0000
  H   H3389     1.0  0.75890  0.95072  0.80262  1.0000
  H   H3390     1.0  0.89977  0.49316  0.78000  1.0000
  C   C2828     1.0  0.89786  0.68587  0.92467  1.0000
  C   C2829     1.0  0.91659  0.67520  0.92169  1.0000
  C   C2830     1.0  0.89389  0.70269  0.91137  1.0000
  C   C2831     1.0  0.93033  0.68112  0.90635  1.0000
  C   C2832     1.0  0.90777  0.70848  0.89613  1.0000
  C   C2833     1.0  0.92594  0.69770  0.89362  1.0000
  H   H3391     1.0  0.87791  0.65872  0.96568  1.0000
  C   C2834     1.0  0.77681  0.50554  0.72758  1.0000
  H   H3392     1.0  0.77834  0.90710  0.81805  1.0000
  H   H3393     1.0  0.77075  0.95641  0.82764  1.0000
  H   H3394     1.0  0.85515  0.67216  0.94544  1.0000
  H   H3395     1.0  0.90579  0.95157  0.79408  1.0000
  C   C2835     1.0  0.90275  0.53048  0.78043  1.0000
  H   H3396     1.0  0.76236  0.53459  0.89650  1.0000
  C   C2836     1.0  0.77322  0.49865  0.76208  1.0000
  H   H3397     1.0  0.92115  0.66242  0.93116  1.0000
  C   C2837     1.0  0.91768  0.55570  0.78613  1.0000
  H   H3398     1.0  0.94474  0.67320  0.90463  1.0000
  H   H3399     1.0  0.90459  0.72162  0.88642  1.0000
  H   H3400     1.0  0.93686  0.70249  0.88212  1.0000
  N   N188      1.0  0.89465  0.93729  0.77669  1.0000
  H   H3401     1.0  0.79764  0.49949  0.64655  1.0000
  C   C2838     1.0  0.74830  0.49017  0.79692  1.0000
  H   H3402     1.0  0.91343  0.95536  0.75840  1.0000
  C   C2839     1.0  0.90981  0.92038  0.77585  1.0000
  H   H3403     1.0  0.93409  0.74913  0.96488  1.0000
  C   C2840     1.0  0.91293  0.91003  0.76069  1.0000
  H   H3404     1.0  0.89832  0.94729  0.74639  1.0000
  C   C2841     1.0  0.92732  0.89420  0.75935  1.0000
  C   C2842     1.0  0.93920  0.88833  0.77287  1.0000
  C   C2843     1.0  0.93658  0.89812  0.78796  1.0000
  H   H3405     1.0  0.75236  0.71020  0.95751  1.0000
  C   C2844     1.0  0.97773  0.72960  0.94487  1.0000
  S   S761      1.0  0.97643  0.61947  0.73426  1.0000
  C   C2845     1.0  0.80420  0.49026  0.74141  1.0000
  H   H3406     1.0  0.90450  0.91432  0.74948  1.0000
  C   C2846     1.0  0.87597  0.93207  0.77667  1.0000
  S   S762      1.0  0.76552  0.57332  0.94344  1.0000
  S   S763      1.0  0.73994  0.94666  0.89145  1.0000
  C   C2847     1.0  0.74678  0.94427  0.81021  1.0000
  H   H3407     1.0  0.92978  0.61238  0.67654  1.0000
  H   H3408     1.0  0.74258  0.59509  0.91020  1.0000
  H   H3409     1.0  0.94596  0.89350  0.79839  1.0000
  C   C2848     1.0  0.98127  0.77658  0.80792  1.0000
  C   C2849     1.0  0.93741  0.52940  0.77251  1.0000
  S   S764      1.0  0.74917  0.62400  0.95829  1.0000
  H   H3410     1.0  0.92600  0.64551  0.66716  1.0000
  C   C2850     1.0  0.88948  0.66256  0.95370  1.0000
  H   H3411     1.0  0.97556  0.82360  0.64433  1.0000
  H   H3412     1.0  0.77811  0.55332  0.91174  1.0000
  C   C2851     1.0  0.90143  0.54785  0.78702  1.0000
  H   H3413     1.0  0.80150  0.47589  0.74100  1.0000
  H   H3414     1.0  0.90137  0.66430  0.96033  1.0000
  H   H3415     1.0  0.73871  0.62466  0.91927  1.0000
  C   C2852     1.0  0.75466  0.54074  0.90875  1.0000
  C   C2853     1.0  0.76357  0.55134  0.91748  1.0000
  H   H3416     1.0  0.92340  0.50892  0.76676  1.0000
  H   H3417     1.0  0.86393  0.54707  0.78325  1.0000
  C   C2854     1.0  0.96686  0.77386  0.69239  1.0000
  H   H3418     1.0  0.87090  0.66591  0.92431  1.0000
  H   H3419     1.0  0.96862  0.77211  0.75418  1.0000
  H   H3420     1.0  0.81269  0.48907  0.75276  1.0000
  H   H3421     1.0  0.95865  0.77303  0.66582  1.0000
  H   H3422     1.0  0.75321  0.91325  0.91669  1.0000
  H   H3423     1.0  0.88010  0.71170  0.91284  1.0000
  H   H3424     1.0  0.95059  0.87626  0.77147  1.0000
  H   H3425     1.0  0.89406  0.65017  0.94615  1.0000
  H   H3426     1.0  0.94427  0.61793  0.71191  1.0000
  H   H3427     1.0  0.75008  0.52214  0.75631  1.0000
  H   H3428     1.0  0.75771  0.95136  0.85112  1.0000
  H   H3429     1.0  0.88842  0.69896  0.95744  1.0000
  H   H3430     1.0  0.79469  0.91502  0.82898  1.0000
  C   C2855     1.0  0.96749  0.74500  0.68053  1.0000
  H   H3431     1.0  0.86861  0.53155  0.80522  1.0000
  C   C2856     1.0  0.93562  0.54653  0.77883  1.0000
  N   N189      1.0  0.88579  0.52246  0.77983  1.0000
  C   C2857     1.0  0.86774  0.53204  0.79009  1.0000
  C   C2858     1.0  0.92127  0.52159  0.77301  1.0000
  N   N190      1.0  0.78623  0.50404  0.74416  1.0000
  H   H3432     1.0  0.96297  0.78522  0.78689  1.0000
  H   H3433     1.0  0.77885  0.53426  0.74460  1.0000
  H   H3434     1.0  0.82712  0.51035  0.64915  1.0000
  N   N191      1.0  0.76516  0.92756  0.83629  1.0000
  H   H3435     1.0  0.96511  0.73800  0.66965  1.0000
  C   C2859     1.0  0.95663  0.63538  0.66482  1.0000
  C   C2860     1.0  0.79529  0.48231  0.67431  1.0000
  C   C2861     1.0  0.96018  0.74154  0.94711  1.0000
  H   H3436     1.0  0.87543  0.92740  0.76324  1.0000
  H   H3437     1.0  0.95624  0.79769  0.72004  1.0000
  C   C2862     1.0  0.80400  0.49448  0.65918  1.0000
  H   H3438     1.0  0.87266  0.92039  0.78860  1.0000
  C   C2863     1.0  0.74755  0.93189  0.82788  1.0000
  H   H3439     1.0  0.86948  0.70895  0.94445  1.0000
  C   C2864     1.0  0.76394  0.91369  0.85431  1.0000
  H   H3440     1.0  0.87501  0.49593  0.78890  1.0000
  H   H3441     1.0  0.88087  0.95860  0.79407  1.0000
  S   S765      1.0  0.97711  0.70807  0.85270  1.0000
  H   H3442     1.0  0.91639  0.56920  0.79073  1.0000
  Fe  Fe383     1.0  0.89763  0.49441  0.72324  1.0000
  H   H3443     1.0  0.89103  0.49974  0.80306  1.0000
  H   H3444     1.0  0.78501  0.93019  0.80973  1.0000
  H   H3445     1.0  0.97749  0.71889  0.69786  1.0000
  N   N192      1.0  0.97745  0.77245  0.72397  1.0000
  H   H3446     1.0  0.85955  0.69006  0.92519  1.0000
  H   H3447     1.0  0.88851  0.96532  0.76048  1.0000
  C   C2865     1.0  0.96678  0.76494  0.74272  1.0000
  C   C2866     1.0  0.94108  0.66208  0.64374  1.0000
  C   C2867     1.0  0.73970  0.91980  0.92389  1.0000
  C   C2868     1.0  0.77849  0.48303  0.77630  1.0000
  S   S766      1.0  0.91857  0.97435  0.71435  1.0000
  H   H3448     1.0  0.94344  0.59432  0.69113  1.0000
  Fe  Fe384     1.0  0.75732  0.48076  0.85571  1.0000
  H   H3449     1.0  0.73750  0.69917  0.94770  1.0000
  H   H3450     1.0  0.79454  0.97230  0.68665  1.0000
  C   C2869     1.0  0.79976  0.47868  0.82127  1.0000
  H   H3451     1.0  0.98229  0.60252  0.67465  1.0000
  H   H3452     1.0  0.97870  0.65202  0.70477  1.0000
  C   C2870     1.0  0.98317  0.71624  0.96017  1.0000
  C   C2871     1.0  0.82067  0.48139  0.69179  1.0000
  C   C2872     1.0  0.73576  0.53828  0.91580  1.0000
  C   C2873     1.0  0.97767  0.74323  0.71048  1.0000
  C   C2874     1.0  0.76612  0.47894  0.79343  1.0000
  C   C2875     1.0  0.74572  0.50260  0.95011  1.0000
  C   C2876     1.0  0.98308  0.66002  0.69097  1.0000
  H   H3453     1.0  0.97435  0.79986  0.73240  1.0000
  C   C2877     1.0  0.98392  0.80360  0.78219  1.0000
  H   H3454     1.0  0.77470  0.50638  0.93944  1.0000
  S   S767      1.0  0.74769  0.47608  0.88752  1.0000
  C   C2878     1.0  0.82629  0.47628  0.79465  1.0000
  C   C2879     1.0  0.76432  0.51597  0.96634  1.0000
  S   S768      1.0  0.88661  0.47543  0.75003  1.0000
  H   H3455     1.0  0.82739  0.47559  0.70400  1.0000
  H   H3456     1.0  0.74437  0.49697  0.93787  1.0000
  C   C2880     1.0  0.73506  0.55666  0.94072  1.0000
