data_image0
_chemical_formula_structural       SHFeS2HCSFeS2FeSCFeSFeS3FeS2FeS2FeSFeS3H3CHC6H6C3NH2CH2CH2CH2C8H4CHSHC6H4SH2CHC2H2FeH2SCHC2HCH2CHCH3CH2NC9H14CNSCHCHC2HCHC5H3FeC2H3NHCHCH2CHCHCH3C2HCHC6HCH3CHCH2CSHCH2CH4CHC3HCHCH2C4H2CHCSFeHSCHSC2HSC2FeSHFeSHFeS2FeSFeS3FeS2FeS2FeSFeHS2H3C3HCH2C7H4C11H4SC3H2CH3C6H6SCNC9H17C2H2C5HNC3HNH2CH3FeHCH4CH2CHC4SNSH3CHCHCH3CHC3H2CH3C2H4CH2CH4C2H2NHCNH3C2FeH2SHC2H3C2HCH2NHCH2C2SC2SFeS2FeS2FeCFeS3FeSCFeS2FeSFeS3CSHC6H4C2HSHC6H4C2HC3H3C2HCHCH4NHC6H4CH2C2HCH4CH2C3H2CH2C2HSHNH2C2SCNH2CHC2H4C2HSHCH2S2CSCH4CHC2NCH4CH3C4HCHCFeCH6C2H10CHC2H2CH2CNHCH2CHC2H4CH3NC2HCH3C3H2CH2NHCHCH2SHC2HC2HCH2C2HCHFeHCHCFeHC2H3FeHCFeHSHSH2CFeHSCHSFeS2FeSCFeSFeCS2FeHSFeS2FeSFeCS2H4CH2C2SHC7H6C6H5C3H2C6H4SHSH4CH2CHCHCHC3H2NH3SC2HC2NC2H2C2HCNC2H3CHC2H2CH2CH4CH3FeHCNC3S2H3CH4S2HCHC2H2CH2CFeNC9H10CH2CFeCH9CH2NHCHC2HCH2SFeSHCH2SFeS2FeSHFeSFeS3FeS2FeS2FeSFeHS2HC2HC2H4CHC3H2C6H5NHCH3C6H8NH3C6H4CHNH3FeNCH4SNH7C2HCH2S2H2CH2CH5C3HCH3CH3S2H2CHCHC5HCHC2SCHCNC7H2C7H3C2H7CH2C2H3CH3NHC2HCH2C5HC2H4C2H4CH3C3HC3NHSCFeSFeHSHFeSFeS2FeS2FeSFeHS2FeSCFeS2FeSFeS3CNC7H4C3H4CH2C2HCHCH2C7H4CHC10H4CH5CSCFeH3C3NCSH2NH4FeHCHC2H2SCNC9H16CHSCH2C3H2C2HCH2C2H2CHCH2CHCHCHC3FeCHCH2CHCSNHSCH3CSH3C3HC2HNH2CHCHCSHCHFeSHFeS2FeSFeS3FeS2FeS2FeCFeS3H2SCNC4SHC8H4C6H5C2H4C3H2FeHC2HCH2CHCH2CHC6H4CH8NCHC4HC2HC2H2CSCH4NC3HC5HCHC3H9CN2C7H12CHCHCHC3H2CHCHCSH2C4S2HSCHCHCFeH2CH3CH6NH2CH2SHFeHSCSHSH2FeHSH2SFeS2H3FeSFeHS2FeC2FeS2FeSFeS3HCH3CH2C7H3CSH6C9H4NCH2C2H2C2HFeC6H4SCH2CHCH3C5NHCH2CHCH2C2HC2NH5CH3C2SH2C2FeCH2CH3CHSCH5CSC3HCH5CNCH3FeCH2C2HFeC2NHC2H2CSCH2C2HCSCH5CHCH4NFeH2SHC4FeSHSHFeSFeS2FeSCFeSFeS3FeS2FeSHFeSFeS3C6H4CHC3HC2HC2NHNHCHCH3C3HCH2CHC7H6C8H6CH5C4HC3H2CH2NH6SC2HCHC2H2CH2CNHC2HC2H2C5HCH3CH5SHC2HC4H4NHC2H2SFeC2HC2H2SCH5CSHC2H2FeH4CH2FeCHSH3CNHC2H5C2H6C3SCH2CH2C2SH2FeSCHCH2SFeSH3FeS2FeS2FeSFeS3FeS2FeSHFeSFeCS2HCHC2H2C6H4CH3FeSC6H4C4HNHC2H2C7H7C2H5CHC2HCHCHCH3C2H4CHC2HSHCH3CSH4CH2CHNH4CSC2SN2CH2C2H4NC8H7C2HCHC4SCSCH7CH2C2HC2H2C3HC3HSH3CH2C2HCHCHC3HC2HC3HFeS2FeS2FeS2FeSFeS3FeS2FeSCFeHFeS3FeS2CH2C3HCHCH2C2FeCHCNH4C6H4CH2CHNC2HFeC6H6C8H7NHC7H2SCH3CHC2H2C2HCH4CH2C2HC5H2CH3CHCHCH2CHCH4CH2CH2FeHCHC4H2CH2SNHCH6SC2H8C3HCNC4H6C2H2C3H2C3SHCH3SCHFeSH3FeSHCSH2FeS2FeH2FeHFeS3FeS2FeS2FeSFeCS2CHSC8H6S2H5C3HFeC6H4C2HNHC7H4NH6C3H2C3HCSCSC2HC2HCHCH2CH2SC2NC6HCH10CH3CNC9H14CH2NC7H6SHSCHC2HCHCH3C2NSFeSFeS2FeS2FeS2FeSFeS3FeSHFeS2FeSFeS3C3HFeHCH4CH3CH6C6H4C2FeC7H4SNHC6H5NCHC7H4SHC2SH5CH3CH2C2H2CSH2CHC5H2NC9H18NCH4CHCH2CH3C2HCH5CHC3FeCH3C3H2C3HSNHSCHC2HCH2C2HNCHC4H4S2C3HFeSCFeSCH3SC2FeSCFeS2FeSHFeSFeS3FeS2FeS2FeHFeS3HC9H5CSC2HCHC4H3C7H4CH3CFeCHC6H4CH6SH2C2HCHCH3C3H3NCHCH3CHNHNCH5CHNC9H14C2HCH5CH2C2H3NHC3HCH3C2HCH4SC2HCHCFeH4CHCHCHCH4CH3CH4C5H2CH2NFeSHFeSCFeS2FeSFeS3FeSHFeS2FeSFeS3FeSHSHNH2C8H4CH3C6H4C2HC3HCHCHSH2C2H4C7H6NC9H14C3HCHNSCH4CH2CHC4SH6SCHCHCH2CH4CH5CH2CH3C2NHC2HCHCHNHC3H3CH3CH2C2HCH2CHC5HSCHFeH2CSC2H3CH3CHNHCH3C2H2SH2FeS2H3SHCH3FeSCSCFeS2FeSCFeSFeCS2FeSHFeS2FeSFeS3H2CH2SH5C7H4CH3C2HCHC6H5CNCSHC7H2CHCHCH3CFeHCH3SCH3CHNHCHC3H2CHCHCH2CHCH2C4NHC8H11C2H4C2NCHCHC2HCHNC9H13CNCSCHC3HCHSH4CHCH2CHCSH3CH4CHCHCH2CHC
_chemical_formula_sum              "S384 H1728 Fe192 C1440 N96"
_cell_length_a       55.5756
_cell_length_b       54.523
_cell_length_c       58.9613
_cell_angle_alpha    88.4928
_cell_angle_beta     89.3262
_cell_angle_gamma    89.0715

_space_group_name_H-M_alt    "P 1"
_space_group_IT_number       1

loop_
  _space_group_symop_operation_xyz
  'x, y, z'

loop_
  _atom_site_type_symbol
  _atom_site_label
  _atom_site_symmetry_multiplicity
  _atom_site_fract_x
  _atom_site_fract_y
  _atom_site_fract_z
  _atom_site_occupancy
  S   S1        1.0  0.16323  0.09561  0.05356  1.0000
  H   H1        1.0  0.10886  0.30584  0.26415  1.0000
  Fe  Fe1       1.0  0.18688  0.12868  0.05161  1.0000
  S   S2        1.0  0.19409  0.14909  0.08374  1.0000
  S   S3        1.0  0.45814  0.40395  0.06700  1.0000
  H   H2        1.0  0.37827  0.48379  0.22903  1.0000
  C   C1        1.0  0.09862  0.15495  0.04690  1.0000
  S   S4        1.0  0.45942  0.33287  0.08317  1.0000
  Fe  Fe2       1.0  0.43266  0.33158  0.21244  1.0000
  S   S5        1.0  0.45701  0.29846  0.21140  1.0000
  S   S6        1.0  0.42259  0.35625  0.18254  1.0000
  Fe  Fe3       1.0  0.42474  0.32627  0.26359  1.0000
  S   S7        1.0  0.44804  0.29228  0.26645  1.0000
  C   C2        1.0  0.27298  0.53986  0.26285  1.0000
  Fe  Fe4       1.0  0.47346  0.31269  0.24317  1.0000
  S   S8        1.0  0.51285  0.32144  0.24827  1.0000
  Fe  Fe5       1.0  0.42917  0.28130  0.23479  1.0000
  S   S9        1.0  0.41720  0.24238  0.22929  1.0000
  S   S10       1.0  0.45106  0.34733  0.24219  1.0000
  S   S11       1.0  0.40379  0.31375  0.23390  1.0000
  Fe  Fe6       1.0  0.27449  0.13488  0.19125  1.0000
  S   S12       1.0  0.31047  0.14097  0.20751  1.0000
  S   S13       1.0  0.27303  0.11776  0.15659  1.0000
  Fe  Fe7       1.0  0.24660  0.15164  0.23306  1.0000
  S   S14       1.0  0.27999  0.15887  0.25231  1.0000
  S   S15       1.0  0.20922  0.15790  0.24732  1.0000
  Fe  Fe8       1.0  0.29373  0.17616  0.21984  1.0000
  S   S16       1.0  0.30686  0.21537  0.22088  1.0000
  Fe  Fe9       1.0  0.29345  0.12310  0.23851  1.0000
  S   S17       1.0  0.31122  0.09655  0.26357  1.0000
  S   S18       1.0  0.25901  0.17135  0.20127  1.0000
  S   S19       1.0  0.25882  0.11458  0.22153  1.0000
  H   H3        1.0  0.06038  0.24759  0.26074  1.0000
  H   H4        1.0  0.04448  0.34816  0.25554  1.0000
  H   H5        1.0  0.36165  0.53927  0.17904  1.0000
  C   C3        1.0  0.24401  0.26536  0.24979  1.0000
  H   H6        1.0  0.35903  0.52520  0.27859  1.0000
  C   C4        1.0  0.38637  0.23493  0.22820  1.0000
  C   C5        1.0  0.36825  0.25295  0.22976  1.0000
  C   C6        1.0  0.34397  0.24665  0.22753  1.0000
  C   C7        1.0  0.33756  0.22224  0.22404  1.0000
  C   C8        1.0  0.35560  0.20415  0.22277  1.0000
  C   C9        1.0  0.37993  0.21052  0.22473  1.0000
  H   H7        1.0  0.37288  0.27175  0.23257  1.0000
  H   H8        1.0  0.33010  0.26074  0.22851  1.0000
  H   H9        1.0  0.35084  0.18529  0.22006  1.0000
  H   H10       1.0  0.39382  0.19646  0.22350  1.0000
  H   H11       1.0  0.20405  0.21787  0.24598  1.0000
  H   H12       1.0  0.26708  0.50968  0.28675  1.0000
  C   C10       1.0  0.23849  0.23569  0.22021  1.0000
  C   C11       1.0  0.20639  0.17301  0.27323  1.0000
  C   C12       1.0  0.21049  0.06279  0.11600  1.0000
  N   N1        1.0  0.23571  0.24040  0.24483  1.0000
  H   H13       1.0  0.08021  0.33770  0.27704  1.0000
  H   H14       1.0  0.30413  0.26684  0.28704  1.0000
  C   C13       1.0  0.36678  0.49914  0.22414  1.0000
  H   H15       1.0  0.47185  0.39052  0.16045  1.0000
  H   H16       1.0  0.16974  0.18458  0.26699  1.0000
  C   C14       1.0  0.24642  0.10892  0.28677  1.0000
  H   H17       1.0  0.46855  0.40104  0.12266  1.0000
  H   H18       1.0  0.38595  0.36162  0.25531  1.0000
  C   C15       1.0  0.29834  0.06739  0.26736  1.0000
  H   H19       1.0  0.06633  0.29440  0.20568  1.0000
  H   H20       1.0  0.47361  0.36415  0.19395  1.0000
  C   C16       1.0  0.26721  0.27306  0.24248  1.0000
  C   C17       1.0  0.27450  0.52779  0.28418  1.0000
  C   C18       1.0  0.44986  0.33996  0.11085  1.0000
  C   C19       1.0  0.43622  0.36119  0.11498  1.0000
  C   C20       1.0  0.42809  0.36606  0.13708  1.0000
  C   C21       1.0  0.43385  0.34996  0.15522  1.0000
  C   C22       1.0  0.44809  0.32912  0.15119  1.0000
  C   C23       1.0  0.45582  0.32398  0.12902  1.0000
  H   H21       1.0  0.43123  0.37343  0.10104  1.0000
  H   H22       1.0  0.41704  0.38220  0.14009  1.0000
  H   H23       1.0  0.45306  0.31694  0.16509  1.0000
  H   H24       1.0  0.46651  0.30762  0.12592  1.0000
  C   C24       1.0  0.25043  0.22206  0.25770  1.0000
  H   H25       1.0  0.26670  0.33177  0.26066  1.0000
  S   S20       1.0  0.32720  0.42241  0.28209  1.0000
  H   H26       1.0  0.25766  0.23448  0.21467  1.0000
  C   C25       1.0  0.21697  0.14108  0.10328  1.0000
  C   C26       1.0  0.23498  0.12385  0.09821  1.0000
  C   C27       1.0  0.25227  0.11709  0.11460  1.0000
  C   C28       1.0  0.25179  0.12771  0.13608  1.0000
  C   C29       1.0  0.23411  0.14540  0.14093  1.0000
  C   C30       1.0  0.21679  0.15206  0.12457  1.0000
  H   H27       1.0  0.23566  0.11595  0.08161  1.0000
  H   H28       1.0  0.26606  0.10360  0.11068  1.0000
  H   H29       1.0  0.23359  0.15372  0.15737  1.0000
  H   H30       1.0  0.20299  0.16556  0.12853  1.0000
  S   S21       1.0  0.04675  0.20585  0.05887  1.0000
  H   H31       1.0  0.52366  0.36754  0.10380  1.0000
  H   H32       1.0  0.21219  0.27824  0.26900  1.0000
  C   C31       1.0  0.37894  0.37121  0.26985  1.0000
  H   H33       1.0  0.49154  0.36654  0.10546  1.0000
  C   C32       1.0  0.22590  0.06275  0.07762  1.0000
  C   C33       1.0  0.07716  0.32880  0.26111  1.0000
  H   H34       1.0  0.30346  0.49830  0.25539  1.0000
  H   H35       1.0  0.37802  0.48434  0.26907  1.0000
  Fe  Fe10      1.0  0.46258  0.36451  0.05797  1.0000
  H   H36       1.0  0.22948  0.25035  0.20975  1.0000
  H   H37       1.0  0.50605  0.39038  0.08914  1.0000
  S   S22       1.0  0.44494  0.54158  0.05001  1.0000
  C   C34       1.0  0.52681  0.34710  0.16994  1.0000
  H   H38       1.0  0.21332  0.07772  0.07201  1.0000
  C   C35       1.0  0.36045  0.38886  0.26706  1.0000
  C   C36       1.0  0.33849  0.53880  0.20849  1.0000
  H   H39       1.0  0.38652  0.50389  0.19261  1.0000
  C   C37       1.0  0.22443  0.06113  0.13610  1.0000
  H   H40       1.0  0.50811  0.27645  0.27594  1.0000
  H   H41       1.0  0.20688  0.23709  0.26968  1.0000
  C   C38       1.0  0.48778  0.37909  0.16241  1.0000
  H   H42       1.0  0.26450  0.53088  0.24895  1.0000
  C   C39       1.0  0.09338  0.31085  0.25386  1.0000
  H   H43       1.0  0.19883  0.12033  0.28377  1.0000
  H   H44       1.0  0.31761  0.46981  0.24796  1.0000
  H   H45       1.0  0.09560  0.18908  0.06450  1.0000
  C   C40       1.0  0.05185  0.32265  0.22788  1.0000
  H   H46       1.0  0.19798  0.25002  0.24234  1.0000
  H   H47       1.0  0.45544  0.45323  0.04440  1.0000
  N   N2        1.0  0.40230  0.27075  0.16123  1.0000
  C   C41       1.0  0.39669  0.28749  0.18011  1.0000
  C   C42       1.0  0.38490  0.25042  0.16265  1.0000
  C   C43       1.0  0.42690  0.26051  0.16505  1.0000
  C   C44       1.0  0.40100  0.28301  0.13855  1.0000
  C   C45       1.0  0.40808  0.27017  0.11885  1.0000
  C   C46       1.0  0.39278  0.30770  0.13523  1.0000
  C   C47       1.0  0.40802  0.28165  0.09736  1.0000
  C   C48       1.0  0.39249  0.31886  0.11361  1.0000
  C   C49       1.0  0.40041  0.30600  0.09478  1.0000
  H   H48       1.0  0.37780  0.29453  0.17951  1.0000
  H   H49       1.0  0.39867  0.27797  0.19688  1.0000
  H   H50       1.0  0.40908  0.30334  0.17995  1.0000
  H   H51       1.0  0.36616  0.25730  0.15991  1.0000
  H   H52       1.0  0.38531  0.24084  0.17960  1.0000
  H   H53       1.0  0.38877  0.23623  0.14986  1.0000
  H   H54       1.0  0.44071  0.27488  0.16243  1.0000
  H   H55       1.0  0.42901  0.25279  0.18263  1.0000
  H   H56       1.0  0.43150  0.24520  0.15367  1.0000
  H   H57       1.0  0.41405  0.25123  0.11997  1.0000
  H   H58       1.0  0.38715  0.31911  0.14908  1.0000
  H   H59       1.0  0.41431  0.27179  0.08265  1.0000
  H   H60       1.0  0.38692  0.33794  0.11156  1.0000
  H   H61       1.0  0.40111  0.31511  0.07822  1.0000
  C   C50       1.0  0.19229  0.08135  0.11505  1.0000
  N   N3        1.0  0.34188  0.49637  0.26076  1.0000
  S   S23       1.0  0.51898  0.43628  0.06140  1.0000
  C   C51       1.0  0.33333  0.52749  0.22947  1.0000
  H   H62       1.0  0.35945  0.46101  0.25689  1.0000
  C   C52       1.0  0.34751  0.50755  0.23817  1.0000
  H   H63       1.0  0.35496  0.46945  0.28543  1.0000
  C   C53       1.0  0.52639  0.36233  0.15048  1.0000
  C   C54       1.0  0.05659  0.33462  0.24848  1.0000
  H   H64       1.0  0.26327  0.09856  0.28286  1.0000
  C   C55       1.0  0.34338  0.31383  0.28492  1.0000
  H   H65       1.0  0.24811  0.22417  0.27634  1.0000
  C   C56       1.0  0.18467  0.18506  0.27858  1.0000
  C   C57       1.0  0.50789  0.34787  0.18561  1.0000
  C   C58       1.0  0.08919  0.29866  0.23388  1.0000
  C   C59       1.0  0.22061  0.08192  0.26741  1.0000
  C   C60       1.0  0.22979  0.28252  0.26213  1.0000
  H   H66       1.0  0.28272  0.06680  0.23416  1.0000
  H   H67       1.0  0.24539  0.20303  0.25358  1.0000
  H   H68       1.0  0.10162  0.28428  0.22867  1.0000
  Fe  Fe11      1.0  0.49287  0.40937  0.04819  1.0000
  C   C61       1.0  0.27517  0.29678  0.24628  1.0000
  C   C62       1.0  0.35948  0.47706  0.26821  1.0000
  H   H69       1.0  0.23064  0.21780  0.21568  1.0000
  H   H70       1.0  0.18189  0.08478  0.09993  1.0000
  H   H71       1.0  0.50817  0.33596  0.20063  1.0000
  N   N4        1.0  0.50688  0.39470  0.12531  1.0000
  H   H72       1.0  0.26995  0.22359  0.25371  1.0000
  C   C63       1.0  0.43422  0.51198  0.04576  1.0000
  H   H73       1.0  0.05009  0.35333  0.19187  1.0000
  C   C64       1.0  0.50688  0.37888  0.14612  1.0000
  H   H74       1.0  0.21628  0.09671  0.25459  1.0000
  H   H75       1.0  0.46867  0.49490  0.05276  1.0000
  C   C65       1.0  0.06882  0.30448  0.22098  1.0000
  H   H76       1.0  0.23158  0.07610  0.16883  1.0000
  C   C66       1.0  0.34154  0.51559  0.27817  1.0000
  H   H77       1.0  0.32729  0.52973  0.27517  1.0000
  C   C67       1.0  0.53158  0.30675  0.26868  1.0000
  H   H78       1.0  0.27940  0.26072  0.23373  1.0000
  H   H79       1.0  0.31805  0.53457  0.23882  1.0000
  H   H80       1.0  0.48633  0.42335  0.10788  1.0000
  C   C68       1.0  0.21004  0.23635  0.25101  1.0000
  C   C69       1.0  0.37173  0.51052  0.20306  1.0000
  H   H81       1.0  0.05602  0.13551  0.08475  1.0000
  C   C70       1.0  0.05389  0.26211  0.27150  1.0000
  H   H82       1.0  0.04746  0.17207  0.10641  1.0000
  C   C71       1.0  0.48848  0.36385  0.18186  1.0000
  C   C72       1.0  0.35771  0.53040  0.19532  1.0000
  C   C73       1.0  0.52493  0.28498  0.27996  1.0000
  C   C74       1.0  0.48557  0.41146  0.12357  1.0000
  C   C75       1.0  0.33401  0.29075  0.28129  1.0000
  C   C76       1.0  0.06181  0.17932  0.04993  1.0000
  H   H83       1.0  0.35323  0.39272  0.25035  1.0000
  C   C77       1.0  0.31787  0.48495  0.26027  1.0000
  H   H84       1.0  0.29287  0.30227  0.24030  1.0000
  H   H85       1.0  0.48437  0.42398  0.13815  1.0000
  H   H86       1.0  0.24335  0.12234  0.27251  1.0000
  C   C78       1.0  0.22005  0.07689  0.15409  1.0000
  H   H87       1.0  0.19914  0.10742  0.16629  1.0000
  C   C79       1.0  0.26052  0.31336  0.25784  1.0000
  H   H88       1.0  0.24228  0.16427  0.28461  1.0000
  H   H89       1.0  0.20482  0.06963  0.26827  1.0000
  C   C80       1.0  0.30146  0.05438  0.28797  1.0000
  S   S24       1.0  0.49907  0.36953  0.04195  1.0000
  H   H90       1.0  0.53000  0.42097  0.14023  1.0000
  C   C81       1.0  0.08621  0.17569  0.05484  1.0000
  H   H91       1.0  0.49575  0.53643  0.05439  1.0000
  H   H92       1.0  0.36115  0.31837  0.27834  1.0000
  C   C82       1.0  0.23800  0.30617  0.26594  1.0000
  H   H93       1.0  0.17460  0.11153  0.13164  1.0000
  H   H94       1.0  0.31268  0.47693  0.27718  1.0000
  H   H95       1.0  0.51793  0.49988  0.06769  1.0000
  H   H96       1.0  0.48941  0.37188  0.28524  1.0000
  C   C83       1.0  0.18796  0.09687  0.13319  1.0000
  H   H97       1.0  0.24273  0.07152  0.08316  1.0000
  C   C84       1.0  0.35116  0.40130  0.28580  1.0000
  C   C85       1.0  0.52742  0.51694  0.06457  1.0000
  C   C86       1.0  0.20181  0.09464  0.15267  1.0000
  H   H98       1.0  0.52847  0.42334  0.10980  1.0000
  C   C87       1.0  0.51491  0.53794  0.05680  1.0000
  H   H99       1.0  0.34442  0.27736  0.27183  1.0000
  C   C88       1.0  0.28501  0.05702  0.25020  1.0000
  H   H100      1.0  0.22667  0.31904  0.27514  1.0000
  H   H101      1.0  0.23642  0.07160  0.26054  1.0000
  C   C89       1.0  0.44275  0.46834  0.04306  1.0000
  C   C90       1.0  0.45025  0.49203  0.04784  1.0000
  C   C91       1.0  0.50711  0.37911  0.10509  1.0000
  C   C92       1.0  0.41035  0.50807  0.03961  1.0000
  H   H102      1.0  0.11749  0.15230  0.05063  1.0000
  H   H103      1.0  0.04833  0.32270  0.18155  1.0000
  C   C93       1.0  0.52866  0.41014  0.12457  1.0000
  H   H104      1.0  0.23035  0.05186  0.06237  1.0000
  C   C94       1.0  0.22552  0.17354  0.28841  1.0000
  S   S25       1.0  0.41014  0.34278  0.29563  1.0000
  Fe  Fe12      1.0  0.09175  0.19047  0.49820  1.0000
  H   H105      1.0  0.35386  0.40607  0.32184  1.0000
  S   S26       1.0  0.08439  0.19678  0.46080  1.0000
  C   C95       1.0  0.05237  0.21910  0.31688  1.0000
  H   H106      1.0  0.21886  0.37195  0.29474  1.0000
  S   S27       1.0  0.09313  0.15119  0.51080  1.0000
  C   C96       1.0  0.16813  0.07169  0.50216  1.0000
  C   C97       1.0  0.54025  0.27402  0.29629  1.0000
  H   H107      1.0  0.32576  0.35944  0.33537  1.0000
  S   S28       1.0  0.40814  0.50063  0.50995  1.0000
  C   C98       1.0  0.23758  0.08005  0.32985  1.0000
  C   C99       1.0  0.52478  0.32133  0.37293  1.0000
  Fe  Fe13      1.0  0.36874  0.49287  0.50833  1.0000
  S   S29       1.0  0.34441  0.50598  0.47993  1.0000
  H   H108      1.0  0.07724  0.31559  0.50693  1.0000
  Fe  Fe14      1.0  0.31269  0.43798  0.31457  1.0000
  S   S30       1.0  0.27502  0.45363  0.31570  1.0000
  H   H109      1.0  0.33781  0.50787  0.29550  1.0000
  Fe  Fe15      1.0  0.32296  0.44983  0.36370  1.0000
  S   S31       1.0  0.28624  0.46632  0.36894  1.0000
  S   S32       1.0  0.35191  0.44460  0.39002  1.0000
  Fe  Fe16      1.0  0.27288  0.43412  0.34980  1.0000
  S   S33       1.0  0.24357  0.41044  0.36529  1.0000
  Fe  Fe17      1.0  0.29187  0.48431  0.33444  1.0000
  S   S34       1.0  0.28645  0.52538  0.32950  1.0000
  S   S35       1.0  0.30931  0.41626  0.34711  1.0000
  S   S36       1.0  0.32975  0.46995  0.33069  1.0000
  Fe  Fe18      1.0  0.13996  0.27845  0.36601  1.0000
  S   S37       1.0  0.12828  0.30312  0.33656  1.0000
  S   S38       1.0  0.13160  0.28365  0.40328  1.0000
  Fe  Fe19      1.0  0.17185  0.24654  0.33668  1.0000
  S   S39       1.0  0.16296  0.26790  0.30501  1.0000
  S   S40       1.0  0.19944  0.21594  0.33847  1.0000
  Fe  Fe20      1.0  0.16738  0.30144  0.32578  1.0000
  S   S41       1.0  0.18949  0.33123  0.30830  1.0000
  Fe  Fe21      1.0  0.12480  0.26773  0.31810  1.0000
  H   H110      1.0  0.32425  0.40995  0.41770  1.0000
  S   S42       1.0  0.17924  0.27988  0.35660  1.0000
  S   S43       1.0  0.13352  0.24320  0.34838  1.0000
  H   H111      1.0  0.09278  0.24907  0.51648  1.0000
  H   H112      1.0  0.27596  0.44022  0.51585  1.0000
  H   H113      1.0  0.52452  0.32113  0.31574  1.0000
  C   C100      1.0  0.27463  0.43414  0.49801  1.0000
  C   C101      1.0  0.24342  0.06251  0.34674  1.0000
  C   C102      1.0  0.49129  0.34605  0.35870  1.0000
  H   H114      1.0  0.06207  0.07807  0.53590  1.0000
  C   C103      1.0  0.46354  0.36705  0.32224  1.0000
  H   H115      1.0  0.24806  0.06818  0.36361  1.0000
  H   H116      1.0  0.33028  0.45351  0.48323  1.0000
  C   C104      1.0  0.47369  0.32928  0.30446  1.0000
  C   C105      1.0  0.22837  0.38886  0.34911  1.0000
  C   C106      1.0  0.22988  0.38920  0.32540  1.0000
  C   C107      1.0  0.21783  0.37145  0.31308  1.0000
  C   C108      1.0  0.20417  0.35330  0.32435  1.0000
  C   C109      1.0  0.20271  0.35294  0.34804  1.0000
  C   C110      1.0  0.21471  0.37072  0.36035  1.0000
  H   H117      1.0  0.24002  0.40336  0.31657  1.0000
  H   H118      1.0  0.31141  0.06251  0.30145  1.0000
  H   H119      1.0  0.19217  0.33910  0.35688  1.0000
  H   H120      1.0  0.21338  0.37041  0.37868  1.0000
  C   C111      1.0  0.28639  0.47358  0.48233  1.0000
  C   C112      1.0  0.15019  0.11242  0.50528  1.0000
  C   C113      1.0  0.51861  0.32598  0.33255  1.0000
  C   C114      1.0  0.53179  0.31628  0.35079  1.0000
  C   C115      1.0  0.37894  0.37846  0.31017  1.0000
  C   C116      1.0  0.34782  0.49017  0.45428  1.0000
  C   C117      1.0  0.36531  0.47163  0.45197  1.0000
  C   C118      1.0  0.36659  0.45802  0.43205  1.0000
  C   C119      1.0  0.35038  0.46277  0.41435  1.0000
  C   C120      1.0  0.33306  0.48149  0.41655  1.0000
  C   C121      1.0  0.33189  0.49524  0.43640  1.0000
  H   H121      1.0  0.37783  0.46769  0.46554  1.0000
  H   H122      1.0  0.38012  0.44366  0.43042  1.0000
  H   H123      1.0  0.32062  0.48544  0.40295  1.0000
  H   H124      1.0  0.31843  0.50966  0.43798  1.0000
  S   S44       1.0  0.12449  0.20102  0.51735  1.0000
  C   C122      1.0  0.28511  0.53943  0.30230  1.0000
  C   C123      1.0  0.52534  0.34790  0.50246  1.0000
  C   C124      1.0  0.47310  0.49916  0.52844  1.0000
  H   H125      1.0  0.26125  0.34942  0.33991  1.0000
  H   H126      1.0  0.24985  0.11982  0.30201  1.0000
  C   C125      1.0  0.38804  0.36581  0.29146  1.0000
  H   H127      1.0  0.36102  0.06485  0.30843  1.0000
  H   H128      1.0  0.49199  0.43619  0.49304  1.0000
  H   H129      1.0  0.38601  0.37444  0.32691  1.0000
  C   C126      1.0  0.09779  0.22094  0.44512  1.0000
  C   C127      1.0  0.09263  0.22392  0.42196  1.0000
  C   C128      1.0  0.10291  0.24309  0.40895  1.0000
  C   C129      1.0  0.11821  0.25956  0.41913  1.0000
  C   C130      1.0  0.12326  0.25665  0.44234  1.0000
  C   C131      1.0  0.11335  0.23717  0.45524  1.0000
  H   H130      1.0  0.08066  0.21132  0.41405  1.0000
  H   H131      1.0  0.09885  0.24528  0.39111  1.0000
  H   H132      1.0  0.13527  0.26924  0.45022  1.0000
  H   H133      1.0  0.11782  0.23462  0.47295  1.0000
  H   H134      1.0  0.27232  0.31863  0.34044  1.0000
  H   H135      1.0  0.48051  0.49871  0.51082  1.0000
  S   S45       1.0  0.37292  0.45267  0.51612  1.0000
  C   C132      1.0  0.05714  0.22572  0.33899  1.0000
  N   N5        1.0  0.18119  0.20132  0.40867  1.0000
  C   C133      1.0  0.20658  0.20798  0.40374  1.0000
  C   C134      1.0  0.17438  0.18232  0.39249  1.0000
  C   C135      1.0  0.16613  0.22362  0.40429  1.0000
  C   C136      1.0  0.17707  0.19190  0.43218  1.0000
  C   C137      1.0  0.15349  0.18593  0.43982  1.0000
  C   C138      1.0  0.19608  0.18764  0.44786  1.0000
  C   C139      1.0  0.14921  0.17636  0.46171  1.0000
  C   C140      1.0  0.19155  0.17808  0.46974  1.0000
  C   C141      1.0  0.16819  0.17246  0.47664  1.0000
  H   H136      1.0  0.21889  0.19173  0.40512  1.0000
  H   H137      1.0  0.20889  0.21549  0.38609  1.0000
  H   H138      1.0  0.21270  0.22247  0.41521  1.0000
  H   H139      1.0  0.18499  0.16506  0.39543  1.0000
  H   H140      1.0  0.17753  0.18854  0.37456  1.0000
  H   H141      1.0  0.15500  0.17769  0.39392  1.0000
  H   H142      1.0  0.16907  0.23774  0.41726  1.0000
  H   H143      1.0  0.17009  0.23228  0.38735  1.0000
  H   H144      1.0  0.14666  0.21957  0.40430  1.0000
  H   H145      1.0  0.13810  0.18852  0.42891  1.0000
  H   H146      1.0  0.21461  0.19145  0.44367  1.0000
  H   H147      1.0  0.13103  0.17189  0.46709  1.0000
  H   H148      1.0  0.20623  0.17483  0.48145  1.0000
  H   H149      1.0  0.16482  0.16500  0.49360  1.0000
  H   H150      1.0  0.49817  0.36087  0.46589  1.0000
  H   H151      1.0  0.04572  0.31009  0.50271  1.0000
  H   H152      1.0  0.50542  0.38646  0.48292  1.0000
  C   C142      1.0  0.23174  0.07313  0.30753  1.0000
  C   C143      1.0  0.09118  0.26827  0.50979  1.0000
  H   H153      1.0  0.10137  0.07878  0.51880  1.0000
  H   H154      1.0  0.32171  0.42378  0.49461  1.0000
  C   C144      1.0  0.49795  0.34116  0.33587  1.0000
  C   C145      1.0  0.30714  0.32561  0.30665  1.0000
  C   C146      1.0  0.36061  0.39627  0.30734  1.0000
  C   C147      1.0  0.20168  0.19917  0.31354  1.0000
  C   C148      1.0  0.05743  0.05890  0.53557  1.0000
  H   H155      1.0  0.46984  0.38347  0.33111  1.0000
  N   N6        1.0  0.29409  0.34390  0.32054  1.0000
  C   C149      1.0  0.10743  0.07053  0.53530  1.0000
  C   C150      1.0  0.16118  0.11497  0.52627  1.0000
  C   C151      1.0  0.33017  0.33103  0.29733  1.0000
  H   H156      1.0  0.47571  0.35715  0.36296  1.0000
  N   N7        1.0  0.53353  0.35880  0.48036  1.0000
  H   H157      1.0  0.30666  0.37546  0.30085  1.0000
  H   H158      1.0  0.49917  0.33999  0.39419  1.0000
  C   C152      1.0  0.15392  0.09092  0.49312  1.0000
  H   H159      1.0  0.23787  0.09913  0.33431  1.0000
  H   H160      1.0  0.32844  0.42518  0.45551  1.0000
  H   H161      1.0  0.25779  0.33158  0.31534  1.0000
  Fe  Fe22      1.0  0.41194  0.46097  0.52036  1.0000
  H   H162      1.0  0.46188  0.48252  0.53102  1.0000
  C   C153      1.0  0.06334  0.28282  0.53790  1.0000
  H   H163      1.0  0.04217  0.23814  0.37043  1.0000
  H   H164      1.0  0.25280  0.44734  0.45496  1.0000
  H   H165      1.0  0.54028  0.33792  0.51135  1.0000
  H   H166      1.0  0.46024  0.51494  0.52945  1.0000
  C   C154      1.0  0.17557  0.09582  0.53526  1.0000
  H   H167      1.0  0.28054  0.29614  0.30862  1.0000
  H   H168      1.0  0.51004  0.33528  0.50030  1.0000
  C   C155      1.0  0.49973  0.36396  0.29987  1.0000
  H   H169      1.0  0.51379  0.35196  0.29214  1.0000
  C   C156      1.0  0.50690  0.41678  0.52203  1.0000
  C   C157      1.0  0.22307  0.18637  0.30864  1.0000
  C   C158      1.0  0.46486  0.42858  0.51847  1.0000
  C   C159      1.0  0.31073  0.42653  0.44820  1.0000
  S   S46       1.0  0.06561  0.20293  0.52514  1.0000
  N   N8        1.0  0.06639  0.27824  0.51327  1.0000
  S   S47       1.0  0.44207  0.44193  0.50189  1.0000
  H   H170      1.0  0.23797  0.18683  0.32026  1.0000
  H   H171      1.0  0.44980  0.35742  0.33296  1.0000
  H   H172      1.0  0.14566  0.08910  0.47673  1.0000
  C   C160      1.0  0.26684  0.43013  0.42562  1.0000
  H   H173      1.0  0.18987  0.05925  0.53032  1.0000
  C   C161      1.0  0.17877  0.07403  0.52335  1.0000
  H   H174      1.0  0.31405  0.33299  0.35031  1.0000
  C   C162      1.0  0.04847  0.26111  0.50452  1.0000
  H   H175      1.0  0.53714  0.30715  0.48522  1.0000
  H   H176      1.0  0.28925  0.48199  0.49909  1.0000
  H   H177      1.0  0.18884  0.09449  0.30076  1.0000
  C   C163      1.0  0.26869  0.43897  0.44759  1.0000
  H   H178      1.0  0.25000  0.43175  0.41650  1.0000
  C   C164      1.0  0.30889  0.34989  0.34040  1.0000
  C   C165      1.0  0.06001  0.28901  0.30279  1.0000
  C   C166      1.0  0.28971  0.36675  0.30687  1.0000
  H   H179      1.0  0.51883  0.36224  0.51433  1.0000
  H   H180      1.0  0.25572  0.43764  0.49279  1.0000
  C   C167      1.0  0.50464  0.33625  0.37690  1.0000
  H   H181      1.0  0.06768  0.30014  0.48225  1.0000
  H   H182      1.0  0.13919  0.12714  0.49818  1.0000
  H   H183      1.0  0.46182  0.31828  0.31603  1.0000
  C   C168      1.0  0.51302  0.37314  0.47064  1.0000
  C   C169      1.0  0.28676  0.41946  0.41502  1.0000
  H   H184      1.0  0.27788  0.41392  0.49808  1.0000
  H   H185      1.0  0.20774  0.11724  0.31258  1.0000
  H   H186      1.0  0.28534  0.41297  0.39787  1.0000
  H   H187      1.0  0.50895  0.37917  0.30827  1.0000
  C   C170      1.0  0.29070  0.43736  0.45962  1.0000
  H   H188      1.0  0.07552  0.22536  0.34499  1.0000
  H   H189      1.0  0.06718  0.21370  0.30581  1.0000
  C   C171      1.0  0.30860  0.41764  0.42629  1.0000
  H   H190      1.0  0.51408  0.47237  0.52888  1.0000
  H   H191      1.0  0.10494  0.27901  0.51866  1.0000
  H   H192      1.0  0.29818  0.48348  0.46990  1.0000
  H   H193      1.0  0.53488  0.31342  0.38699  1.0000
  C   C172      1.0  0.31629  0.44349  0.49320  1.0000
  C   C173      1.0  0.48827  0.42792  0.50958  1.0000
  H   H194      1.0  0.52477  0.41660  0.51502  1.0000
  H   H195      1.0  0.27997  0.38090  0.31690  1.0000
  N   N9        1.0  0.48390  0.35037  0.31613  1.0000
  H   H196      1.0  0.07113  0.29537  0.31631  1.0000
  C   C174      1.0  0.49880  0.54519  0.53699  1.0000
  N   N10       1.0  0.29217  0.44691  0.48286  1.0000
  H   H197      1.0  0.45360  0.37384  0.30691  1.0000
  H   H198      1.0  0.26751  0.47767  0.47741  1.0000
  H   H199      1.0  0.12722  0.07319  0.53599  1.0000
  C   C175      1.0  0.27040  0.33534  0.32933  1.0000
  C   C176      1.0  0.05094  0.25201  0.48226  1.0000
  Fe  Fe23      1.0  0.12342  0.16297  0.53245  1.0000
  H   H200      1.0  0.53509  0.25707  0.30484  1.0000
  H   H201      1.0  0.09679  0.26841  0.49166  1.0000
  S   S48       1.0  0.09720  0.25637  0.29251  1.0000
  H   H202      1.0  0.06558  0.25755  0.47114  1.0000
  C   C177      1.0  0.18244  0.19850  0.29851  1.0000
  C   C178      1.0  0.06416  0.30207  0.50076  1.0000
  H   H203      1.0  0.29903  0.36236  0.35212  1.0000
  H   H204      1.0  0.31689  0.45086  0.51064  1.0000
  H   H205      1.0  0.51825  0.38411  0.45527  1.0000
  C   C179      1.0  0.53415  0.51859  0.53859  1.0000
  C   C180      1.0  0.29797  0.30194  0.30245  1.0000
  H   H206      1.0  0.16579  0.20819  0.30231  1.0000
  C   C181      1.0  0.20441  0.10661  0.29713  1.0000
  H   H207      1.0  0.33832  0.34858  0.29981  1.0000
  H   H208      1.0  0.48781  0.31674  0.29763  1.0000
  N   N11       1.0  0.22587  0.09212  0.28992  1.0000
  H   H209      1.0  0.46263  0.33555  0.28978  1.0000
  C   C182      1.0  0.31135  0.28484  0.28998  1.0000
  H   H210      1.0  0.27875  0.36321  0.29168  1.0000
  H   H211      1.0  0.47962  0.54865  0.53825  1.0000
  C   C183      1.0  0.06850  0.27023  0.28895  1.0000
  C   C184      1.0  0.16332  0.18954  0.62709  1.0000
  S   S49       1.0  0.09970  0.17275  0.56186  1.0000
  C   C185      1.0  0.21953  0.09316  0.77092  1.0000
  C   C186      1.0  0.23376  0.20185  0.77622  1.0000
  S   S50       1.0  0.10828  0.24435  0.56427  1.0000
  Fe  Fe24      1.0  0.28429  0.45735  0.72847  1.0000
  S   S51       1.0  0.32301  0.44976  0.73600  1.0000
  S   S52       1.0  0.27165  0.49691  0.73103  1.0000
  Fe  Fe25      1.0  0.27603  0.40502  0.71344  1.0000
  S   S53       1.0  0.31454  0.39375  0.71956  1.0000
  S   S54       1.0  0.25517  0.37385  0.69899  1.0000
  Fe  Fe26      1.0  0.31028  0.41441  0.75162  1.0000
  C   C187      1.0  0.35335  0.50416  0.64510  1.0000
  Fe  Fe27      1.0  0.32399  0.42992  0.70320  1.0000
  S   S55       1.0  0.35695  0.43705  0.68139  1.0000
  S   S56       1.0  0.27098  0.42336  0.74698  1.0000
  S   S57       1.0  0.28591  0.43981  0.69427  1.0000
  Fe  Fe28      1.0  0.11385  0.26367  0.74768  1.0000
  S   S58       1.0  0.12498  0.23458  0.72331  1.0000
  C   C188      1.0  0.33816  0.28966  0.78221  1.0000
  Fe  Fe29      1.0  0.13987  0.30372  0.72028  1.0000
  S   S59       1.0  0.15220  0.27804  0.69304  1.0000
  S   S60       1.0  0.14832  0.34387  0.72433  1.0000
  Fe  Fe30      1.0  0.11497  0.26242  0.69609  1.0000
  S   S61       1.0  0.08901  0.24811  0.67042  1.0000
  Fe  Fe31      1.0  0.16102  0.25242  0.72243  1.0000
  S   S62       1.0  0.19679  0.23224  0.72334  1.0000
  S   S63       1.0  0.10167  0.29057  0.72070  1.0000
  S   S64       1.0  0.15104  0.27896  0.74937  1.0000
  C   C189      1.0  0.36111  0.48807  0.77942  1.0000
  S   S65       1.0  0.34147  0.44343  0.57493  1.0000
  H   H212      1.0  0.33129  0.50892  0.68782  1.0000
  C   C190      1.0  0.35289  0.43774  0.65176  1.0000
  C   C191      1.0  0.33122  0.43053  0.64237  1.0000
  C   C192      1.0  0.32799  0.43225  0.61876  1.0000
  C   C193      1.0  0.34634  0.44127  0.60443  1.0000
  C   C194      1.0  0.36810  0.44824  0.61382  1.0000
  C   C195      1.0  0.37143  0.44628  0.63742  1.0000
  H   H213      1.0  0.31699  0.42348  0.65324  1.0000
  H   H214      1.0  0.31123  0.42655  0.61156  1.0000
  H   H215      1.0  0.38238  0.45507  0.60290  1.0000
  H   H216      1.0  0.38829  0.45170  0.64458  1.0000
  C   C196      1.0  0.28090  0.51237  0.75534  1.0000
  C   C197      1.0  0.51572  0.38226  0.73065  1.0000
  H   H217      1.0  0.24011  0.20898  0.74045  1.0000
  S   S66       1.0  0.40853  0.46717  0.55771  1.0000
  H   H218      1.0  0.46870  0.48858  0.57251  1.0000
  C   C198      1.0  0.22487  0.36715  0.70519  1.0000
  C   C199      1.0  0.21060  0.38170  0.71938  1.0000
  C   C200      1.0  0.18679  0.37486  0.72461  1.0000
  C   C201      1.0  0.17741  0.35321  0.71608  1.0000
  C   C202      1.0  0.19168  0.33879  0.70185  1.0000
  C   C203      1.0  0.21520  0.34592  0.69622  1.0000
  H   H219      1.0  0.21791  0.39815  0.72630  1.0000
  H   H220      1.0  0.17580  0.38613  0.73560  1.0000
  H   H221      1.0  0.18457  0.32223  0.69502  1.0000
  H   H222      1.0  0.22608  0.33475  0.68502  1.0000
  C   C204      1.0  0.23793  0.29611  0.73268  1.0000
  C   C205      1.0  0.53899  0.35038  0.62234  1.0000
  H   H223      1.0  0.28576  0.47951  0.77586  1.0000
  C   C206      1.0  0.28151  0.53814  0.75501  1.0000
  C   C207      1.0  0.20441  0.22074  0.75049  1.0000
  C   C208      1.0  0.22732  0.21036  0.75435  1.0000
  H   H224      1.0  0.47484  0.39737  0.56835  1.0000
  H   H225      1.0  0.19925  0.12643  0.69362  1.0000
  H   H226      1.0  0.36184  0.43794  0.76980  1.0000
  C   C209      1.0  0.08629  0.34781  0.75455  1.0000
  C   C210      1.0  0.36303  0.38023  0.76229  1.0000
  H   H227      1.0  0.30738  0.09005  0.78261  1.0000
  C   C211      1.0  0.38438  0.36626  0.76093  1.0000
  H   H228      1.0  0.35530  0.38808  0.74701  1.0000
  C   C212      1.0  0.32313  0.51960  0.61887  1.0000
  H   H229      1.0  0.33461  0.33703  0.74266  1.0000
  H   H230      1.0  0.47227  0.32646  0.77570  1.0000
  H   H231      1.0  0.13200  0.20236  0.59286  1.0000
  H   H232      1.0  0.50145  0.33395  0.78506  1.0000
  N   N12       1.0  0.30936  0.50607  0.65800  1.0000
  H   H233      1.0  0.37874  0.52003  0.59406  1.0000
  C   C213      1.0  0.10365  0.24448  0.59392  1.0000
  C   C214      1.0  0.08637  0.22955  0.60441  1.0000
  C   C215      1.0  0.08221  0.23080  0.62792  1.0000
  C   C216      1.0  0.09572  0.24644  0.64117  1.0000
  C   C217      1.0  0.11361  0.26073  0.63080  1.0000
  C   C218      1.0  0.11733  0.25998  0.60717  1.0000
  H   H234      1.0  0.07574  0.21753  0.59436  1.0000
  H   H235      1.0  0.06834  0.21969  0.63585  1.0000
  H   H236      1.0  0.12411  0.27284  0.64088  1.0000
  H   H237      1.0  0.13081  0.27150  0.59915  1.0000
  C   C219      1.0  0.29188  0.48829  0.64951  1.0000
  H   H238      1.0  0.06393  0.26529  0.54807  1.0000
  H   H239      1.0  0.12623  0.21172  0.66911  1.0000
  C   C220      1.0  0.28815  0.55077  0.77447  1.0000
  C   C221      1.0  0.33076  0.31949  0.75096  1.0000
  H   H240      1.0  0.30337  0.49390  0.69279  1.0000
  C   C222      1.0  0.31826  0.49635  0.68019  1.0000
  H   H241      1.0  0.06414  0.23982  0.71435  1.0000
  H   H242      1.0  0.22316  0.28687  0.72369  1.0000
  H   H243      1.0  0.12759  0.16171  0.60951  1.0000
  H   H244      1.0  0.45521  0.34363  0.74279  1.0000
  C   C223      1.0  0.30909  0.28153  0.75229  1.0000
  H   H245      1.0  0.17413  0.16331  0.70130  1.0000
  H   H246      1.0  0.30935  0.54381  0.66764  1.0000
  C   C224      1.0  0.47867  0.40613  0.55206  1.0000
  C   C225      1.0  0.18546  0.19235  0.63861  1.0000
  C   C226      1.0  0.36495  0.51752  0.60706  1.0000
  H   H247      1.0  0.12733  0.32428  0.76399  1.0000
  H   H248      1.0  0.19540  0.16129  0.77040  1.0000
  C   C227      1.0  0.50537  0.47597  0.54559  1.0000
  H   H249      1.0  0.06554  0.29107  0.75498  1.0000
  H   H250      1.0  0.20297  0.20426  0.66893  1.0000
  C   C228      1.0  0.14201  0.19694  0.63873  1.0000
  C   C229      1.0  0.36507  0.50842  0.74187  1.0000
  H   H251      1.0  0.39262  0.36301  0.74453  1.0000
  S   S67       1.0  0.52515  0.38965  0.55780  1.0000
  H   H252      1.0  0.07800  0.29427  0.54450  1.0000
  N   N13       1.0  0.23089  0.30194  0.75633  1.0000
  H   H253      1.0  0.35935  0.49590  0.66094  1.0000
  H   H254      1.0  0.28285  0.49496  0.63377  1.0000
  C   C230      1.0  0.22379  0.50368  0.78083  1.0000
  C   C231      1.0  0.25104  0.31384  0.76779  1.0000
  S   S68       1.0  0.42234  0.53385  0.56664  1.0000
  C   C232      1.0  0.26078  0.33599  0.75865  1.0000
  N   N14       1.0  0.48976  0.35461  0.75522  1.0000
  H   H255      1.0  0.38968  0.50300  0.63179  1.0000
  H   H256      1.0  0.19991  0.09120  0.77432  1.0000
  C   C233      1.0  0.18794  0.22243  0.76848  1.0000
  H   H257      1.0  0.46868  0.36748  0.72637  1.0000
  C   C234      1.0  0.14276  0.20624  0.66057  1.0000
  C   C235      1.0  0.05577  0.28632  0.77029  1.0000
  H   H258      1.0  0.22281  0.10654  0.72379  1.0000
  H   H259      1.0  0.06244  0.38050  0.78499  1.0000
  H   H260      1.0  0.05413  0.22627  0.75355  1.0000
  H   H261      1.0  0.24233  0.31274  0.72226  1.0000
  C   C236      1.0  0.21138  0.13153  0.75033  1.0000
  C   C237      1.0  0.50862  0.52111  0.54001  1.0000
  H   H262      1.0  0.48034  0.33654  0.72462  1.0000
  S   S69       1.0  0.15718  0.14199  0.54146  1.0000
  H   H263      1.0  0.16516  0.21641  0.68812  1.0000
  C   C238      1.0  0.29656  0.52962  0.66228  1.0000
  H   H264      1.0  0.14586  0.14866  0.58793  1.0000
  H   H265      1.0  0.49275  0.46065  0.54923  1.0000
  S   S70       1.0  0.09268  0.25341  0.77953  1.0000
  S   S71       1.0  0.36168  0.50296  0.54461  1.0000
  C   C239      1.0  0.18566  0.17213  0.59433  1.0000
  S   S72       1.0  0.32445  0.40029  0.78523  1.0000
  C   C240      1.0  0.39483  0.35616  0.78062  1.0000
  H   H266      1.0  0.16090  0.21570  0.58852  1.0000
  H   H267      1.0  0.17013  0.23010  0.76564  1.0000
  H   H268      1.0  0.22419  0.52047  0.74755  1.0000
  H   H269      1.0  0.47139  0.52102  0.56917  1.0000
  C   C241      1.0  0.21188  0.12242  0.72798  1.0000
  H   H270      1.0  0.17261  0.18019  0.73972  1.0000
  C   C242      1.0  0.20984  0.31898  0.75578  1.0000
  C   C243      1.0  0.06449  0.26763  0.78474  1.0000
  N   N15       1.0  0.22605  0.11941  0.76833  1.0000
  C   C244      1.0  0.47987  0.37449  0.76944  1.0000
  H   H271      1.0  0.27695  0.54835  0.73965  1.0000
  H   H272      1.0  0.19440  0.31113  0.74670  1.0000
  H   H273      1.0  0.20776  0.27057  0.75850  1.0000
  H   H274      1.0  0.52114  0.35654  0.61723  1.0000
  C   C245      1.0  0.15103  0.19810  0.58836  1.0000
  H   H275      1.0  0.15094  0.19178  0.57053  1.0000
  H   H276      1.0  0.25422  0.34423  0.74295  1.0000
  H   H277      1.0  0.49211  0.37813  0.78378  1.0000
  C   C246      1.0  0.16468  0.20886  0.67132  1.0000
  C   C247      1.0  0.30712  0.05796  0.76174  1.0000
  C   C248      1.0  0.34277  0.31238  0.77082  1.0000
  C   C249      1.0  0.18345  0.16387  0.73653  1.0000
  H   H278      1.0  0.28599  0.36524  0.76244  1.0000
  C   C250      1.0  0.19852  0.13372  0.71055  1.0000
  H   H279      1.0  0.12805  0.36758  0.76702  1.0000
  C   C251      1.0  0.46006  0.41807  0.53991  1.0000
  Fe  Fe32      1.0  0.36877  0.46307  0.55265  1.0000
  C   C252      1.0  0.18597  0.20195  0.66040  1.0000
  H   H280      1.0  0.51924  0.47451  0.55904  1.0000
  H   H281      1.0  0.25641  0.11053  0.74644  1.0000
  H   H282      1.0  0.50007  0.39301  0.72563  1.0000
  H   H283      1.0  0.26361  0.11297  0.77554  1.0000
  H   H284      1.0  0.18385  0.16444  0.57710  1.0000
  H   H285      1.0  0.32690  0.47797  0.67848  1.0000
  C   C253      1.0  0.29896  0.07269  0.77965  1.0000
  C   C254      1.0  0.32094  0.27429  0.77226  1.0000
  H   H286      1.0  0.07294  0.33314  0.75234  1.0000
  H   H287      1.0  0.21399  0.33658  0.74684  1.0000
  H   H288      1.0  0.27740  0.48430  0.66225  1.0000
  H   H289      1.0  0.38035  0.26459  0.78473  1.0000
  H   H290      1.0  0.15353  0.14331  0.61716  1.0000
  H   H291      1.0  0.09982  0.34630  0.74055  1.0000
  H   H292      1.0  0.46202  0.36957  0.77697  1.0000
  H   H293      1.0  0.19777  0.18812  0.59228  1.0000
  H   H294      1.0  0.30472  0.30970  0.72626  1.0000
  H   H295      1.0  0.19461  0.15754  0.60493  1.0000
  C   C255      1.0  0.14658  0.15738  0.60478  1.0000
  H   H296      1.0  0.47716  0.39196  0.75964  1.0000
  C   C256      1.0  0.47290  0.35046  0.73639  1.0000
  C   C257      1.0  0.32873  0.50995  0.64083  1.0000
  H   H297      1.0  0.22540  0.48523  0.77449  1.0000
  H   H298      1.0  0.07680  0.36567  0.75169  1.0000
  C   C258      1.0  0.53533  0.34931  0.75202  1.0000
  H   H299      1.0  0.23765  0.26457  0.76809  1.0000
  H   H300      1.0  0.30480  0.52402  0.61420  1.0000
  C   C259      1.0  0.35675  0.53051  0.75066  1.0000
  N   N16       1.0  0.16191  0.17945  0.60407  1.0000
  H   H301      1.0  0.35596  0.32474  0.77705  1.0000
  C   C260      1.0  0.22298  0.27873  0.76767  1.0000
  H   H302      1.0  0.31649  0.25645  0.77937  1.0000
  H   H303      1.0  0.39174  0.44765  0.77713  1.0000
  C   C261      1.0  0.37110  0.50807  0.62841  1.0000
  H   H304      1.0  0.20263  0.18747  0.63113  1.0000
  C   C262      1.0  0.18436  0.15444  0.71483  1.0000
  C   C263      1.0  0.36734  0.48747  0.75595  1.0000
  H   H305      1.0  0.52717  0.33878  0.65504  1.0000
  H   H306      1.0  0.28265  0.52751  0.67597  1.0000
  H   H307      1.0  0.25392  0.28360  0.73233  1.0000
  H   H308      1.0  0.12454  0.19580  0.63097  1.0000
  C   C264      1.0  0.51362  0.36181  0.74595  1.0000
  H   H309      1.0  0.53572  0.33399  0.76392  1.0000
  H   H310      1.0  0.29628  0.26938  0.74487  1.0000
  H   H311      1.0  0.25727  0.14029  0.75885  1.0000
  N   N17       1.0  0.09761  0.34566  0.77722  1.0000
  C   C265      1.0  0.49052  0.33177  0.76953  1.0000
  C   C266      1.0  0.25189  0.12089  0.76194  1.0000
  H   H312      1.0  0.44191  0.41843  0.54676  1.0000
  C   C267      1.0  0.31392  0.30410  0.74171  1.0000
  H   H313      1.0  0.32181  0.06414  0.75095  1.0000
  H   H314      1.0  0.53884  0.27175  0.75259  1.0000
  H   H315      1.0  0.20363  0.32349  0.77320  1.0000
  C   C268      1.0  0.28662  0.49932  0.77532  1.0000
  C   C269      1.0  0.27895  0.34828  0.76970  1.0000
  C   C270      1.0  0.19674  0.15272  0.75410  1.0000
  H   H316      1.0  0.37363  0.47095  0.74791  1.0000
  H   H317      1.0  0.28702  0.53697  0.64704  1.0000
  C   C271      1.0  0.11334  0.36706  0.78009  1.0000
  H   H318      1.0  0.36963  0.50743  0.72398  1.0000
  H   H319      1.0  0.22431  0.08244  0.75571  1.0000
  N   N18       1.0  0.49265  0.50017  0.54537  1.0000
  H   H320      1.0  0.21628  0.28166  0.78527  1.0000
  C   C272      1.0  0.04629  0.24341  0.72127  1.0000
  H   H321      1.0  0.18413  0.09775  0.55148  1.0000
  C   C273      1.0  0.22306  0.52364  0.76564  1.0000
  H   H322      1.0  0.49785  0.31596  0.75993  1.0000
  H   H323      1.0  0.30100  0.47057  0.64554  1.0000
  S   S73       1.0  0.42029  0.33692  0.77816  1.0000
  H   H324      1.0  0.49563  0.50350  0.58149  1.0000
  C   C274      1.0  0.35175  0.38375  0.78329  1.0000
  C   C275      1.0  0.26091  0.30461  0.78853  1.0000
  H   H325      1.0  0.25147  0.19400  0.77916  1.0000
  C   C276      1.0  0.37329  0.44418  0.78384  1.0000
  C   C277      1.0  0.53810  0.38949  0.72185  1.0000
  H   H326      1.0  0.22928  0.08388  0.78525  1.0000
  C   C278      1.0  0.50213  0.40545  0.54308  1.0000
  H   H327      1.0  0.53931  0.40528  0.71033  1.0000
  H   H328      1.0  0.33630  0.53020  0.58549  1.0000
  C   C279      1.0  0.34101  0.52326  0.60229  1.0000
  C   C280      1.0  0.48166  0.50342  0.56813  1.0000
  H   H329      1.0  0.51394  0.28058  0.78695  1.0000
  C   C281      1.0  0.53203  0.28751  0.78537  1.0000
  H   H330      1.0  0.09955  0.08136  0.54938  1.0000
  Fe  Fe33      1.0  0.40174  0.50646  0.54697  1.0000
  H   H331      1.0  0.10283  0.30652  0.77450  1.0000
  C   C282      1.0  0.11329  0.32333  0.77751  1.0000
  H   H332      1.0  0.35481  0.54669  0.73972  1.0000
  C   C283      1.0  0.35066  0.53174  0.77356  1.0000
  Fe  Fe34      1.0  0.09863  0.21023  0.54558  1.0000
  H   H333      1.0  0.53572  0.30764  0.68159  1.0000
  C   C284      1.0  0.35262  0.51088  0.78774  1.0000
  C   C285      1.0  0.22213  0.54759  0.77356  1.0000
  H   H334      1.0  0.34389  0.54888  0.78038  1.0000
  H   H335      1.0  0.04616  0.29271  0.54168  1.0000
  H   H336      1.0  0.10333  0.38479  0.77829  1.0000
  Fe  Fe35      1.0  0.06915  0.16426  0.53891  1.0000
  H   H337      1.0  0.54108  0.33817  0.69197  1.0000
  C   C286      1.0  0.26398  0.08476  0.90030  1.0000
  Fe  Fe36      1.0  0.18735  0.13066  0.99972  1.0000
  H   H338      1.0  0.29655  0.50181  0.81042  1.0000
  S   S74       1.0  0.19247  0.15008  0.96573  1.0000
  H   H339      1.0  0.38036  0.45502  0.82595  1.0000
  S   S75       1.0  0.16390  0.09783  0.99781  1.0000
  H   H340      1.0  0.12183  0.36641  0.79710  1.0000
  H   H341      1.0  0.32977  0.30579  0.82410  1.0000
  C   C287      1.0  0.04327  0.36462  0.81294  1.0000
  Fe  Fe37      1.0  0.47894  0.37664  0.00957  1.0000
  H   H342      1.0  0.43465  0.49695  0.99794  1.0000
  S   S76       1.0  0.49586  0.36094  0.97800  1.0000
  C   C288      1.0  0.39234  0.50996  0.97823  1.0000
  H   H343      1.0  0.43346  0.42344  0.92648  1.0000
  S   S77       1.0  0.47609  0.41718  0.01438  1.0000
  Fe  Fe38      1.0  0.44496  0.33193  0.86059  1.0000
  S   S78       1.0  0.46705  0.29749  0.86489  1.0000
  S   S79       1.0  0.43340  0.35710  0.88877  1.0000
  Fe  Fe39      1.0  0.43571  0.32204  0.81090  1.0000
  S   S80       1.0  0.45665  0.28635  0.81132  1.0000
  C   C289      1.0  0.07627  0.32549  0.81125  1.0000
  Fe  Fe40      1.0  0.43803  0.27962  0.84507  1.0000
  S   S81       1.0  0.41953  0.24688  0.86153  1.0000
  Fe  Fe41      1.0  0.48362  0.30744  0.83092  1.0000
  C   C290      1.0  0.22182  0.53139  0.81221  1.0000
  S   S82       1.0  0.41495  0.31359  0.84277  1.0000
  S   S83       1.0  0.46367  0.34358  0.82825  1.0000
  Fe  Fe42      1.0  0.25844  0.17181  0.82913  1.0000
  H   H344      1.0  0.43591  0.53351  0.94382  1.0000
  S   S84       1.0  0.22421  0.19326  0.82186  1.0000
  Fe  Fe43      1.0  0.28653  0.14978  0.86905  1.0000
  S   S85       1.0  0.31329  0.13064  0.84624  1.0000
  S   S86       1.0  0.28906  0.14479  0.90727  1.0000
  Fe  Fe44      1.0  0.31259  0.16624  0.82579  1.0000
  S   S87       1.0  0.34415  0.18476  0.80792  1.0000
  Fe  Fe45      1.0  0.28122  0.12049  0.82570  1.0000
  C   C291      1.0  0.42555  0.48517  0.93197  1.0000
  S   S88       1.0  0.28832  0.18614  0.85015  1.0000
  S   S89       1.0  0.25469  0.13720  0.85006  1.0000
  H   H345      1.0  0.18151  0.21539  0.80413  1.0000
  H   H346      1.0  0.05243  0.12739  0.02083  1.0000
  H   H347      1.0  0.41652  0.46302  0.98616  1.0000
  H   H348      1.0  0.43382  0.46209  0.90360  1.0000
  C   C292      1.0  0.27905  0.31713  0.79948  1.0000
  H   H349      1.0  0.45345  0.51267  0.97775  1.0000
  H   H350      1.0  0.15141  0.17396  0.94778  1.0000
  C   C293      1.0  0.05093  0.26072  0.80405  1.0000
  C   C294      1.0  0.42489  0.44135  0.95769  1.0000
  S   S90       1.0  0.28252  0.15443  0.80325  1.0000
  H   H351      1.0  0.39238  0.35336  0.81707  1.0000
  C   C295      1.0  0.36585  0.20048  0.82336  1.0000
  C   C296      1.0  0.38486  0.21199  0.81155  1.0000
  C   C297      1.0  0.40141  0.22631  0.82304  1.0000
  C   C298      1.0  0.39923  0.22896  0.84649  1.0000
  C   C299      1.0  0.38060  0.21696  0.85839  1.0000
  C   C300      1.0  0.36381  0.20295  0.84685  1.0000
  C   C301      1.0  0.41795  0.53190  0.95218  1.0000
  H   H352      1.0  0.41603  0.23501  0.81380  1.0000
  H   H353      1.0  0.37895  0.21867  0.87658  1.0000
  H   H354      1.0  0.34928  0.19409  0.85611  1.0000
  H   H355      1.0  0.39606  0.47771  0.80893  1.0000
  H   H356      1.0  0.08781  0.30936  0.81119  1.0000
  H   H357      1.0  0.14518  0.21658  0.98161  1.0000
  C   C302      1.0  0.47805  0.35952  0.95353  1.0000
  C   C303      1.0  0.45486  0.36986  0.95289  1.0000
  C   C304      1.0  0.44129  0.36891  0.93295  1.0000
  C   C305      1.0  0.45076  0.35756  0.91363  1.0000
  C   C306      1.0  0.47379  0.34688  0.91440  1.0000
  C   C307      1.0  0.48742  0.34795  0.93428  1.0000
  H   H358      1.0  0.44745  0.37865  0.96770  1.0000
  H   H359      1.0  0.42337  0.37694  0.93252  1.0000
  H   H360      1.0  0.48128  0.33816  0.89958  1.0000
  H   H361      1.0  0.50532  0.33987  0.93472  1.0000
  H   H362      1.0  0.25645  0.09326  0.96957  1.0000
  C   C308      1.0  0.28802  0.33894  0.79012  1.0000
  C   C309      1.0  0.05819  0.22864  0.97759  1.0000
  C   C310      1.0  0.25414  0.07308  0.97145  1.0000
  H   H363      1.0  0.27162  0.06379  0.96751  1.0000
  H   H364      1.0  0.28601  0.30998  0.81545  1.0000
  C   C311      1.0  0.21956  0.14834  0.94989  1.0000
  C   C312      1.0  0.24145  0.14197  0.96008  1.0000
  C   C313      1.0  0.26272  0.14110  0.94688  1.0000
  C   C314      1.0  0.26215  0.14634  0.92343  1.0000
  C   C315      1.0  0.24022  0.15262  0.91329  1.0000
  C   C316      1.0  0.21904  0.15376  0.92651  1.0000
  H   H365      1.0  0.24208  0.13821  0.97817  1.0000
  H   H366      1.0  0.27970  0.13652  0.95484  1.0000
  H   H367      1.0  0.23961  0.15692  0.89530  1.0000
  H   H368      1.0  0.20220  0.15883  0.91851  1.0000
  S   S91       1.0  0.52414  0.30972  0.82676  1.0000
  H   H369      1.0  0.20844  0.07533  0.98186  1.0000
  S   S92       1.0  0.21256  0.11333  0.02542  1.0000
  H   H370      1.0  0.30204  0.34871  0.79860  1.0000
  H   H371      1.0  0.41494  0.54909  0.96170  1.0000
  H   H372      1.0  0.37798  0.50842  0.96536  1.0000
  H   H373      1.0  0.35345  0.25435  0.82954  1.0000
  C   C317      1.0  0.06196  0.14097  0.03006  1.0000
  H   H374      1.0  0.43212  0.52932  0.99495  1.0000
  H   H375      1.0  0.13688  0.14866  0.97778  1.0000
  C   C318      1.0  0.38418  0.36064  0.80176  1.0000
  H   H376      1.0  0.04184  0.23967  0.97941  1.0000
  C   C319      1.0  0.43007  0.46266  0.92167  1.0000
  H   H377      1.0  0.39002  0.49467  0.99079  1.0000
  C   C320      1.0  0.06967  0.22696  0.95654  1.0000
  H   H378      1.0  0.16014  0.18727  0.98501  1.0000
  C   C321      1.0  0.26005  0.08121  0.92364  1.0000
  C   C322      1.0  0.42983  0.44082  0.93451  1.0000
  C   C323      1.0  0.41907  0.46437  0.03645  1.0000
  H   H379      1.0  0.10575  0.15147  0.96996  1.0000
  H   H380      1.0  0.35799  0.29625  0.83638  1.0000
  N   N19       1.0  0.41658  0.50978  0.96741  1.0000
  H   H381      1.0  0.40548  0.30243  0.95601  1.0000
  H   H382      1.0  0.09893  0.21269  0.93750  1.0000
  H   H383      1.0  0.42598  0.50135  0.92103  1.0000
  S   S93       1.0  0.26889  0.08248  0.81643  1.0000
  C   C324      1.0  0.43498  0.51229  0.98521  1.0000
  C   C325      1.0  0.12024  0.16019  0.97963  1.0000
  H   H384      1.0  0.45949  0.32222  0.00276  1.0000
  C   C326      1.0  0.14235  0.19694  0.98636  1.0000
  C   C327      1.0  0.05781  0.32551  0.82757  1.0000
  N   N20       1.0  0.23463  0.06445  0.95673  1.0000
  C   C328      1.0  0.37791  0.47150  0.81457  1.0000
  C   C329      1.0  0.22295  0.06046  0.91586  1.0000
  H   H385      1.0  0.05893  0.21773  0.01279  1.0000
  H   H386      1.0  0.37468  0.42822  0.79598  1.0000
  C   C330      1.0  0.13442  0.18509  0.94834  1.0000
  C   C331      1.0  0.37746  0.27937  0.79722  1.0000
  H   H387      1.0  0.13924  0.20371  0.94174  1.0000
  C   C332      1.0  0.21216  0.07755  0.96333  1.0000
  N   N21       1.0  0.36272  0.46618  0.79480  1.0000
  C   C333      1.0  0.24762  0.07620  0.88480  1.0000
  C   C334      1.0  0.08899  0.20225  0.99433  1.0000
  H   H388      1.0  0.12298  0.32087  0.79383  1.0000
  H   H389      1.0  0.25083  0.07914  0.86674  1.0000
  H   H390      1.0  0.27971  0.09459  0.89417  1.0000
  C   C335      1.0  0.21725  0.20372  0.79423  1.0000
  H   H391      1.0  0.35410  0.37723  0.81942  1.0000
  C   C336      1.0  0.08654  0.13774  0.03427  1.0000
  C   C337      1.0  0.29385  0.53765  0.79446  1.0000
  H   H392      1.0  0.34597  0.24335  0.80247  1.0000
  H   H393      1.0  0.21430  0.05774  0.88040  1.0000
  C   C338      1.0  0.09089  0.21297  0.95424  1.0000
  H   H394      1.0  0.12187  0.17648  0.93646  1.0000
  H   H395      1.0  0.38872  0.52726  0.98746  1.0000
  C   C339      1.0  0.33827  0.45980  0.80311  1.0000
  H   H396      1.0  0.33840  0.44260  0.81376  1.0000
  H   H397      1.0  0.23384  0.12086  0.80413  1.0000
  H   H398      1.0  0.21328  0.09755  0.95920  1.0000
  H   H399      1.0  0.27334  0.08885  0.93452  1.0000
  C   C340      1.0  0.42071  0.48635  0.95567  1.0000
  H   H400      1.0  0.42461  0.42437  0.96774  1.0000
  H   H401      1.0  0.11519  0.15882  0.99789  1.0000
  H   H402      1.0  0.13714  0.19599  0.00464  1.0000
  Fe  Fe46      1.0  0.14223  0.11436  0.02580  1.0000
  H   H403      1.0  0.09583  0.19324  0.00954  1.0000
  C   C341      1.0  0.06782  0.21625  0.99640  1.0000
  N   N22       1.0  0.12413  0.18590  0.97170  1.0000
  C   C342      1.0  0.07872  0.34524  0.79515  1.0000
  C   C343      1.0  0.10128  0.20021  0.97321  1.0000
  C   C344      1.0  0.36252  0.37420  0.80307  1.0000
  S   S94       1.0  0.41039  0.43503  0.02831  1.0000
  S   S95       1.0  0.10197  0.11264  0.02273  1.0000
  H   H404      1.0  0.53973  0.38181  0.99789  1.0000
  H   H405      1.0  0.41719  0.32352  0.99014  1.0000
  H   H406      1.0  0.34688  0.51276  0.80521  1.0000
  C   C345      1.0  0.04964  0.16186  0.03767  1.0000
  H   H407      1.0  0.48003  0.27848  0.94700  1.0000
  H   H408      1.0  0.05569  0.30986  0.83910  1.0000
  H   H409      1.0  0.06218  0.23683  0.94198  1.0000
  H   H410      1.0  0.22135  0.53342  0.83039  1.0000
  S   S96       1.0  0.16373  0.14866  0.02577  1.0000
  S   S97       1.0  0.44265  0.36846  0.02499  1.0000
  H   H411      1.0  0.05750  0.24611  0.81522  1.0000
  C   C346      1.0  0.34902  0.30181  0.82018  1.0000
  H   H412      1.0  0.36990  0.48602  0.82533  1.0000
  C   C347      1.0  0.29269  0.51195  0.79487  1.0000
  C   C348      1.0  0.42030  0.46369  0.96812  1.0000
  H   H413      1.0  0.40371  0.53201  0.93903  1.0000
  H   H414      1.0  0.49034  0.30006  0.98080  1.0000
  C   C349      1.0  0.19438  0.21404  0.79027  1.0000
  H   H415      1.0  0.33004  0.47439  0.81360  1.0000
  H   H416      1.0  0.52729  0.44561  0.01017  1.0000
  C   C350      1.0  0.06179  0.36493  0.79668  1.0000
  Fe  Fe47      1.0  0.18685  0.08175  0.02548  1.0000
  N   N23       1.0  0.43404  0.27536  0.92726  1.0000
  C   C351      1.0  0.41441  0.25784  0.93238  1.0000
  C   C352      1.0  0.42520  0.29411  0.91058  1.0000
  C   C353      1.0  0.45399  0.26137  0.91631  1.0000
  C   C354      1.0  0.44130  0.28762  0.94819  1.0000
  C   C355      1.0  0.46547  0.28749  0.95592  1.0000
  C   C356      1.0  0.42405  0.30094  0.96115  1.0000
  C   C357      1.0  0.47172  0.29973  0.97549  1.0000
  C   C358      1.0  0.43054  0.31310  0.98070  1.0000
  C   C359      1.0  0.45432  0.31241  0.98788  1.0000
  H   H417      1.0  0.39765  0.26712  0.93831  1.0000
  H   H418      1.0  0.40940  0.24760  0.91701  1.0000
  H   H419      1.0  0.41993  0.24411  0.94571  1.0000
  H   H420      1.0  0.40922  0.30453  0.91682  1.0000
  H   H421      1.0  0.41996  0.28580  0.89435  1.0000
  H   H422      1.0  0.43934  0.30777  0.90661  1.0000
  H   H423      1.0  0.46129  0.24668  0.92786  1.0000
  H   H424      1.0  0.44796  0.25216  0.90076  1.0000
  H   H425      1.0  0.46888  0.27360  0.91071  1.0000
  H   H426      1.0  0.04650  0.11847  0.98205  1.0000
  C   C360      1.0  0.23942  0.06870  0.93216  1.0000
  H   H427      1.0  0.05699  0.16208  0.97635  1.0000
  H   H428      1.0  0.38427  0.48111  0.03058  1.0000
  C   C361      1.0  0.22709  0.06413  0.89257  1.0000
  Fe  Fe48      1.0  0.44157  0.40874  0.03270  1.0000
  C   C362      1.0  0.34324  0.25917  0.81385  1.0000
  H   H429      1.0  0.25480  0.28787  0.79675  1.0000
  H   H430      1.0  0.38664  0.20997  0.79339  1.0000
  H   H431      1.0  0.22382  0.49194  0.81586  1.0000
  H   H432      1.0  0.32388  0.26021  0.81881  1.0000
  H   H433      1.0  0.53211  0.48778  0.02059  1.0000
  H   H434      1.0  0.53721  0.40382  0.01985  1.0000
  H   H435      1.0  0.38538  0.29643  0.78977  1.0000
  H   H436      1.0  0.20386  0.12997  0.79694  1.0000
  H   H437      1.0  0.52441  0.40992  0.99211  1.0000
  C   C363      1.0  0.40273  0.48419  0.03521  1.0000
  H   H438      1.0  0.25011  0.06934  0.98978  1.0000
  H   H439      1.0  0.19612  0.07068  0.95456  1.0000
  N   N24       1.0  0.35157  0.28248  0.80300  1.0000
  H   H440      1.0  0.35750  0.31926  0.81460  1.0000
  C   C364      1.0  0.22305  0.50753  0.80408  1.0000
  H   H441      1.0  0.38828  0.27441  0.81249  1.0000
  C   C365      1.0  0.28016  0.06470  0.79383  1.0000
  C   C366      1.0  0.54014  0.40182  0.00128  1.0000
  H   H442      1.0  0.39778  0.52335  0.03832  1.0000
  C   C367      1.0  0.22288  0.13062  0.79091  1.0000
  H   H443      1.0  0.22881  0.15002  0.79067  1.0000
  H   H444      1.0  0.32596  0.45679  0.78869  1.0000
  S   S98       1.0  0.42837  0.61063  0.04808  1.0000
  Fe  Fe49      1.0  0.12295  0.89655  0.05883  1.0000
  S   S99       1.0  0.14330  0.89263  0.09183  1.0000
  H   H445      1.0  0.17782  0.79314  0.14176  1.0000
  C   C368      1.0  0.05592  0.79781  0.26290  1.0000
  H   H446      1.0  0.18845  0.83426  0.12665  1.0000
  H   H447      1.0  0.33978  0.99214  0.23762  1.0000
  S   S100      1.0  0.36045  0.63389  0.06394  1.0000
  Fe  Fe50      1.0  0.33752  0.63732  0.19526  1.0000
  S   S101      1.0  0.29837  0.63029  0.19004  1.0000
  S   S102      1.0  0.36878  0.62809  0.17166  1.0000
  Fe  Fe51      1.0  0.32869  0.65550  0.24332  1.0000
  S   S103      1.0  0.28880  0.64970  0.24206  1.0000
  H   H448      1.0  0.22941  0.78459  0.28019  1.0000
  Fe  Fe52      1.0  0.29865  0.61414  0.22558  1.0000
  S   S104      1.0  0.28070  0.57762  0.23227  1.0000
  Fe  Fe53      1.0  0.29190  0.66638  0.20700  1.0000
  S   S105      1.0  0.26684  0.69528  0.19183  1.0000
  S   S106      1.0  0.33824  0.61848  0.22970  1.0000
  S   S107      1.0  0.33127  0.67484  0.20940  1.0000
  Fe  Fe54      1.0  0.13710  0.80643  0.19808  1.0000
  S   S108      1.0  0.12074  0.78077  0.22440  1.0000
  S   S109      1.0  0.12032  0.80679  0.16327  1.0000
  Fe  Fe55      1.0  0.17362  0.82558  0.23108  1.0000
  S   S110      1.0  0.15974  0.80204  0.25980  1.0000
  S   S111      1.0  0.20572  0.85012  0.23327  1.0000
  Fe  Fe56      1.0  0.15920  0.77240  0.23415  1.0000
  S   S112      1.0  0.17575  0.73599  0.24562  1.0000
  Fe  Fe57      1.0  0.12285  0.81278  0.24741  1.0000
  H   H449      1.0  0.38398  0.67380  0.18995  1.0000
  S   S113      1.0  0.17528  0.79534  0.20595  1.0000
  S   S114      1.0  0.13702  0.83902  0.22052  1.0000
  H   H450      1.0  0.50403  0.59293  0.07893  1.0000
  C   C369      1.0  0.43862  0.69449  0.26863  1.0000
  C   C370      1.0  0.28260  0.56332  0.25936  1.0000
  H   H451      1.0  0.18129  0.64558  0.26335  1.0000
  C   C371      1.0  0.21317  0.86059  0.26026  1.0000
  C   C372      1.0  0.23071  0.87859  0.26194  1.0000
  H   H452      1.0  0.18326  0.02638  0.10200  1.0000
  H   H453      1.0  0.35266  0.04139  0.27539  1.0000
  H   H454      1.0  0.23878  0.88649  0.24669  1.0000
  H   H455      1.0  0.50139  0.78304  0.28288  1.0000
  C   C373      1.0  0.07304  0.85893  0.16462  1.0000
  H   H456      1.0  0.06894  0.00621  0.06050  1.0000
  C   C374      1.0  0.42725  0.65289  0.20083  1.0000
  C   C375      1.0  0.38161  0.72898  0.25732  1.0000
  C   C376      1.0  0.36611  0.70891  0.25690  1.0000
  H   H457      1.0  0.38414  0.74038  0.24221  1.0000
  H   H458      1.0  0.35646  0.70510  0.24166  1.0000
  C   C377      1.0  0.24208  0.70688  0.20740  1.0000
  C   C378      1.0  0.23830  0.70045  0.23028  1.0000
  C   C379      1.0  0.21805  0.70973  0.24196  1.0000
  C   C380      1.0  0.20154  0.72553  0.23087  1.0000
  C   C381      1.0  0.20553  0.73223  0.20811  1.0000
  C   C382      1.0  0.22577  0.72299  0.19645  1.0000
  H   H459      1.0  0.25077  0.68815  0.23891  1.0000
  H   H460      1.0  0.21502  0.70444  0.25956  1.0000
  H   H461      1.0  0.19273  0.74408  0.19933  1.0000
  H   H462      1.0  0.22859  0.72802  0.17876  1.0000
  H   H463      1.0  0.39194  0.81043  0.27933  1.0000
  N   N25       1.0  0.21541  0.04730  0.09614  1.0000
  H   H464      1.0  0.04480  0.95860  0.05100  1.0000
  C   C383      1.0  0.26596  0.76608  0.25371  1.0000
  H   H465      1.0  0.23492  0.01464  0.08607  1.0000
  H   H466      1.0  0.26308  0.81183  0.27301  1.0000
  H   H467      1.0  0.18204  0.84919  0.04954  1.0000
  C   C384      1.0  0.36275  0.63163  0.09388  1.0000
  C   C385      1.0  0.38311  0.62126  0.10432  1.0000
  C   C386      1.0  0.38465  0.62023  0.12815  1.0000
  C   C387      1.0  0.36576  0.62927  0.14177  1.0000
  C   C388      1.0  0.34528  0.63943  0.13136  1.0000
  C   C389      1.0  0.34386  0.64071  0.10751  1.0000
  H   H468      1.0  0.39775  0.61419  0.09404  1.0000
  H   H469      1.0  0.40054  0.61231  0.13605  1.0000
  H   H470      1.0  0.33064  0.64651  0.14166  1.0000
  H   H471      1.0  0.32805  0.64879  0.09960  1.0000
  H   H472      1.0  0.18030  0.84632  0.08776  1.0000
  H   H473      1.0  0.27856  0.81230  0.24596  1.0000
  H   H474      1.0  0.23321  0.77240  0.21854  1.0000
  H   H475      1.0  0.16019  0.76289  0.11661  1.0000
  N   N26       1.0  0.24935  0.78692  0.24835  1.0000
  H   H476      1.0  0.40714  0.69584  0.18890  1.0000
  H   H477      1.0  0.38487  0.69686  0.21113  1.0000
  H   H478      1.0  0.07889  0.85599  0.21203  1.0000
  C   C390      1.0  0.13546  0.86960  0.11211  1.0000
  C   C391      1.0  0.14632  0.86924  0.13350  1.0000
  C   C392      1.0  0.14149  0.85031  0.14952  1.0000
  C   C393      1.0  0.12599  0.83145  0.14409  1.0000
  C   C394      1.0  0.11484  0.83201  0.12284  1.0000
  C   C395      1.0  0.11939  0.85113  0.10698  1.0000
  H   H479      1.0  0.15874  0.88351  0.13761  1.0000
  H   H480      1.0  0.15014  0.85007  0.16587  1.0000
  H   H481      1.0  0.10263  0.81760  0.11865  1.0000
  H   H482      1.0  0.11061  0.85144  0.09077  1.0000
  C   C396      1.0  0.39399  0.73426  0.27717  1.0000
  H   H483      1.0  0.08979  0.86081  0.17349  1.0000
  N   N27       1.0  0.15923  0.81760  0.05419  1.0000
  H   H484      1.0  0.15257  0.77337  0.07675  1.0000
  H   H485      1.0  0.05537  0.79394  0.20851  1.0000
  H   H486      1.0  0.06768  0.78824  0.25125  1.0000
  Fe  Fe58      1.0  0.38871  0.61561  0.04175  1.0000
  N   N28       1.0  0.35097  0.98964  0.27266  1.0000
  C   C397      1.0  0.26069  0.81029  0.25442  1.0000
  H   H487      1.0  0.35921  0.01605  0.24580  1.0000
  H   H488      1.0  0.19621  0.02346  0.07402  1.0000
  H   H489      1.0  0.17175  0.78296  0.04110  1.0000
  H   H490      1.0  0.49372  0.66787  0.06882  1.0000
  S   S115      1.0  0.34521  0.66758  0.27591  1.0000
  N   N29       1.0  0.41121  0.66784  0.21548  1.0000
  H   H491      1.0  0.26486  0.02568  0.24020  1.0000
  H   H492      1.0  0.05024  0.87767  0.11357  1.0000
  H   H493      1.0  0.19886  0.67224  0.19686  1.0000
  H   H494      1.0  0.24294  0.61550  0.22645  1.0000
  H   H495      1.0  0.23165  0.58097  0.24605  1.0000
  H   H496      1.0  0.48158  0.57498  0.06573  1.0000
  H   H497      1.0  0.23387  0.64384  0.19492  1.0000
  C   C398      1.0  0.27418  0.76193  0.27624  1.0000
  C   C399      1.0  0.39475  0.65076  0.22778  1.0000
  H   H498      1.0  0.40475  0.63716  0.23861  1.0000
  C   C400      1.0  0.39623  0.68433  0.20078  1.0000
  H   H499      1.0  0.32809  0.83586  0.26456  1.0000
  H   H500      1.0  0.34323  0.79801  0.26096  1.0000
  S   S116      1.0  0.26587  0.99119  0.27753  1.0000
  S   S117      1.0  0.09981  0.86766  0.04457  1.0000
  H   H501      1.0  0.29448  0.86366  0.27364  1.0000
  H   H502      1.0  0.37721  0.96130  0.28136  1.0000
  C   C401      1.0  0.29041  0.73020  0.24277  1.0000
  H   H503      1.0  0.06907  0.79860  0.18099  1.0000
  H   H504      1.0  0.22820  0.04036  0.28682  1.0000
  C   C402      1.0  0.27462  0.74959  0.23707  1.0000
  H   H505      1.0  0.41271  0.66737  0.26349  1.0000
  H   H506      1.0  0.32799  0.01588  0.25501  1.0000
  H   H507      1.0  0.52536  0.72988  0.13087  1.0000
  H   H508      1.0  0.52855  0.76877  0.25203  1.0000
  H   H509      1.0  0.25889  0.79181  0.21290  1.0000
  C   C403      1.0  0.21860  0.58457  0.26004  1.0000
  C   C404      1.0  0.22664  0.78416  0.26160  1.0000
  C   C405      1.0  0.22216  0.64342  0.20980  1.0000
  H   H510      1.0  0.43697  0.69271  0.28694  1.0000
  C   C406      1.0  0.30403  0.85391  0.28716  1.0000
  H   H511      1.0  0.23931  0.04836  0.13818  1.0000
  H   H512      1.0  0.38415  0.63990  0.21583  1.0000
  H   H513      1.0  0.44376  0.70341  0.20344  1.0000
  C   C407      1.0  0.23255  0.02666  0.10097  1.0000
  H   H514      1.0  0.09312  0.82954  0.19915  1.0000
  H   H515      1.0  0.26914  0.75085  0.21955  1.0000
  H   H516      1.0  0.25071  0.90097  0.28426  1.0000
  S   S118      1.0  0.41367  0.75920  0.27693  1.0000
  S   S119      1.0  0.09521  0.92647  0.05433  1.0000
  H   H517      1.0  0.18371  0.60809  0.28266  1.0000
  H   H518      1.0  0.25763  0.61192  0.26231  1.0000
  C   C408      1.0  0.27841  0.02054  0.27412  1.0000
  H   H519      1.0  0.23033  0.80481  0.22053  1.0000
  C   C409      1.0  0.37611  0.82244  0.28344  1.0000
  H   H520      1.0  0.20048  0.57989  0.25377  1.0000
  C   C410      1.0  0.45547  0.71502  0.23557  1.0000
  C   C411      1.0  0.24370  0.61562  0.27545  1.0000
  C   C412      1.0  0.27503  0.03368  0.25361  1.0000
  C   C413      1.0  0.18796  0.65974  0.23028  1.0000
  C   C414      1.0  0.24281  0.78896  0.22399  1.0000
  H   H521      1.0  0.22606  0.01487  0.11542  1.0000
  C   C415      1.0  0.44188  0.70041  0.22155  1.0000
  H   H522      1.0  0.48481  0.60647  0.05751  1.0000
  C   C416      1.0  0.42585  0.68261  0.23074  1.0000
  C   C417      1.0  0.45376  0.71213  0.25906  1.0000
  S   S120      1.0  0.09453  0.82781  0.27163  1.0000
  C   C418      1.0  0.34822  0.78973  0.27766  1.0000
  H   H523      1.0  0.21354  0.79926  0.25746  1.0000
  C   C419      1.0  0.23757  0.88676  0.28325  1.0000
  N   N30       1.0  0.51301  0.58263  0.04484  1.0000
  C   C420      1.0  0.16528  0.81102  0.07802  1.0000
  C   C421      1.0  0.16037  0.78718  0.08706  1.0000
  C   C422      1.0  0.17612  0.82768  0.09285  1.0000
  C   C423      1.0  0.16492  0.78086  0.10978  1.0000
  C   C424      1.0  0.18096  0.82099  0.11542  1.0000
  C   C425      1.0  0.17503  0.79780  0.12397  1.0000
  C   C426      1.0  0.28997  0.74245  0.28174  1.0000
  H   H524      1.0  0.53728  0.61060  0.05566  1.0000
  H   H525      1.0  0.38841  0.98592  0.26358  1.0000
  C   C427      1.0  0.53944  0.73552  0.11830  1.0000
  C   C428      1.0  0.29805  0.72660  0.26503  1.0000
  C   C429      1.0  0.34426  0.00415  0.25191  1.0000
  C   C430      1.0  0.20243  0.65942  0.21084  1.0000
  C   C431      1.0  0.20251  0.61245  0.28726  1.0000
  C   C432      1.0  0.49772  0.66588  0.05096  1.0000
  C   C433      1.0  0.07159  0.87078  0.14333  1.0000
  H   H526      1.0  0.41671  0.64115  0.18945  1.0000
  H   H527      1.0  0.24530  0.63520  0.28006  1.0000
  H   H528      1.0  0.18014  0.05046  0.08074  1.0000
  C   C434      1.0  0.05367  0.84472  0.17355  1.0000
  C   C435      1.0  0.22734  0.62745  0.22810  1.0000
  H   H529      1.0  0.08675  0.88119  0.13675  1.0000
  H   H530      1.0  0.17314  0.67293  0.23126  1.0000
  H   H531      1.0  0.22346  0.57133  0.27404  1.0000
  H   H532      1.0  0.43917  0.64057  0.21123  1.0000
  H   H533      1.0  0.30097  0.59293  0.27489  1.0000
  H   H534      1.0  0.46712  0.72898  0.22825  1.0000
  H   H535      1.0  0.36938  0.96292  0.25210  1.0000
  C   C436      1.0  0.36325  0.69379  0.27621  1.0000
  H   H536      1.0  0.37069  0.83201  0.26740  1.0000
  H   H537      1.0  0.43889  0.66438  0.18956  1.0000
  C   C437      1.0  0.52678  0.56053  0.05263  1.0000
  C   C438      1.0  0.20277  0.85055  0.28005  1.0000
  H   H538      1.0  0.29633  0.71756  0.22983  1.0000
  H   H539      1.0  0.12989  0.79224  0.05037  1.0000
  H   H540      1.0  0.18923  0.83673  0.27902  1.0000
  C   C439      1.0  0.52048  0.67214  0.04231  1.0000
  H   H541      1.0  0.21779  0.76652  0.25793  1.0000
  H   H542      1.0  0.38149  0.66079  0.23854  1.0000
  H   H543      1.0  0.33255  0.77937  0.28455  1.0000
  N   N31       1.0  0.21915  0.61036  0.26747  1.0000
  H   H544      1.0  0.46261  0.65211  0.04339  1.0000
  C   C440      1.0  0.19279  0.03648  0.08802  1.0000
  C   C441      1.0  0.42469  0.68000  0.25481  1.0000
  H   H545      1.0  0.36280  0.77612  0.27394  1.0000
  C   C442      1.0  0.29341  0.57487  0.27741  1.0000
  H   H546      1.0  0.24944  0.82647  0.24911  1.0000
  H   H547      1.0  0.15182  0.85593  0.05940  1.0000
  C   C443      1.0  0.49513  0.58952  0.06253  1.0000
  C   C444      1.0  0.21297  0.62722  0.24820  1.0000
  C   C445      1.0  0.07694  0.83616  0.20853  1.0000
  C   C446      1.0  0.33064  0.97322  0.27839  1.0000
  C   C447      1.0  0.06475  0.81727  0.27521  1.0000
  H   H548      1.0  0.53318  0.72974  0.10135  1.0000
  C   C448      1.0  0.37243  0.97432  0.26716  1.0000
  C   C449      1.0  0.19306  0.64396  0.24876  1.0000
  H   H549      1.0  0.46376  0.72398  0.26991  1.0000
  H   H550      1.0  0.07718  0.82629  0.22529  1.0000
  H   H551      1.0  0.32744  0.55420  0.20246  1.0000
  H   H552      1.0  0.54029  0.75591  0.11739  1.0000
  C   C450      1.0  0.13359  0.81218  0.04991  1.0000
  C   C451      1.0  0.53508  0.78146  0.26425  1.0000
  H   H553      1.0  0.19396  0.80647  0.04141  1.0000
  H   H554      1.0  0.12163  0.82088  0.06278  1.0000
  H   H555      1.0  0.31002  0.71130  0.26936  1.0000
  H   H556      1.0  0.32439  0.96306  0.26349  1.0000
  C   C452      1.0  0.51966  0.78950  0.28172  1.0000
  H   H557      1.0  0.25084  0.03335  0.10483  1.0000
  H   H558      1.0  0.31502  0.98387  0.28498  1.0000
  H   H559      1.0  0.31474  0.63551  0.04035  1.0000
  C   C453      1.0  0.16286  0.84395  0.04824  1.0000
  C   C454      1.0  0.32315  0.83784  0.28219  1.0000
  C   C455      1.0  0.52838  0.60425  0.04009  1.0000
  H   H560      1.0  0.07993  0.98022  0.04528  1.0000
  C   C456      1.0  0.06977  0.99794  0.04346  1.0000
  C   C457      1.0  0.05388  0.80464  0.19220  1.0000
  C   C458      1.0  0.05108  0.86874  0.13023  1.0000
  N   N32       1.0  0.05471  0.83143  0.19579  1.0000
  H   H561      1.0  0.36983  0.99881  0.34888  1.0000
  S   S121      1.0  0.16102  0.97761  0.49758  1.0000
  C   C459      1.0  0.23192  0.04756  0.30329  1.0000
  Fe  Fe59      1.0  0.19666  0.95806  0.50096  1.0000
  S   S122      1.0  0.21208  0.93176  0.47520  1.0000
  Fe  Fe60      1.0  0.18105  0.01090  0.50756  1.0000
  H   H562      1.0  0.21343  0.98233  0.45854  1.0000
  S   S123      1.0  0.48551  0.66765  0.50002  1.0000
  H   H563      1.0  0.27896  0.03074  0.47746  1.0000
  Fe  Fe61      1.0  0.48559  0.70712  0.50956  1.0000
  S   S124      1.0  0.48028  0.73876  0.48425  1.0000
  Fe  Fe62      1.0  0.27476  0.96003  0.35969  1.0000
  S   S125      1.0  0.30258  0.97407  0.33467  1.0000
  S   S126      1.0  0.26404  0.98226  0.39011  1.0000
  Fe  Fe63      1.0  0.26120  0.91801  0.33015  1.0000
  S   S127      1.0  0.28749  0.92846  0.30269  1.0000
  S   S128      1.0  0.23598  0.88610  0.33000  1.0000
  Fe  Fe64      1.0  0.31302  0.93422  0.33110  1.0000
  S   S129      1.0  0.35145  0.92269  0.32328  1.0000
  Fe  Fe65      1.0  0.27501  0.96720  0.30825  1.0000
  H   H564      1.0  0.38241  0.83668  0.29513  1.0000
  S   S130      1.0  0.28760  0.92075  0.35854  1.0000
  S   S131      1.0  0.24637  0.95618  0.33339  1.0000
  Fe  Fe66      1.0  0.43146  0.76891  0.30970  1.0000
  S   S132      1.0  0.43730  0.80921  0.31373  1.0000
  C   C460      1.0  0.37530  0.69933  0.29617  1.0000
  Fe  Fe67      1.0  0.45368  0.75544  0.35578  1.0000
  S   S133      1.0  0.46075  0.79469  0.36332  1.0000
  S   S134      1.0  0.46472  0.72330  0.37881  1.0000
  Fe  Fe68      1.0  0.42384  0.80250  0.34929  1.0000
  S   S135      1.0  0.39389  0.82362  0.36678  1.0000
  Fe  Fe69      1.0  0.47365  0.79757  0.32697  1.0000
  S   S136      1.0  0.50883  0.81683  0.31944  1.0000
  S   S137      1.0  0.41569  0.76275  0.34448  1.0000
  S   S138      1.0  0.46887  0.75769  0.32017  1.0000
  C   C461      1.0  0.29741  0.85799  0.30960  1.0000
  N   N33       1.0  0.35622  0.80818  0.29395  1.0000
  C   C462      1.0  0.04940  0.82920  0.29063  1.0000
  C   C463      1.0  0.36264  0.89474  0.33507  1.0000
  C   C464      1.0  0.35095  0.88295  0.35332  1.0000
  C   C465      1.0  0.36081  0.86123  0.36298  1.0000
  C   C466      1.0  0.38220  0.85097  0.35425  1.0000
  C   C467      1.0  0.39372  0.86258  0.33579  1.0000
  C   C468      1.0  0.38404  0.88448  0.32633  1.0000
  H   H565      1.0  0.33459  0.89081  0.36030  1.0000
  H   H566      1.0  0.35188  0.85239  0.37732  1.0000
  H   H567      1.0  0.41039  0.85502  0.32916  1.0000
  H   H568      1.0  0.39329  0.89364  0.31235  1.0000
  C   C469      1.0  0.27917  0.01215  0.48444  1.0000
  C   C470      1.0  0.40752  0.59567  0.52945  1.0000
  C   C471      1.0  0.36622  0.00787  0.33264  1.0000
  H   H569      1.0  0.20185  0.85051  0.31662  1.0000
  H   H570      1.0  0.29521  0.91959  0.48539  1.0000
  H   H571      1.0  0.37457  0.80693  0.32603  1.0000
  H   H572      1.0  0.33820  0.82192  0.33689  1.0000
  C   C472      1.0  0.40562  0.67705  0.42119  1.0000
  H   H573      1.0  0.39576  0.65703  0.48738  1.0000
  H   H574      1.0  0.40005  0.72350  0.31205  1.0000
  C   C473      1.0  0.07000  0.90607  0.52888  1.0000
  C   C474      1.0  0.40666  0.57154  0.53836  1.0000
  H   H575      1.0  0.41818  0.72893  0.45014  1.0000
  C   C475      1.0  0.27832  0.91873  0.49570  1.0000
  H   H576      1.0  0.41090  0.74751  0.41310  1.0000
  C   C476      1.0  0.35626  0.00500  0.29230  1.0000
  H   H577      1.0  0.29574  0.73936  0.29910  1.0000
  H   H578      1.0  0.43079  0.64484  0.44907  1.0000
  C   C477      1.0  0.27917  0.96830  0.47887  1.0000
  C   C478      1.0  0.47617  0.73409  0.45497  1.0000
  C   C479      1.0  0.46782  0.75368  0.44111  1.0000
  C   C480      1.0  0.46440  0.75066  0.41774  1.0000
  C   C481      1.0  0.46919  0.72794  0.40804  1.0000
  C   C482      1.0  0.47751  0.70831  0.42190  1.0000
  C   C483      1.0  0.48110  0.71140  0.44525  1.0000
  H   H579      1.0  0.46400  0.77132  0.44847  1.0000
  H   H580      1.0  0.45794  0.76590  0.40729  1.0000
  H   H581      1.0  0.48128  0.69069  0.41452  1.0000
  H   H582      1.0  0.48794  0.69631  0.45567  1.0000
  C   C484      1.0  0.29428  0.56311  0.29891  1.0000
  H   H583      1.0  0.27989  0.99560  0.45175  1.0000
  C   C485      1.0  0.25443  0.93543  0.52579  1.0000
  C   C486      1.0  0.39056  0.71959  0.29670  1.0000
  C   C487      1.0  0.39353  0.66602  0.47031  1.0000
  C   C488      1.0  0.27965  0.99234  0.47000  1.0000
  C   C489      1.0  0.22694  0.94596  0.45187  1.0000
  C   C490      1.0  0.24116  0.93171  0.43724  1.0000
  C   C491      1.0  0.25268  0.94261  0.41821  1.0000
  C   C492      1.0  0.25012  0.96785  0.41382  1.0000
  C   C493      1.0  0.23613  0.98209  0.42860  1.0000
  C   C494      1.0  0.22449  0.97118  0.44750  1.0000
  H   H584      1.0  0.24318  0.91219  0.44059  1.0000
  H   H585      1.0  0.26364  0.93154  0.40702  1.0000
  H   H586      1.0  0.23409  0.00164  0.42535  1.0000
  H   H587      1.0  0.26818  0.77358  0.28981  1.0000
  C   C495      1.0  0.07506  0.03963  0.53603  1.0000
  H   H588      1.0  0.39777  0.67727  0.38542  1.0000
  H   H589      1.0  0.31517  0.93744  0.51966  1.0000
  H   H590      1.0  0.27755  0.02344  0.51911  1.0000
  H   H591      1.0  0.37305  0.68772  0.31119  1.0000
  H   H592      1.0  0.37817  0.67931  0.47142  1.0000
  C   C496      1.0  0.20993  0.85842  0.30139  1.0000
  S   S139      1.0  0.51704  0.70261  0.53331  1.0000
  C   C497      1.0  0.22728  0.87662  0.30304  1.0000
  Fe  Fe70      1.0  0.51478  0.66249  0.52582  1.0000
  H   H593      1.0  0.51188  0.78819  0.43303  1.0000
  H   H594      1.0  0.39250  0.55947  0.53336  1.0000
  H   H595      1.0  0.29407  0.02117  0.30734  1.0000
  C   C498      1.0  0.41167  0.69093  0.44031  1.0000
  C   C499      1.0  0.11440  0.03118  0.51913  1.0000
  C   C500      1.0  0.27848  0.00803  0.50785  1.0000
  N   N34       1.0  0.41582  0.67850  0.46260  1.0000
  C   C501      1.0  0.40906  0.72783  0.41554  1.0000
  S   S140      1.0  0.45789  0.70265  0.53751  1.0000
  H   H596      1.0  0.51061  0.81178  0.39657  1.0000
  H   H597      1.0  0.25225  0.91646  0.53285  1.0000
  N   N35       1.0  0.10122  0.04415  0.53744  1.0000
  H   H598      1.0  0.42586  0.68560  0.49710  1.0000
  H   H599      1.0  0.27898  0.95395  0.46661  1.0000
  H   H600      1.0  0.30503  0.84992  0.34461  1.0000
  H   H601      1.0  0.26264  0.92011  0.48410  1.0000
  Fe  Fe71      1.0  0.15689  0.97060  0.53500  1.0000
  H   H602      1.0  0.52897  0.71388  0.33590  1.0000
  C   C502      1.0  0.53267  0.74400  0.39784  1.0000
  H   H603      1.0  0.33534  0.95907  0.29155  1.0000
  C   C503      1.0  0.11013  0.92368  0.52859  1.0000
  C   C504      1.0  0.51352  0.56537  0.53250  1.0000
  H   H604      1.0  0.24830  0.02403  0.35504  1.0000
  H   H605      1.0  0.43963  0.65079  0.47720  1.0000
  S   S141      1.0  0.21704  0.99193  0.50829  1.0000
  C   C505      1.0  0.52430  0.78186  0.37679  1.0000
  N   N36       1.0  0.19305  0.91974  0.37994  1.0000
  C   C506      1.0  0.18710  0.91815  0.35551  1.0000
  C   C507      1.0  0.19712  0.94601  0.38454  1.0000
  C   C508      1.0  0.21578  0.90572  0.38372  1.0000
  C   C509      1.0  0.17413  0.90995  0.39545  1.0000
  C   C510      1.0  0.15340  0.89790  0.38763  1.0000
  C   C511      1.0  0.17636  0.91196  0.41931  1.0000
  C   C512      1.0  0.13589  0.88898  0.40286  1.0000
  C   C513      1.0  0.15874  0.90309  0.43435  1.0000
  C   C514      1.0  0.13849  0.89167  0.42614  1.0000
  H   H606      1.0  0.17008  0.92823  0.35138  1.0000
  H   H607      1.0  0.20147  0.92614  0.34439  1.0000
  H   H608      1.0  0.18568  0.89874  0.35024  1.0000
  H   H609      1.0  0.18021  0.95705  0.38265  1.0000
  H   H610      1.0  0.21094  0.95413  0.37289  1.0000
  H   H611      1.0  0.20385  0.94885  0.40189  1.0000
  H   H612      1.0  0.21382  0.88610  0.37934  1.0000
  H   H613      1.0  0.23079  0.91317  0.37305  1.0000
  H   H614      1.0  0.22167  0.90608  0.40160  1.0000
  H   H615      1.0  0.15030  0.89504  0.36986  1.0000
  H   H616      1.0  0.19180  0.92036  0.42666  1.0000
  H   H617      1.0  0.12019  0.87987  0.39656  1.0000
  H   H618      1.0  0.16091  0.90511  0.45249  1.0000
  H   H619      1.0  0.12486  0.88482  0.43789  1.0000
  H   H620      1.0  0.38828  0.65132  0.45874  1.0000
  H   H621      1.0  0.45222  0.66834  0.45381  1.0000
  C   C515      1.0  0.42273  0.69549  0.48063  1.0000
  H   H622      1.0  0.40122  0.72222  0.38048  1.0000
  S   S142      1.0  0.19062  0.94742  0.53784  1.0000
  C   C516      1.0  0.30989  0.84613  0.32715  1.0000
  H   H623      1.0  0.10112  0.88983  0.51264  1.0000
  H   H624      1.0  0.53792  0.72485  0.39904  1.0000
  C   C517      1.0  0.36133  0.04496  0.30988  1.0000
  C   C518      1.0  0.52775  0.80636  0.29727  1.0000
  C   C519      1.0  0.36609  0.79445  0.31395  1.0000
  H   H625      1.0  0.38052  0.78118  0.30899  1.0000
  H   H626      1.0  0.11338  0.01087  0.52095  1.0000
  C   C520      1.0  0.32897  0.82996  0.32240  1.0000
  C   C521      1.0  0.27831  0.96343  0.50270  1.0000
  H   H627      1.0  0.52056  0.76741  0.33156  1.0000
  C   C522      1.0  0.40360  0.71360  0.39709  1.0000
  H   H628      1.0  0.52418  0.70977  0.36585  1.0000
  H   H629      1.0  0.30242  0.57223  0.31292  1.0000
  C   C523      1.0  0.29162  0.03097  0.29134  1.0000
  C   C524      1.0  0.40181  0.68827  0.39991  1.0000
  H   H630      1.0  0.40843  0.70951  0.48384  1.0000
  H   H631      1.0  0.35199  0.78372  0.32312  1.0000
  C   C525      1.0  0.36605  0.03338  0.33074  1.0000
  H   H632      1.0  0.50498  0.73006  0.34994  1.0000
  C   C526      1.0  0.41322  0.71679  0.43685  1.0000
  H   H633      1.0  0.23809  0.01083  0.31658  1.0000
  H   H634      1.0  0.43979  0.70499  0.47625  1.0000
  C   C527      1.0  0.23767  0.03020  0.32035  1.0000
  H   H635      1.0  0.29805  0.91492  0.53560  1.0000
  C   C528      1.0  0.43542  0.65985  0.46052  1.0000
  H   H636      1.0  0.40401  0.65734  0.42250  1.0000
  C   C529      1.0  0.53841  0.56226  0.53109  1.0000
  H   H637      1.0  0.27763  0.90007  0.50378  1.0000
  C   C530      1.0  0.52398  0.72360  0.35167  1.0000
  C   C531      1.0  0.09438  0.90508  0.52236  1.0000
  C   C532      1.0  0.27812  0.98408  0.51689  1.0000
  Fe  Fe72      1.0  0.46021  0.66266  0.52953  1.0000
  C   C533      1.0  0.51790  0.77971  0.41749  1.0000
  H   H638      1.0  0.07871  0.99963  0.53671  1.0000
  C   C534      1.0  0.33602  0.82508  0.29967  1.0000
  H   H639      1.0  0.23871  0.93968  0.51482  1.0000
  H   H640      1.0  0.28281  0.87068  0.31345  1.0000
  C   C535      1.0  0.51716  0.79292  0.39697  1.0000
  H   H641      1.0  0.36191  0.97411  0.31610  1.0000
  C   C536      1.0  0.42587  0.61135  0.53577  1.0000
  S   S143      1.0  0.05084  0.88167  0.52262  1.0000
  N   N37       1.0  0.27725  0.93828  0.51279  1.0000
  H   H642      1.0  0.50565  0.58362  0.53016  1.0000
  S   S144      1.0  0.17200  0.04485  0.48677  1.0000
  C   C537      1.0  0.53921  0.76076  0.33499  1.0000
  H   H643      1.0  0.05611  0.84424  0.30021  1.0000
  H   H644      1.0  0.52301  0.79319  0.36154  1.0000
  H   H645      1.0  0.12894  0.92275  0.52369  1.0000
  C   C538      1.0  0.06644  0.01524  0.53591  1.0000
  S   S145      1.0  0.42592  0.64184  0.52526  1.0000
  H   H646      1.0  0.39395  0.60212  0.51761  1.0000
  H   H647      1.0  0.27690  0.98190  0.53515  1.0000
  H   H648      1.0  0.13396  0.03521  0.51914  1.0000
  C   C539      1.0  0.24352  0.03762  0.34199  1.0000
  C   C540      1.0  0.53233  0.75695  0.37662  1.0000
  C   C541      1.0  0.36155  0.99385  0.31373  1.0000
  H   H649      1.0  0.36952  0.04421  0.34547  1.0000
  C   C542      1.0  0.29767  0.93405  0.52849  1.0000
  C   C543      1.0  0.52568  0.75531  0.41793  1.0000
  H   H650      1.0  0.10747  0.03673  0.50209  1.0000
  N   N38       1.0  0.54000  0.74452  0.35561  1.0000
  H   H651      1.0  0.52554  0.74491  0.43388  1.0000
  H   H652      1.0  0.20766  0.59942  0.30134  1.0000
  C   C544      1.0  0.04183  0.01043  0.53493  1.0000
  H   H653      1.0  0.20279  0.63119  0.29435  1.0000
  C   C545      1.0  0.35655  0.03110  0.29087  1.0000
  H   H654      1.0  0.24878  0.60392  0.29048  1.0000
  C   C546      1.0  0.19759  0.85822  0.77442  1.0000
  S   S146      1.0  0.23924  0.98505  0.56991  1.0000
  H   H655      1.0  0.26581  0.71892  0.75697  1.0000
  C   C547      1.0  0.51394  0.77739  0.64437  1.0000
  H   H656      1.0  0.05213  0.86409  0.71927  1.0000
  Fe  Fe73      1.0  0.26871  0.93248  0.74504  1.0000
  S   S147      1.0  0.30686  0.94491  0.74152  1.0000
  H   H657      1.0  0.34817  0.95619  0.66964  1.0000
  Fe  Fe74      1.0  0.25446  0.95439  0.69894  1.0000
  S   S148      1.0  0.29156  0.96835  0.69181  1.0000
  S   S149      1.0  0.22301  0.95872  0.67484  1.0000
  Fe  Fe75      1.0  0.30445  0.93184  0.70593  1.0000
  S   S150      1.0  0.33223  0.90923  0.68699  1.0000
  Fe  Fe76      1.0  0.29067  0.98039  0.72810  1.0000
  S   S151      1.0  0.30756  0.01703  0.73541  1.0000
  S   S152      1.0  0.26738  0.91679  0.71036  1.0000
  S   S153      1.0  0.25243  0.96903  0.73445  1.0000
  Fe  Fe77      1.0  0.47258  0.78048  0.73042  1.0000
  S   S154      1.0  0.44916  0.74851  0.72263  1.0000
  S   S155      1.0  0.51239  0.77204  0.73438  1.0000
  Fe  Fe78      1.0  0.43022  0.81711  0.72847  1.0000
  S   S156      1.0  0.40381  0.78820  0.72009  1.0000
  S   S157      1.0  0.41835  0.85528  0.73821  1.0000
  Fe  Fe79      1.0  0.42251  0.76539  0.74689  1.0000
  C   C548      1.0  0.37611  0.80907  0.77136  1.0000
  Fe  Fe80      1.0  0.43280  0.77419  0.69641  1.0000
  S   S158      1.0  0.42274  0.76447  0.66058  1.0000
  S   S159      1.0  0.44741  0.79510  0.75675  1.0000
  S   S160      1.0  0.45785  0.80528  0.70263  1.0000
  H   H658      1.0  0.11400  0.88625  0.56874  1.0000
  H   H659      1.0  0.33137  0.83542  0.70414  1.0000
  S   S161      1.0  0.49403  0.70358  0.59755  1.0000
  C   C549      1.0  0.40051  0.70354  0.65657  1.0000
  N   N39       1.0  0.52821  0.77308  0.66522  1.0000
  C   C550      1.0  0.10159  0.94293  0.54188  1.0000
  C   C551      1.0  0.07729  0.94395  0.54827  1.0000
  C   C552      1.0  0.42213  0.69078  0.65990  1.0000
  C   C553      1.0  0.28323  0.71640  0.76593  1.0000
  S   S162      1.0  0.40397  0.74900  0.77783  1.0000
  H   H660      1.0  0.40288  0.96803  0.72779  1.0000
  C   C554      1.0  0.29117  0.77032  0.76720  1.0000
  C   C555      1.0  0.49124  0.78964  0.64533  1.0000
  C   C556      1.0  0.44218  0.74686  0.64327  1.0000
  C   C557      1.0  0.46229  0.73453  0.65225  1.0000
  C   C558      1.0  0.47764  0.72092  0.63801  1.0000
  C   C559      1.0  0.47319  0.71973  0.61469  1.0000
  C   C560      1.0  0.45282  0.73167  0.60573  1.0000
  C   C561      1.0  0.43729  0.74506  0.62004  1.0000
  H   H661      1.0  0.46577  0.73527  0.67020  1.0000
  H   H662      1.0  0.49308  0.71127  0.64503  1.0000
  H   H663      1.0  0.44930  0.73105  0.58776  1.0000
  H   H664      1.0  0.42167  0.75445  0.61302  1.0000
  C   C562      1.0  0.35498  0.89326  0.70211  1.0000
  C   C563      1.0  0.36135  0.90001  0.72392  1.0000
  C   C564      1.0  0.38077  0.88815  0.73487  1.0000
  C   C565      1.0  0.39336  0.86889  0.72445  1.0000
  C   C566      1.0  0.38651  0.86159  0.70294  1.0000
  C   C567      1.0  0.36763  0.87406  0.69165  1.0000
  H   H665      1.0  0.35179  0.91478  0.73212  1.0000
  H   H666      1.0  0.38623  0.89415  0.75134  1.0000
  H   H667      1.0  0.39624  0.84687  0.69473  1.0000
  H   H668      1.0  0.36279  0.86882  0.67475  1.0000
  H   H669      1.0  0.51151  0.80074  0.68647  1.0000
  C   C568      1.0  0.22101  0.89118  0.75702  1.0000
  C   C569      1.0  0.20095  0.87583  0.75698  1.0000
  H   H670      1.0  0.22310  0.90532  0.74393  1.0000
  H   H671      1.0  0.18768  0.87815  0.74378  1.0000
  H   H672      1.0  0.51223  0.76351  0.58782  1.0000
  H   H673      1.0  0.04304  0.92687  0.54665  1.0000
  C   C570      1.0  0.37519  0.71852  0.75376  1.0000
  C   C571      1.0  0.35860  0.69946  0.75219  1.0000
  C   C572      1.0  0.09840  0.92364  0.61171  1.0000
  H   H674      1.0  0.38111  0.72846  0.73864  1.0000
  H   H675      1.0  0.35175  0.69474  0.73579  1.0000
  Fe  Fe81      1.0  0.20863  0.98293  0.54500  1.0000
  H   H676      1.0  0.32063  0.86077  0.78370  1.0000
  C   C573      1.0  0.29657  0.03520  0.75786  1.0000
  C   C574      1.0  0.09158  0.83444  0.73030  1.0000
  H   H677      1.0  0.10755  0.01461  0.56192  1.0000
  C   C575      1.0  0.06153  0.92583  0.54148  1.0000
  H   H678      1.0  0.06248  0.80538  0.69070  1.0000
  H   H679      1.0  0.45538  0.57268  0.57265  1.0000
  C   C576      1.0  0.05464  0.82359  0.69514  1.0000
  H   H680      1.0  0.54133  0.79333  0.69360  1.0000
  C   C577      1.0  0.07328  0.79906  0.74879  1.0000
  H   H681      1.0  0.10607  0.93769  0.62198  1.0000
  H   H682      1.0  0.35807  0.81781  0.73255  1.0000
  C   C578      1.0  0.44207  0.57902  0.56050  1.0000
  H   H683      1.0  0.49837  0.75928  0.68518  1.0000
  C   C579      1.0  0.23440  0.97723  0.59891  1.0000
  C   C580      1.0  0.25409  0.97634  0.61364  1.0000
  C   C581      1.0  0.25088  0.97042  0.63686  1.0000
  C   C582      1.0  0.22789  0.96555  0.64560  1.0000
  C   C583      1.0  0.20819  0.96638  0.63083  1.0000
  C   C584      1.0  0.21143  0.97208  0.60755  1.0000
  H   H684      1.0  0.27190  0.98030  0.60710  1.0000
  H   H685      1.0  0.26617  0.96981  0.64799  1.0000
  H   H686      1.0  0.19036  0.96262  0.63745  1.0000
  H   H687      1.0  0.19613  0.97272  0.59637  1.0000
  C   C585      1.0  0.35098  0.68640  0.77173  1.0000
  H   H688      1.0  0.26213  0.82577  0.76952  1.0000
  H   H689      1.0  0.13107  0.91825  0.59237  1.0000
  H   H690      1.0  0.39397  0.71619  0.66923  1.0000
  H   H691      1.0  0.53551  0.81160  0.66820  1.0000
  H   H692      1.0  0.12980  0.03778  0.56145  1.0000
  H   H693      1.0  0.25312  0.94785  0.54040  1.0000
  H   H694      1.0  0.43219  0.69359  0.67524  1.0000
  H   H695      1.0  0.30631  0.76216  0.75832  1.0000
  N   N40       1.0  0.37167  0.97479  0.69227  1.0000
  C   C586      1.0  0.35840  0.97355  0.67058  1.0000
  H   H696      1.0  0.29659  0.94620  0.54335  1.0000
  C   C587      1.0  0.38280  0.99932  0.69290  1.0000
  C   C588      1.0  0.39028  0.95523  0.69527  1.0000
  C   C589      1.0  0.40494  0.95445  0.71486  1.0000
  C   C590      1.0  0.39378  0.93602  0.67964  1.0000
  H   H697      1.0  0.37076  0.97502  0.65566  1.0000
  C   C591      1.0  0.23771  0.88887  0.77452  1.0000
  C   C592      1.0  0.42197  0.93564  0.71858  1.0000
  H   H698      1.0  0.33897  0.98659  0.70909  1.0000
  C   C593      1.0  0.50679  0.77149  0.60379  1.0000
  C   C594      1.0  0.11262  0.91256  0.59517  1.0000
  H   H699      1.0  0.29633  0.80535  0.75000  1.0000
  H   H700      1.0  0.09560  0.77940  0.77313  1.0000
  C   C595      1.0  0.42377  0.56333  0.55413  1.0000
  S   S163      1.0  0.48929  0.65413  0.55454  1.0000
  C   C596      1.0  0.41097  0.91739  0.68347  1.0000
  H   H701      1.0  0.39081  0.00293  0.70964  1.0000
  H   H702      1.0  0.10057  0.04377  0.57392  1.0000
  H   H703      1.0  0.49357  0.75534  0.77966  1.0000
  H   H704      1.0  0.28908  0.57056  0.77392  1.0000
  N   N41       1.0  0.04911  0.82448  0.71979  1.0000
  C   C597      1.0  0.11259  0.82996  0.74271  1.0000
  C   C598      1.0  0.11400  0.81011  0.75800  1.0000
  C   C599      1.0  0.30831  0.86438  0.74985  1.0000
  H   H705      1.0  0.38222  0.85737  0.77623  1.0000
  C   C600      1.0  0.51666  0.75357  0.67923  1.0000
  C   C601      1.0  0.27763  0.02736  0.77194  1.0000
  C   C602      1.0  0.44336  0.60283  0.55104  1.0000
  C   C603      1.0  0.07122  0.81913  0.73298  1.0000
  C   C604      1.0  0.53465  0.81527  0.78510  1.0000
  H   H706      1.0  0.07247  0.87447  0.57302  1.0000
  C   C605      1.0  0.10296  0.89454  0.58185  1.0000
  H   H707      1.0  0.45950  0.80193  0.62742  1.0000
  C   C606      1.0  0.47712  0.79316  0.62603  1.0000
  C   C607      1.0  0.34192  0.83710  0.76143  1.0000
  C   C608      1.0  0.28574  0.79508  0.76244  1.0000
  H   H708      1.0  0.38854  0.81756  0.75860  1.0000
  H   H709      1.0  0.36924  0.01433  0.68992  1.0000
  H   H710      1.0  0.36758  0.79284  0.76390  1.0000
  H   H711      1.0  0.34556  0.95423  0.71122  1.0000
  H   H712      1.0  0.34469  0.98861  0.66882  1.0000
  H   H713      1.0  0.12793  0.84194  0.74064  1.0000
  H   H714      1.0  0.32180  0.73450  0.78598  1.0000
  H   H715      1.0  0.48370  0.79582  0.66113  1.0000
  H   H716      1.0  0.09136  0.85011  0.71872  1.0000
  C   C609      1.0  0.09446  0.79466  0.76095  1.0000
  N   N42       1.0  0.35795  0.82720  0.77950  1.0000
  N   N43       1.0  0.42793  0.65592  0.60448  1.0000
  C   C610      1.0  0.43084  0.67041  0.58303  1.0000
  C   C611      1.0  0.45163  0.64414  0.60958  1.0000
  C   C612      1.0  0.41049  0.63613  0.60081  1.0000
  C   C613      1.0  0.41883  0.67207  0.62260  1.0000
  C   C614      1.0  0.39665  0.68510  0.61995  1.0000
  C   C615      1.0  0.43137  0.67540  0.64317  1.0000
  C   C616      1.0  0.38779  0.70071  0.63665  1.0000
  H   H717      1.0  0.44357  0.68568  0.58521  1.0000
  H   H718      1.0  0.43800  0.65887  0.56915  1.0000
  H   H719      1.0  0.41364  0.67847  0.57671  1.0000
  H   H720      1.0  0.46583  0.65813  0.61165  1.0000
  H   H721      1.0  0.45799  0.63225  0.59557  1.0000
  H   H722      1.0  0.45073  0.63217  0.62513  1.0000
  H   H723      1.0  0.39289  0.64338  0.59462  1.0000
  H   H724      1.0  0.41711  0.62314  0.58775  1.0000
  H   H725      1.0  0.40711  0.62532  0.61678  1.0000
  H   H726      1.0  0.38614  0.68358  0.60477  1.0000
  H   H727      1.0  0.44861  0.66680  0.64660  1.0000
  H   H728      1.0  0.37118  0.71104  0.63402  1.0000
  C   C617      1.0  0.42495  0.91713  0.70292  1.0000
  H   H729      1.0  0.38286  0.93437  0.66475  1.0000
  C   C618      1.0  0.34418  0.83027  0.73837  1.0000
  H   H730      1.0  0.36163  0.97540  0.72793  1.0000
  C   C619      1.0  0.32338  0.85440  0.76665  1.0000
  H   H731      1.0  0.39723  0.00120  0.67975  1.0000
  C   C620      1.0  0.07884  0.88801  0.58450  1.0000
  C   C621      1.0  0.38394  0.72471  0.77496  1.0000
  C   C622      1.0  0.11015  0.03471  0.55965  1.0000
  H   H732      1.0  0.24029  0.59499  0.77841  1.0000
  H   H733      1.0  0.05871  0.78665  0.75242  1.0000
  C   C623      1.0  0.27721  0.75626  0.78297  1.0000
  H   H734      1.0  0.26940  0.00986  0.76916  1.0000
  C   C624      1.0  0.35376  0.97269  0.71096  1.0000
  H   H735      1.0  0.53743  0.75731  0.62068  1.0000
  C   C625      1.0  0.06355  0.89963  0.60065  1.0000
  S   S164      1.0  0.12080  0.96534  0.55201  1.0000
  H   H736      1.0  0.20769  0.59704  0.77672  1.0000
  H   H737      1.0  0.22230  0.56210  0.76077  1.0000
  C   C626      1.0  0.31111  0.85740  0.72743  1.0000
  C   C627      1.0  0.52920  0.78500  0.75616  1.0000
  C   C628      1.0  0.22325  0.59694  0.78841  1.0000
  C   C629      1.0  0.07429  0.91714  0.61463  1.0000
  S   S165      1.0  0.17079  0.84156  0.77579  1.0000
  S   S166      1.0  0.32959  0.66324  0.76940  1.0000
  H   H738      1.0  0.06399  0.92632  0.62763  1.0000
  S   S167      1.0  0.26106  0.90988  0.77682  1.0000
  C   C630      1.0  0.26649  0.80663  0.77339  1.0000
  H   H739      1.0  0.41276  0.90245  0.67176  1.0000
  C   C631      1.0  0.32886  0.84025  0.72175  1.0000
  H   H740      1.0  0.13027  0.80681  0.76768  1.0000
  C   C632      1.0  0.52043  0.80500  0.76830  1.0000
  Fe  Fe82      1.0  0.48913  0.69462  0.56049  1.0000
  H   H741      1.0  0.29993  0.86581  0.71431  1.0000
  H   H742      1.0  0.29795  0.72214  0.75413  1.0000
  C   C633      1.0  0.48491  0.78418  0.60528  1.0000
  H   H743      1.0  0.47354  0.78619  0.59052  1.0000
  H   H744      1.0  0.50287  0.81282  0.76452  1.0000
  H   H745      1.0  0.28625  0.69630  0.76899  1.0000
  C   C634      1.0  0.52919  0.79570  0.67875  1.0000
  H   H746      1.0  0.38780  0.80178  0.78531  1.0000
  H   H747      1.0  0.45763  0.61465  0.55589  1.0000
  H   H748      1.0  0.06765  0.83781  0.68950  1.0000
  H   H749      1.0  0.43250  0.93500  0.73395  1.0000
  H   H750      1.0  0.29467  0.87802  0.75410  1.0000
  H   H751      1.0  0.51476  0.73651  0.66956  1.0000
  N   N44       1.0  0.28313  0.72998  0.78744  1.0000
  H   H752      1.0  0.07065  0.95865  0.55871  1.0000
  H   H753      1.0  0.04325  0.86443  0.62703  1.0000
  C   C635      1.0  0.52114  0.76800  0.62298  1.0000
  H   H754      1.0  0.52728  0.74881  0.69467  1.0000
  H   H755      1.0  0.43753  0.90208  0.70626  1.0000
  S   S168      1.0  0.17449  0.00550  0.54490  1.0000
  H   H756      1.0  0.33095  0.82776  0.80630  1.0000
  Fe  Fe83      1.0  0.11647  0.87830  0.01082  1.0000
  H   H757      1.0  0.17054  0.80769  0.02052  1.0000
  S   S169      1.0  0.12912  0.84671  0.98913  1.0000
  C   C636      1.0  0.23494  0.87048  0.79133  1.0000
  S   S170      1.0  0.11225  0.97178  0.00639  1.0000
  H   H758      1.0  0.11598  0.02382  0.00587  1.0000
  S   S171      1.0  0.08770  0.90640  0.00245  1.0000
  H   H759      1.0  0.22265  0.86722  0.88520  1.0000
  H   H760      1.0  0.24775  0.02712  0.95616  1.0000
  Fe  Fe84      1.0  0.39103  0.59053  0.99611  1.0000
  H   H761      1.0  0.21567  0.03028  0.95345  1.0000
  S   S172      1.0  0.36940  0.57543  0.96740  1.0000
  H   H762      1.0  0.51042  0.76661  0.88080  1.0000
  H   H763      1.0  0.05834  0.96707  0.01115  1.0000
  S   S173      1.0  0.43061  0.58305  0.99882  1.0000
  Fe  Fe85      1.0  0.32079  0.63384  0.85286  1.0000
  S   S174      1.0  0.28784  0.61044  0.85361  1.0000
  S   S175      1.0  0.34207  0.64540  0.88329  1.0000
  H   H764      1.0  0.19306  0.68389  0.81700  1.0000
  H   H765      1.0  0.05821  0.99786  0.99975  1.0000
  H   H766      1.0  0.24071  0.56789  0.83722  1.0000
  Fe  Fe86      1.0  0.27196  0.63929  0.82996  1.0000
  S   S176      1.0  0.23291  0.65165  0.82835  1.0000
  Fe  Fe87      1.0  0.30381  0.59388  0.82203  1.0000
  H   H767      1.0  0.14773  0.93131  0.83639  1.0000
  S   S177      1.0  0.30339  0.66424  0.83173  1.0000
  S   S178      1.0  0.33802  0.61541  0.82286  1.0000
  Fe  Fe88      1.0  0.16255  0.82231  0.80922  1.0000
  C   C637      1.0  0.33528  0.66026  0.00626  1.0000
  C   C638      1.0  0.05402  0.85962  0.94991  1.0000
  Fe  Fe89      1.0  0.14768  0.82956  0.85902  1.0000
  S   S179      1.0  0.14078  0.78942  0.86487  1.0000
  S   S180      1.0  0.13920  0.86128  0.88209  1.0000
  Fe  Fe90      1.0  0.17513  0.78337  0.84480  1.0000
  S   S181      1.0  0.20730  0.76066  0.85682  1.0000
  Fe  Fe91      1.0  0.12276  0.79173  0.83071  1.0000
  S   S182      1.0  0.08627  0.77518  0.82410  1.0000
  S   S183      1.0  0.18326  0.82369  0.84149  1.0000
  S   S184      1.0  0.12769  0.83210  0.82625  1.0000
  H   H768      1.0  0.53524  0.71353  0.84885  1.0000
  C   C639      1.0  0.06520  0.81835  0.80778  1.0000
  H   H769      1.0  0.08327  0.83579  0.96007  1.0000
  H   H770      1.0  0.21266  0.84145  0.80461  1.0000
  H   H771      1.0  0.24800  0.86842  0.80473  1.0000
  C   C640      1.0  0.30183  0.65100  0.94178  1.0000
  H   H772      1.0  0.25906  0.57613  0.81324  1.0000
  H   H773      1.0  0.18527  0.88008  0.86708  1.0000
  C   C641      1.0  0.22570  0.68187  0.83643  1.0000
  C   C642      1.0  0.20472  0.69354  0.82817  1.0000
  C   C643      1.0  0.19880  0.71775  0.83418  1.0000
  C   C644      1.0  0.21368  0.73026  0.84878  1.0000
  C   C645      1.0  0.23452  0.71847  0.85719  1.0000
  C   C646      1.0  0.24059  0.69442  0.85096  1.0000
  C   C647      1.0  0.19852  0.58155  0.81902  1.0000
  H   H774      1.0  0.18267  0.72666  0.82769  1.0000
  H   H775      1.0  0.08212  0.79777  0.89076  1.0000
  H   H776      1.0  0.25666  0.68553  0.85761  1.0000
  C   C648      1.0  0.30735  0.72766  0.79761  1.0000
  S   S185      1.0  0.39380  0.62988  0.00572  1.0000
  H   H777      1.0  0.52793  0.83097  0.79422  1.0000
  H   H778      1.0  0.16011  0.91496  0.86031  1.0000
  H   H779      1.0  0.04689  0.81430  0.85629  1.0000
  H   H780      1.0  0.26684  0.65659  0.92727  1.0000
  H   H781      1.0  0.33423  0.64499  0.95993  1.0000
  H   H782      1.0  0.25494  0.03573  0.80072  1.0000
  C   C649      1.0  0.22175  0.55221  0.79721  1.0000
  C   C650      1.0  0.24168  0.58018  0.82195  1.0000
  C   C651      1.0  0.08585  0.81462  0.88032  1.0000
  C   C652      1.0  0.36267  0.59460  0.94358  1.0000
  C   C653      1.0  0.37237  0.61803  0.94112  1.0000
  C   C654      1.0  0.36616  0.63320  0.92234  1.0000
  C   C655      1.0  0.35040  0.62504  0.90579  1.0000
  C   C656      1.0  0.34095  0.60147  0.90809  1.0000
  C   C657      1.0  0.34707  0.58632  0.92695  1.0000
  H   H783      1.0  0.38460  0.62454  0.95368  1.0000
  H   H784      1.0  0.37356  0.65141  0.92066  1.0000
  H   H785      1.0  0.32870  0.59505  0.89549  1.0000
  H   H786      1.0  0.33948  0.56822  0.92874  1.0000
  N   N45       1.0  0.06609  0.83312  0.88216  1.0000
  C   C658      1.0  0.15215  0.03191  0.01555  1.0000
  H   H787      1.0  0.15751  0.84856  0.03046  1.0000
  H   H788      1.0  0.24636  0.75984  0.80666  1.0000
  C   C659      1.0  0.52552  0.66974  0.01918  1.0000
  C   C660      1.0  0.13320  0.01616  0.01105  1.0000
  H   H789      1.0  0.10334  0.82223  0.88555  1.0000
  H   H790      1.0  0.51762  0.62016  0.03358  1.0000
  C   C661      1.0  0.30320  0.63882  0.02516  1.0000
  C   C662      1.0  0.17478  0.02232  0.02140  1.0000
  H   H791      1.0  0.51372  0.73340  0.88079  1.0000
  Fe  Fe92      1.0  0.43303  0.62134  0.01129  1.0000
  C   C663      1.0  0.13227  0.85116  0.95943  1.0000
  C   C664      1.0  0.12703  0.87383  0.94884  1.0000
  C   C665      1.0  0.12926  0.87666  0.92512  1.0000
  C   C666      1.0  0.13671  0.85688  0.91182  1.0000
  C   C667      1.0  0.14187  0.83417  0.92238  1.0000
  C   C668      1.0  0.13965  0.83134  0.94611  1.0000
  H   H792      1.0  0.12125  0.88919  0.95892  1.0000
  H   H793      1.0  0.12520  0.89428  0.91708  1.0000
  H   H794      1.0  0.14773  0.81883  0.91231  1.0000
  H   H795      1.0  0.14369  0.81373  0.95418  1.0000
  S   S186      1.0  0.15651  0.78173  0.81121  1.0000
  C   C669      1.0  0.04396  0.82185  0.87354  1.0000
  H   H796      1.0  0.26329  0.90831  0.83532  1.0000
  H   H797      1.0  0.22695  0.92131  0.81644  1.0000
  C   C670      1.0  0.22329  0.87916  0.87020  1.0000
  H   H798      1.0  0.38397  0.84084  0.80281  1.0000
  C   C671      1.0  0.07204  0.84216  0.94608  1.0000
  H   H799      1.0  0.35420  0.68243  0.80802  1.0000
  H   H800      1.0  0.07706  0.84855  0.84962  1.0000
  H   H801      1.0  0.26192  0.88117  0.86973  1.0000
  C   C672      1.0  0.34342  0.81485  0.79758  1.0000
  C   C673      1.0  0.20192  0.88650  0.85956  1.0000
  C   C674      1.0  0.07244  0.85435  0.86713  1.0000
  C   C675      1.0  0.13643  0.99068  0.01311  1.0000
  C   C676      1.0  0.46779  0.74973  0.80656  1.0000
  N   N46       1.0  0.22129  0.57731  0.80629  1.0000
  H   H802      1.0  0.24545  0.65326  0.96426  1.0000
  C   C677      1.0  0.06196  0.84160  0.90559  1.0000
  H   H803      1.0  0.16145  0.96130  0.02135  1.0000
  H   H804      1.0  0.26744  0.64585  0.99916  1.0000
  C   C678      1.0  0.35989  0.69250  0.79288  1.0000
  H   H805      1.0  0.08833  0.86400  0.87374  1.0000
  C   C679      1.0  0.22484  0.90976  0.83149  1.0000
  H   H806      1.0  0.12777  0.81910  0.03284  1.0000
  H   H807      1.0  0.08105  0.82742  0.81321  1.0000
  C   C680      1.0  0.26490  0.65143  0.96362  1.0000
  C   C681      1.0  0.07611  0.83325  0.92431  1.0000
  H   H808      1.0  0.44610  0.74418  0.83649  1.0000
  C   C682      1.0  0.51047  0.75432  0.81244  1.0000
  C   C683      1.0  0.30338  0.64471  0.98319  1.0000
  N   N47       1.0  0.52867  0.75236  0.85136  1.0000
  H   H809      1.0  0.15818  0.87765  0.83957  1.0000
  H   H810      1.0  0.19167  0.94063  0.80912  1.0000
  H   H811      1.0  0.52803  0.75704  0.80477  1.0000
  H   H812      1.0  0.04825  0.85191  0.79562  1.0000
  H   H813      1.0  0.09073  0.82012  0.92262  1.0000
  C   C684      1.0  0.06322  0.79296  0.81078  1.0000
  H   H814      1.0  0.30829  0.73791  0.81365  1.0000
  H   H815      1.0  0.18265  0.57909  0.80801  1.0000
  H   H816      1.0  0.38292  0.71650  0.81092  1.0000
  C   C685      1.0  0.27688  0.65333  0.94276  1.0000
  C   C686      1.0  0.04356  0.85924  0.91016  1.0000
  S   S187      1.0  0.14186  0.90526  0.02561  1.0000
  H   H817      1.0  0.32595  0.67845  0.00670  1.0000
  H   H818      1.0  0.05126  0.86668  0.96680  1.0000
  C   C687      1.0  0.31492  0.64675  0.96163  1.0000
  C   C688      1.0  0.18250  0.92290  0.80678  1.0000
  Fe  Fe93      1.0  0.31793  0.64391  0.80192  1.0000
  C   C689      1.0  0.16495  0.92490  0.84417  1.0000
  H   H819      1.0  0.51262  0.57126  0.01016  1.0000
  H   H820      1.0  0.34870  0.66095  0.99215  1.0000
  C   C690      1.0  0.48365  0.74806  0.84470  1.0000
  H   H821      1.0  0.14919  0.05147  0.01419  1.0000
  H   H822      1.0  0.19748  0.60054  0.82569  1.0000
  H   H823      1.0  0.20662  0.05129  0.92105  1.0000
  C   C691      1.0  0.50777  0.66107  0.00476  1.0000
  H   H824      1.0  0.49023  0.59425  0.01691  1.0000
  S   S188      1.0  0.19906  0.04214  0.02545  1.0000
  C   C692      1.0  0.15881  0.98097  0.01976  1.0000
  H   H825      1.0  0.29038  0.62336  0.02505  1.0000
  H   H826      1.0  0.22350  0.61554  0.79579  1.0000
  H   H827      1.0  0.24603  0.72802  0.86859  1.0000
  H   H828      1.0  0.35502  0.80624  0.81097  1.0000
  H   H829      1.0  0.08842  0.80851  0.86255  1.0000
  C   C693      1.0  0.49088  0.75332  0.79786  1.0000
  S   S189      1.0  0.46387  0.64210  0.99533  1.0000
  C   C694      1.0  0.04240  0.78152  0.80321  1.0000
  C   C695      1.0  0.33126  0.61659  0.00207  1.0000
  C   C696      1.0  0.21491  0.85521  0.79131  1.0000
  H   H830      1.0  0.17532  0.94134  0.84871  1.0000
  C   C697      1.0  0.04653  0.83223  0.79769  1.0000
  H   H831      1.0  0.34586  0.65799  0.02215  1.0000
  H   H832      1.0  0.22888  0.03402  0.98034  1.0000
  H   H833      1.0  0.31113  0.65243  0.92549  1.0000
  H   H834      1.0  0.27019  0.69775  0.80575  1.0000
  H   H835      1.0  0.17570  0.87356  0.81437  1.0000
  C   C698      1.0  0.46417  0.74709  0.82990  1.0000
  N   N48       1.0  0.17909  0.90913  0.82865  1.0000
  C   C699      1.0  0.17454  0.80300  0.03865  1.0000
  H   H836      1.0  0.24243  0.59916  0.82839  1.0000
  H   H837      1.0  0.34159  0.61204  0.01776  1.0000
  H   H838      1.0  0.14857  0.89163  0.81363  1.0000
  Fe  Fe94      1.0  0.42306  0.57280  0.03510  1.0000
  C   C700      1.0  0.24536  0.88701  0.86154  1.0000
  H   H839      1.0  0.19668  0.56879  0.83393  1.0000
  H   H840      1.0  0.16506  0.92744  0.79844  1.0000
  C   C701      1.0  0.24612  0.90236  0.84229  1.0000
  C   C702      1.0  0.16479  0.88712  0.82390  1.0000
  H   H841      1.0  0.24710  0.71875  0.79675  1.0000
  Fe  Fe95      1.0  0.11177  0.93271  0.01990  1.0000
  C   C703      1.0  0.48515  0.65437  0.01350  1.0000
  C   C704      1.0  0.20202  0.90173  0.83965  1.0000
  N   N49       1.0  0.31781  0.64019  0.00390  1.0000
  H   H842      1.0  0.51167  0.65925  0.98685  1.0000
  C   C705      1.0  0.17806  0.99679  0.02365  1.0000
  C   C706      1.0  0.23165  0.03784  0.96180  1.0000
  H   H843      1.0  0.53017  0.79185  0.84872  1.0000
  H   H844      1.0  0.31894  0.60113  0.99910  1.0000
  C   C707      1.0  0.27785  0.64717  0.98363  1.0000
  S   S190      1.0  0.38309  0.57669  0.03164  1.0000
  C   C708      1.0  0.50749  0.75179  0.83635  1.0000
  H   H845      1.0  0.34453  0.61689  0.98784  1.0000
  H   H846      1.0  0.19548  0.98921  0.02826  1.0000
  C   C709      1.0  0.52244  0.75104  0.87594  1.0000
  C   C710      1.0  0.49999  0.57758  0.02365  1.0000
  H   H847      1.0  0.47952  0.74577  0.86254  1.0000
  C   C711      1.0  0.26585  0.71765  0.80322  1.0000
  S   S191      1.0  0.28526  0.62080  0.79857  1.0000
  C   C712      1.0  0.37615  0.71179  0.79449  1.0000
  H   H848      1.0  0.19324  0.91187  0.79451  1.0000
  H   H849      1.0  0.29317  0.65630  0.02809  1.0000
  H   H850      1.0  0.53878  0.75199  0.88667  1.0000
  H   H851      1.0  0.05750  0.86802  0.86551  1.0000
  H   H852      1.0  0.26616  0.72571  0.82035  1.0000
  C   C713      1.0  0.04812  0.98486  0.01106  1.0000
  H   H853      1.0  0.35916  0.86141  0.79737  1.0000
  C   C714      1.0  0.48013  0.65686  0.03661  1.0000
  H   H854      1.0  0.05955  0.04359  0.03838  1.0000
  H   H855      1.0  0.45266  0.74892  0.79517  1.0000
  H   H856      1.0  0.48602  0.56339  0.02623  1.0000
  H   H857      1.0  0.31212  0.70813  0.80169  1.0000
  N   N50       1.0  0.04531  0.99446  0.03422  1.0000
  Fe  Fe96      1.0  0.07336  0.89823  0.03752  1.0000
  H   H858      1.0  0.08112  0.00949  0.03190  1.0000
  H   H859      1.0  0.23764  0.80251  0.79773  1.0000
  S   S192      1.0  0.30350  0.55236  0.81904  1.0000
  H   H860      1.0  0.33240  0.80008  0.79045  1.0000
  C   C715      1.0  0.25789  0.76874  0.79412  1.0000
  C   C716      1.0  0.26948  0.04206  0.78982  1.0000
  C   C717      1.0  0.37128  0.84759  0.78948  1.0000
  C   C718      1.0  0.25268  0.79350  0.78925  1.0000
  Fe  Fe97      1.0  0.95849  0.22234  0.05362  1.0000
  S   S193      1.0  0.93319  0.23075  0.08285  1.0000
  H   H861      1.0  0.66441  0.48982  0.14640  1.0000
  S   S194      1.0  0.97933  0.18682  0.05649  1.0000
  H   H862      1.0  0.72690  0.49788  0.22766  1.0000
  Fe  Fe98      1.0  0.68901  0.47307  0.07673  1.0000
  S   S195      1.0  0.71488  0.48405  0.10369  1.0000
  Fe  Fe99      1.0  0.91546  0.29618  0.23526  1.0000
  S   S196      1.0  0.91945  0.26325  0.21316  1.0000
  S   S197      1.0  0.87737  0.31041  0.24110  1.0000
  Fe  Fe100     1.0  0.96756  0.29072  0.25217  1.0000
  S   S198      1.0  0.97485  0.25736  0.23176  1.0000
  C   C719      1.0  0.03249  0.16064  0.10233  1.0000
  Fe  Fe101     1.0  0.95573  0.27830  0.20383  1.0000
  S   S199      1.0  0.97536  0.28013  0.17000  1.0000
  Fe  Fe102     1.0  0.93807  0.24560  0.24305  1.0000
  S   S200      1.0  0.93061  0.20642  0.25384  1.0000
  S   S201      1.0  0.95048  0.31288  0.22369  1.0000
  S   S202      1.0  0.93212  0.27744  0.26569  1.0000
  Fe  Fe103     1.0  0.74808  0.43351  0.22194  1.0000
  S   S203      1.0  0.77912  0.45866  0.21572  1.0000
  S   S204      1.0  0.71947  0.42370  0.19688  1.0000
  Fe  Fe104     1.0  0.76209  0.42314  0.27100  1.0000
  S   S205      1.0  0.79404  0.44779  0.26866  1.0000
  H   H863      1.0  0.73287  0.43318  0.09568  1.0000
  Fe  Fe105     1.0  0.76939  0.47380  0.24983  1.0000
  S   S206      1.0  0.76671  0.51511  0.25230  1.0000
  Fe  Fe106     1.0  0.80094  0.43020  0.23513  1.0000
  S   S207      1.0  0.83910  0.41968  0.22484  1.0000
  S   S208      1.0  0.73665  0.45048  0.25476  1.0000
  S   S209      1.0  0.77057  0.40380  0.23872  1.0000
  C   C720      1.0  0.86718  0.34058  0.23473  1.0000
  C   C721      1.0  0.84250  0.34596  0.23696  1.0000
  C   C722      1.0  0.83359  0.36994  0.23307  1.0000
  C   C723      1.0  0.84934  0.38886  0.22725  1.0000
  C   C724      1.0  0.87401  0.38342  0.22463  1.0000
  C   C725      1.0  0.88294  0.35934  0.22835  1.0000
  H   H864      1.0  0.83019  0.33151  0.24179  1.0000
  H   H865      1.0  0.81456  0.37380  0.23486  1.0000
  H   H866      1.0  0.88631  0.39797  0.22005  1.0000
  H   H867      1.0  0.90199  0.35536  0.22655  1.0000
  C   C726      1.0  0.97758  0.19440  0.12605  1.0000
  H   H868      1.0  0.98755  0.20790  0.28465  1.0000
  C   C727      1.0  0.55604  0.40226  0.06607  1.0000
  C   C728      1.0  0.80448  0.07561  0.24182  1.0000
  C   C729      1.0  0.74676  0.42160  0.08716  1.0000
  H   H869      1.0  0.00723  0.34204  0.24046  1.0000
  C   C730      1.0  0.75457  0.45229  0.05828  1.0000
  C   C731      1.0  0.93289  0.08194  0.04507  1.0000
  H   H870      1.0  0.02313  0.10861  0.07334  1.0000
  C   C732      1.0  0.80029  0.47825  0.12849  1.0000
  C   C733      1.0  0.65500  0.35492  0.26335  1.0000
  N   N51       1.0  0.69223  0.36728  0.24150  1.0000
  H   H871      1.0  0.98108  0.11840  0.08432  1.0000
  N   N52       1.0  0.00361  0.18964  0.12166  1.0000
  H   H872      1.0  0.79929  0.43166  0.05865  1.0000
  C   C734      1.0  0.78409  0.42078  0.06586  1.0000
  H   H873      1.0  0.72054  0.48109  0.20308  1.0000
  C   C735      1.0  0.77737  0.45153  0.09433  1.0000
  H   H874      1.0  0.02023  0.26634  0.25411  1.0000
  H   H875      1.0  0.63185  0.31652  0.21404  1.0000
  H   H876      1.0  0.74602  0.44086  0.04531  1.0000
  C   C736      1.0  0.55357  0.31753  0.27397  1.0000
  C   C737      1.0  0.67568  0.50487  0.15117  1.0000
  C   C738      1.0  0.93884  0.10362  0.05585  1.0000
  H   H877      1.0  0.73745  0.41066  0.07431  1.0000
  C   C739      1.0  0.78902  0.06421  0.22631  1.0000
  H   H878      1.0  0.75990  0.24448  0.25064  1.0000
  H   H879      1.0  0.86304  0.40605  0.26871  1.0000
  C   C740      1.0  0.70599  0.54291  0.16230  1.0000
  H   H880      1.0  0.78939  0.41973  0.11476  1.0000
  C   C741      1.0  0.01913  0.12452  0.08344  1.0000
  C   C742      1.0  0.71646  0.46607  0.12885  1.0000
  C   C743      1.0  0.73509  0.47011  0.14401  1.0000
  C   C744      1.0  0.73665  0.45652  0.16448  1.0000
  C   C745      1.0  0.71916  0.43927  0.17027  1.0000
  C   C746      1.0  0.70066  0.43492  0.15495  1.0000
  C   C747      1.0  0.69941  0.44815  0.13416  1.0000
  H   H881      1.0  0.74825  0.48395  0.13996  1.0000
  H   H882      1.0  0.75122  0.45964  0.17588  1.0000
  H   H883      1.0  0.68710  0.42150  0.15924  1.0000
  H   H884      1.0  0.68497  0.44488  0.12250  1.0000
  H   H885      1.0  0.66137  0.53660  0.06400  1.0000
  H   H886      1.0  0.00487  0.21352  0.09202  1.0000
  C   C748      1.0  0.70477  0.52209  0.17725  1.0000
  C   C749      1.0  0.86498  0.39484  0.28465  1.0000
  C   C750      1.0  0.94461  0.24537  0.10673  1.0000
  C   C751      1.0  0.96695  0.25681  0.10588  1.0000
  C   C752      1.0  0.97598  0.26767  0.12534  1.0000
  C   C753      1.0  0.96289  0.26696  0.14584  1.0000
  C   C754      1.0  0.94054  0.25554  0.14671  1.0000
  C   C755      1.0  0.93137  0.24491  0.12716  1.0000
  H   H887      1.0  0.97720  0.25747  0.09021  1.0000
  H   H888      1.0  0.99320  0.27664  0.12449  1.0000
  H   H889      1.0  0.93026  0.25495  0.16239  1.0000
  H   H890      1.0  0.91406  0.23612  0.12792  1.0000
  H   H891      1.0  0.80790  0.10205  0.26813  1.0000
  H   H892      1.0  0.02573  0.29110  0.20302  1.0000
  C   C756      1.0  0.85861  0.21923  0.24784  1.0000
  H   H893      1.0  0.99841  0.35154  0.21260  1.0000
  H   H894      1.0  0.67563  0.40154  0.23084  1.0000
  H   H895      1.0  0.58346  0.54017  0.06774  1.0000
  H   H896      1.0  0.95182  0.14062  0.05152  1.0000
  H   H897      1.0  0.80888  0.48843  0.14162  1.0000
  C   C757      1.0  0.59128  0.43834  0.06286  1.0000
  C   C758      1.0  0.81743  0.22013  0.28076  1.0000
  C   C759      1.0  0.66007  0.33999  0.22526  1.0000
  C   C760      1.0  0.03824  0.33712  0.19087  1.0000
  H   H898      1.0  0.72248  0.37426  0.21900  1.0000
  C   C761      1.0  0.68775  0.39394  0.24429  1.0000
  C   C762      1.0  0.01311  0.21142  0.10909  1.0000
  C   C763      1.0  0.91169  0.20245  0.27772  1.0000
  H   H899      1.0  0.96343  0.22953  0.28345  1.0000
  H   H900      1.0  0.97449  0.21159  0.13554  1.0000
  C   C764      1.0  0.02268  0.29184  0.28123  1.0000
  H   H901      1.0  0.77345  0.05514  0.18335  1.0000
  H   H902      1.0  0.74976  0.50494  0.17915  1.0000
  N   N53       1.0  0.03045  0.32848  0.21383  1.0000
  H   H903      1.0  0.77625  0.41040  0.05175  1.0000
  H   H904      1.0  0.60474  0.45235  0.06102  1.0000
  H   H905      1.0  0.72622  0.36760  0.25903  1.0000
  H   H906      1.0  0.74000  0.46443  0.06499  1.0000
  H   H907      1.0  0.86831  0.37562  0.27924  1.0000
  H   H908      1.0  0.03560  0.18608  0.14206  1.0000
  S   S210      1.0  0.62873  0.40560  0.06718  1.0000
  C   C765      1.0  0.84456  0.25731  0.23141  1.0000
  C   C766      1.0  0.94764  0.12383  0.04316  1.0000
  H   H909      1.0  0.80199  0.07016  0.18262  1.0000
  C   C767      1.0  0.01570  0.18748  0.14393  1.0000
  H   H910      1.0  0.79903  0.25637  0.23568  1.0000
  C   C768      1.0  0.70513  0.36424  0.21952  1.0000
  C   C769      1.0  0.77251  0.52989  0.27794  1.0000
  H   H911      1.0  0.02393  0.36546  0.22494  1.0000
  H   H912      1.0  0.02257  0.34242  0.18006  1.0000
  C   C770      1.0  0.78901  0.43950  0.11296  1.0000
  H   H913      1.0  0.75783  0.51799  0.20554  1.0000
  H   H914      1.0  0.87705  0.22329  0.24123  1.0000
  C   C771      1.0  0.03762  0.13964  0.08993  1.0000
  N   N54       1.0  0.76585  0.43702  0.07666  1.0000
  H   H915      1.0  0.71202  0.33808  0.25853  1.0000
  C   C772      1.0  0.63345  0.34220  0.26571  1.0000
  C   C773      1.0  0.01585  0.30621  0.21155  1.0000
  H   H916      1.0  0.66055  0.36535  0.27762  1.0000
  C   C774      1.0  0.58050  0.39572  0.06811  1.0000
  C   C775      1.0  0.82024  0.23555  0.26111  1.0000
  H   H917      1.0  0.58583  0.37666  0.07053  1.0000
  H   H918      1.0  0.79172  0.40689  0.07800  1.0000
  C   C776      1.0  0.80020  0.45272  0.12977  1.0000
  C   C777      1.0  0.82265  0.38747  0.28654  1.0000
  C   C778      1.0  0.70856  0.35818  0.25971  1.0000
  C   C779      1.0  0.68914  0.50302  0.17106  1.0000
  C   C780      1.0  0.66913  0.35407  0.24317  1.0000
  H   H919      1.0  0.83570  0.27550  0.23402  1.0000
  C   C781      1.0  0.99545  0.13008  0.08966  1.0000
  H   H920      1.0  0.66934  0.33840  0.20918  1.0000
  H   H921      1.0  0.84943  0.20803  0.23512  1.0000
  H   H922      1.0  0.99951  0.31003  0.20122  1.0000
  C   C782      1.0  0.78901  0.49067  0.11049  1.0000
  H   H923      1.0  0.85885  0.24520  0.28638  1.0000
  H   H924      1.0  0.76856  0.48845  0.08063  1.0000
  H   H925      1.0  0.68743  0.48614  0.18091  1.0000
  H   H926      1.0  0.00936  0.22867  0.11824  1.0000
  H   H927      1.0  0.55882  0.33439  0.26533  1.0000
  S   S211      1.0  0.99436  0.30628  0.27643  1.0000
  H   H928      1.0  0.75166  0.06420  0.21521  1.0000
  C   C783      1.0  0.77174  0.10108  0.25588  1.0000
  C   C784      1.0  0.59815  0.41379  0.06629  1.0000
  H   H929      1.0  0.96930  0.17943  0.13649  1.0000
  C   C785      1.0  0.79586  0.09385  0.25621  1.0000
  C   C786      1.0  0.63842  0.32731  0.22779  1.0000
  C   C787      1.0  0.55203  0.51788  0.06858  1.0000
  C   C788      1.0  0.56690  0.44489  0.06169  1.0000
  H   H930      1.0  0.80873  0.44311  0.14398  1.0000
  H   H931      1.0  0.83562  0.24794  0.21733  1.0000
  H   H932      1.0  0.70476  0.40445  0.24315  1.0000
  H   H933      1.0  0.69447  0.37199  0.20505  1.0000
  N   N55       1.0  0.84461  0.24195  0.25261  1.0000
  H   H934      1.0  0.03291  0.21049  0.10644  1.0000
  C   C789      1.0  0.00854  0.16714  0.10868  1.0000
  C   C790      1.0  0.79879  0.24433  0.25049  1.0000
  H   H935      1.0  0.76798  0.46383  0.04901  1.0000
  H   H936      1.0  0.97132  0.15438  0.10602  1.0000
  S   S212      1.0  0.69172  0.43628  0.06091  1.0000
  Fe  Fe107     1.0  0.65103  0.49126  0.04360  1.0000
  C   C791      1.0  0.99011  0.15095  0.10222  1.0000
  C   C792      1.0  0.76454  0.07215  0.22633  1.0000
  H   H937      1.0  0.00976  0.29914  0.22846  1.0000
  C   C793      1.0  0.77608  0.23767  0.25894  1.0000
  C   C794      1.0  0.74570  0.52027  0.19072  1.0000
  H   H938      1.0  0.75643  0.21704  0.28452  1.0000
  H   H939      1.0  0.66750  0.52643  0.12110  1.0000
  S   S213      1.0  0.92178  0.05692  0.06133  1.0000
  C   C795      1.0  0.67744  0.52547  0.13683  1.0000
  H   H940      1.0  0.84767  0.27331  0.27371  1.0000
  H   H941      1.0  0.82325  0.07055  0.24360  1.0000
  H   H942      1.0  0.93631  0.10492  0.07399  1.0000
  H   H943      1.0  0.56171  0.50179  0.07495  1.0000
  H   H944      1.0  0.67939  0.39810  0.26097  1.0000
  C   C796      1.0  0.77758  0.47763  0.09367  1.0000
  S   S214      1.0  0.64865  0.47365  0.07837  1.0000
  H   H945      1.0  0.73728  0.09586  0.24088  1.0000
  C   C797      1.0  0.62520  0.32833  0.24800  1.0000
  C   C798      1.0  0.54926  0.42696  0.06308  1.0000
  H   H946      1.0  0.75380  0.40832  0.10014  1.0000
  H   H947      1.0  0.86321  0.26144  0.22543  1.0000
  Fe  Fe108     1.0  0.65152  0.43851  0.05935  1.0000
  H   H948      1.0  0.56173  0.46388  0.05907  1.0000
  H   H949      1.0  0.70964  0.34464  0.21645  1.0000
  H   H950      1.0  0.78866  0.51056  0.10976  1.0000
  H   H951      1.0  0.76515  0.11492  0.26742  1.0000
  C   C799      1.0  0.01443  0.34778  0.22343  1.0000
  H   H952      1.0  0.60854  0.31833  0.24999  1.0000
  H   H953      1.0  0.96746  0.19679  0.10989  1.0000
  Fe  Fe109     1.0  0.01017  0.20904  0.04331  1.0000
  C   C800      1.0  0.75610  0.09027  0.24095  1.0000
  H   H954      1.0  0.01178  0.20378  0.15448  1.0000
  S   S215      1.0  0.69126  0.49414  0.04353  1.0000
  H   H955      1.0  0.87592  0.26043  0.26452  1.0000
  H   H956      1.0  0.00961  0.17089  0.15366  1.0000
  H   H957      1.0  0.54555  0.39915  0.12275  1.0000
  C   C801      1.0  0.71571  0.49815  0.21213  1.0000
  N   N56       1.0  0.71998  0.52049  0.19774  1.0000
  H   H958      1.0  0.75096  0.53757  0.18176  1.0000
  C   C802      1.0  0.89911  0.18052  0.28105  1.0000
  C   C803      1.0  0.85728  0.25574  0.27009  1.0000
  H   H959      1.0  0.70100  0.36135  0.27688  1.0000
  H   H960      1.0  0.54258  0.38821  0.06691  1.0000
  H   H961      1.0  0.81897  0.39921  0.27120  1.0000
  H   H962      1.0  0.83474  0.05503  0.20875  1.0000
  H   H963      1.0  0.86115  0.20744  0.26324  1.0000
  C   C804      1.0  0.03107  0.27277  0.26770  1.0000
  C   C805      1.0  0.77404  0.22226  0.27806  1.0000
  H   H964      1.0  0.62322  0.34302  0.28149  1.0000
  H   H965      1.0  0.69664  0.49715  0.21797  1.0000
  H   H966      1.0  0.90170  0.16575  0.26931  1.0000
  H   H967      1.0  0.82622  0.36846  0.28079  1.0000
  H   H968      1.0  0.99336  0.24022  0.27940  1.0000
  H   H969      1.0  0.54181  0.33449  0.17291  1.0000
  C   C806      1.0  0.79293  0.05255  0.18691  1.0000
  C   C807      1.0  0.71530  0.54203  0.21215  1.0000
  C   C808      1.0  0.56426  0.53966  0.06464  1.0000
  S   S216      1.0  0.99018  0.24500  0.04287  1.0000
  C   C809      1.0  0.69248  0.54451  0.14243  1.0000
  H   H970      1.0  0.69590  0.54352  0.21694  1.0000
  H   H971      1.0  0.72585  0.54077  0.22815  1.0000
  C   C810      1.0  0.63051  0.54946  0.04510  1.0000
  H   H972      1.0  0.86702  0.44112  0.28764  1.0000
  H   H973      1.0  0.54139  0.36092  0.13873  1.0000
  C   C811      1.0  0.72608  0.39273  0.30904  1.0000
  C   C812      1.0  0.96930  0.21209  0.32606  1.0000
  S   S217      1.0  0.91718  0.09062  0.51745  1.0000
  H   H974      1.0  0.01784  0.17801  0.52417  1.0000
  H   H975      1.0  0.87213  0.16140  0.30116  1.0000
  Fe  Fe110     1.0  0.87780  0.08926  0.50992  1.0000
  S   S218      1.0  0.87045  0.07431  0.47528  1.0000
  C   C813      1.0  0.69674  0.36438  0.32516  1.0000
  H   H976      1.0  0.78632  0.51875  0.33346  1.0000
  C   C814      1.0  0.01228  0.23597  0.50911  1.0000
  H   H977      1.0  0.64980  0.40158  0.36445  1.0000
  H   H978      1.0  0.91843  0.23790  0.29116  1.0000
  S   S219      1.0  0.57141  0.43071  0.52201  1.0000
  Fe  Fe111     1.0  0.60178  0.40536  0.51189  1.0000
  S   S220      1.0  0.60888  0.40381  0.47402  1.0000
  H   H979      1.0  0.89903  0.10636  0.44382  1.0000
  H   H980      1.0  0.54859  0.38844  0.49885  1.0000
  H   H981      1.0  0.69037  0.43332  0.40223  1.0000
  Fe  Fe112     1.0  0.63073  0.30602  0.38259  1.0000
  S   S221      1.0  0.63371  0.27015  0.36480  1.0000
  S   S222      1.0  0.62369  0.30516  0.42050  1.0000
  Fe  Fe113     1.0  0.64256  0.33521  0.33932  1.0000
  S   S223      1.0  0.64627  0.30196  0.31787  1.0000
  S   S224      1.0  0.64792  0.37345  0.32501  1.0000
  Fe  Fe114     1.0  0.61291  0.28968  0.33684  1.0000
  S   S225      1.0  0.58059  0.27072  0.32264  1.0000
  Fe  Fe115     1.0  0.66665  0.28539  0.34750  1.0000
  S   S226      1.0  0.70486  0.27005  0.34734  1.0000
  S   S227      1.0  0.60759  0.32441  0.35605  1.0000
  S   S228      1.0  0.66515  0.31990  0.36755  1.0000
  Fe  Fe116     1.0  0.80499  0.13224  0.37150  1.0000
  S   S229      1.0  0.78338  0.11387  0.34486  1.0000
  S   S230      1.0  0.79760  0.13058  0.40934  1.0000
  Fe  Fe117     1.0  0.83200  0.16386  0.33652  1.0000
  S   S231      1.0  0.81276  0.14839  0.30705  1.0000
  H   H982      1.0  0.80557  0.41302  0.32621  1.0000
  Fe  Fe118     1.0  0.77947  0.15171  0.32884  1.0000
  S   S232      1.0  0.74364  0.16596  0.31544  1.0000
  Fe  Fe119     1.0  0.81844  0.11200  0.32537  1.0000
  C   C815      1.0  0.63688  0.49085  0.53112  1.0000
  S   S233      1.0  0.79833  0.16999  0.35681  1.0000
  S   S234      1.0  0.84044  0.12755  0.35347  1.0000
  H   H983      1.0  0.82078  0.48957  0.32384  1.0000
  C   C816      1.0  0.69490  0.39136  0.37896  1.0000
  H   H984      1.0  0.71716  0.14120  0.41942  1.0000
  C   C817      1.0  0.77784  0.51660  0.29792  1.0000
  C   C818      1.0  0.72072  0.37056  0.32040  1.0000
  H   H985      1.0  0.67893  0.35042  0.40387  1.0000
  H   H986      1.0  0.86851  0.13322  0.43381  1.0000
  C   C819      1.0  0.71472  0.24088  0.33834  1.0000
  C   C820      1.0  0.69939  0.22445  0.32811  1.0000
  C   C821      1.0  0.70837  0.20146  0.32116  1.0000
  C   C822      1.0  0.73259  0.19471  0.32463  1.0000
  C   C823      1.0  0.74776  0.21112  0.33503  1.0000
  C   C824      1.0  0.73890  0.23410  0.34173  1.0000
  H   H987      1.0  0.68070  0.22948  0.32546  1.0000
  H   H988      1.0  0.69650  0.18888  0.31311  1.0000
  H   H989      1.0  0.76647  0.20641  0.33751  1.0000
  H   H990      1.0  0.75088  0.24677  0.34954  1.0000
  C   C825      1.0  0.66521  0.17935  0.38568  1.0000
  H   H991      1.0  0.69410  0.37164  0.37476  1.0000
  H   H992      1.0  0.65774  0.43454  0.40126  1.0000
  H   H993      1.0  0.84920  0.15437  0.40187  1.0000
  Fe  Fe120     1.0  0.90813  0.12681  0.53267  1.0000
  S   S235      1.0  0.86897  0.12662  0.52315  1.0000
  C   C826      1.0  0.61219  0.37602  0.45955  1.0000
  C   C827      1.0  0.61283  0.37676  0.43574  1.0000
  C   C828      1.0  0.61635  0.35515  0.42356  1.0000
  C   C829      1.0  0.61908  0.33262  0.43518  1.0000
  C   C830      1.0  0.61791  0.33180  0.45899  1.0000
  C   C831      1.0  0.61462  0.35345  0.47118  1.0000
  H   H994      1.0  0.61076  0.39418  0.42674  1.0000
  H   H995      1.0  0.61686  0.35581  0.40523  1.0000
  H   H996      1.0  0.61990  0.31437  0.46803  1.0000
  H   H997      1.0  0.61435  0.35269  0.48952  1.0000
  C   C832      1.0  0.67464  0.38782  0.41580  1.0000
  C   C833      1.0  0.03719  0.29984  0.29886  1.0000
  C   C834      1.0  0.67431  0.42683  0.39315  1.0000
  C   C835      1.0  0.75245  0.18682  0.39855  1.0000
  H   H998      1.0  0.72015  0.53925  0.43096  1.0000
  N   N57       1.0  0.98431  0.23069  0.31411  1.0000
  H   H999      1.0  0.69581  0.40132  0.36223  1.0000
  C   C836      1.0  0.96219  0.15273  0.52992  1.0000
  C   C837      1.0  0.87873  0.19730  0.31396  1.0000
  H   H1000     1.0  0.74925  0.53054  0.40222  1.0000
  H   H1001     1.0  0.02677  0.21570  0.29107  1.0000
  C   C838      1.0  0.66103  0.52764  0.53156  1.0000
  C   C839      1.0  0.84990  0.08989  0.45723  1.0000
  C   C840      1.0  0.84997  0.08464  0.43404  1.0000
  C   C841      1.0  0.83427  0.09728  0.41910  1.0000
  C   C842      1.0  0.81804  0.11484  0.42739  1.0000
  C   C843      1.0  0.81783  0.11990  0.45062  1.0000
  C   C844      1.0  0.83388  0.10765  0.46548  1.0000
  H   H1002     1.0  0.86232  0.07092  0.42754  1.0000
  H   H1003     1.0  0.83448  0.09319  0.40123  1.0000
  H   H1004     1.0  0.80528  0.13342  0.45714  1.0000
  H   H1005     1.0  0.83360  0.11172  0.48334  1.0000
  H   H1006     1.0  0.67316  0.35478  0.47572  1.0000
  H   H1007     1.0  0.85232  0.36200  0.31515  1.0000
  H   H1008     1.0  0.03085  0.31457  0.30943  1.0000
  C   C845      1.0  0.67118  0.38935  0.45736  1.0000
  C   C846      1.0  0.65696  0.50412  0.52354  1.0000
  H   H1009     1.0  0.63534  0.39762  0.39166  1.0000
  H   H1010     1.0  0.69276  0.34684  0.33318  1.0000
  H   H1011     1.0  0.95633  0.25863  0.31078  1.0000
  H   H1012     1.0  0.78483  0.06524  0.31090  1.0000
  H   H1013     1.0  0.67494  0.43508  0.37566  1.0000
  C   C847      1.0  0.55257  0.29820  0.45351  1.0000
  H   H1014     1.0  0.00076  0.23995  0.35686  1.0000
  C   C848      1.0  0.67415  0.36397  0.45922  1.0000
  C   C849      1.0  0.67723  0.35031  0.43976  1.0000
  H   H1015     1.0  0.67848  0.33044  0.44116  1.0000
  C   C850      1.0  0.01473  0.23427  0.34516  1.0000
  H   H1016     1.0  0.66767  0.39978  0.47250  1.0000
  C   C851      1.0  0.82558  0.47098  0.31923  1.0000
  H   H1017     1.0  0.72542  0.16865  0.43342  1.0000
  C   C852      1.0  0.83765  0.42246  0.30620  1.0000
  H   H1018     1.0  0.92476  0.10519  0.46143  1.0000
  H   H1019     1.0  0.66805  0.42077  0.43591  1.0000
  H   H1020     1.0  0.03801  0.22731  0.45740  1.0000
  C   C853      1.0  0.67808  0.38077  0.31932  1.0000
  C   C854      1.0  0.73784  0.15195  0.37942  1.0000
  H   H1021     1.0  0.55132  0.36743  0.43728  1.0000
  H   H1022     1.0  0.75567  0.14282  0.38214  1.0000
  H   H1023     1.0  0.79568  0.45483  0.33716  1.0000
  H   H1024     1.0  0.73837  0.16133  0.36248  1.0000
  C   C855      1.0  0.88237  0.17805  0.29902  1.0000
  H   H1025     1.0  0.86146  0.38835  0.33051  1.0000
  C   C856      1.0  0.74542  0.54953  0.39574  1.0000
  C   C857      1.0  0.91619  0.11575  0.44714  1.0000
  H   H1026     1.0  0.76975  0.17689  0.40215  1.0000
  S   S236      1.0  0.59103  0.37481  0.53610  1.0000
  H   H1027     1.0  0.72110  0.22026  0.39043  1.0000
  C   C858      1.0  0.65155  0.39249  0.38150  1.0000
  H   H1028     1.0  0.65087  0.37239  0.37885  1.0000
  H   H1029     1.0  0.79300  0.20166  0.30390  1.0000
  H   H1030     1.0  0.72460  0.13700  0.37857  1.0000
  C   C859      1.0  0.00935  0.22855  0.32241  1.0000
  S   S237      1.0  0.85680  0.19607  0.33550  1.0000
  H   H1031     1.0  0.85610  0.48214  0.29911  1.0000
  H   H1032     1.0  0.68223  0.23880  0.38268  1.0000
  H   H1033     1.0  0.88958  0.23345  0.32297  1.0000
  H   H1034     1.0  0.64933  0.16831  0.38385  1.0000
  C   C860      1.0  0.73053  0.15611  0.41951  1.0000
  H   H1035     1.0  0.68798  0.14837  0.39234  1.0000
  H   H1036     1.0  0.74976  0.20019  0.41231  1.0000
  C   C861      1.0  0.54869  0.53894  0.53419  1.0000
  H   H1037     1.0  0.00396  0.21282  0.48137  1.0000
  N   N58       1.0  0.84316  0.39700  0.29933  1.0000
  H   H1038     1.0  0.83047  0.37942  0.33046  1.0000
  H   H1039     1.0  0.90930  0.20212  0.39392  1.0000
  H   H1040     1.0  0.97165  0.25880  0.33702  1.0000
  H   H1041     1.0  0.64617  0.21347  0.37902  1.0000
  C   C862      1.0  0.89223  0.21862  0.31130  1.0000
  S   S238      1.0  0.68647  0.54357  0.52173  1.0000
  C   C863      1.0  0.67130  0.40122  0.43602  1.0000
  C   C864      1.0  0.70609  0.20800  0.38968  1.0000
  S   S239      1.0  0.83499  0.08062  0.30572  1.0000
  N   N59       1.0  0.73201  0.16967  0.39741  1.0000
  N   N60       1.0  0.67393  0.39959  0.39286  1.0000
  C   C865      1.0  0.66335  0.20476  0.38299  1.0000
  H   H1042     1.0  0.73509  0.35779  0.32498  1.0000
  H   H1043     1.0  0.96859  0.21474  0.34468  1.0000
  C   C866      1.0  0.68745  0.16813  0.39048  1.0000
  C   C867      1.0  0.70865  0.18209  0.39252  1.0000
  H   H1044     1.0  0.86932  0.18882  0.38175  1.0000
  H   H1045     1.0  0.88140  0.40070  0.29351  1.0000
  H   H1046     1.0  0.92782  0.11384  0.43178  1.0000
  H   H1047     1.0  0.71212  0.39428  0.38786  1.0000
  N   N61       1.0  0.91234  0.14192  0.45266  1.0000
  C   C868      1.0  0.89628  0.14331  0.47284  1.0000
  C   C869      1.0  0.93598  0.15188  0.45912  1.0000
  C   C870      1.0  0.90099  0.15516  0.43320  1.0000
  C   C871      1.0  0.91207  0.17507  0.42127  1.0000
  C   C872      1.0  0.87802  0.14812  0.42560  1.0000
  C   C873      1.0  0.90067  0.18699  0.40290  1.0000
  C   C874      1.0  0.86680  0.16016  0.40730  1.0000
  C   C875      1.0  0.87811  0.17955  0.39596  1.0000
  H   H1048     1.0  0.89212  0.16269  0.47717  1.0000
  H   H1049     1.0  0.87898  0.13380  0.47056  1.0000
  H   H1050     1.0  0.90479  0.13441  0.48796  1.0000
  H   H1051     1.0  0.93420  0.17129  0.46443  1.0000
  H   H1052     1.0  0.94377  0.14160  0.47401  1.0000
  H   H1053     1.0  0.94947  0.15052  0.44511  1.0000
  H   H1054     1.0  0.92947  0.18180  0.42581  1.0000
  C   C876      1.0  0.78229  0.52906  0.31803  1.0000
  C   C877      1.0  0.68370  0.21902  0.38512  1.0000
  H   H1055     1.0  0.75512  0.19704  0.38213  1.0000
  C   C878      1.0  0.84702  0.38104  0.31977  1.0000
  H   H1056     1.0  0.74812  0.14715  0.42398  1.0000
  C   C879      1.0  0.68347  0.40322  0.30848  1.0000
  C   C880      1.0  0.67741  0.36198  0.41838  1.0000
  C   C881      1.0  0.81744  0.42748  0.32043  1.0000
  C   C882      1.0  0.84553  0.46674  0.30530  1.0000
  S   S240      1.0  0.75617  0.39948  0.30239  1.0000
  C   C883      1.0  0.81937  0.05449  0.29721  1.0000
  S   S241      1.0  0.93203  0.15824  0.52216  1.0000
  C   C884      1.0  0.98006  0.16936  0.52311  1.0000
  H   H1057     1.0  0.66928  0.49623  0.51129  1.0000
  H   H1058     1.0  0.63365  0.47296  0.52450  1.0000
  H   H1059     1.0  0.56933  0.29366  0.42075  1.0000
  H   H1060     1.0  0.97523  0.18552  0.51306  1.0000
  H   H1061     1.0  0.97649  0.19321  0.32321  1.0000
  H   H1062     1.0  0.56762  0.33781  0.41060  1.0000
  H   H1063     1.0  0.66908  0.41598  0.30398  1.0000
  C   C885      1.0  0.01585  0.22667  0.48753  1.0000
  H   H1064     1.0  0.77848  0.49677  0.29786  1.0000
  H   H1065     1.0  0.95039  0.21273  0.31997  1.0000
  C   C886      1.0  0.81155  0.45140  0.32678  1.0000
  C   C887      1.0  0.55089  0.34821  0.44221  1.0000
  H   H1066     1.0  0.80577  0.38679  0.29677  1.0000
  C   C888      1.0  0.70742  0.40906  0.30305  1.0000
  C   C889      1.0  0.56215  0.28488  0.30170  1.0000
  H   H1067     1.0  0.55846  0.38738  0.47010  1.0000
  H   H1068     1.0  0.55374  0.27878  0.45792  1.0000
  C   C890      1.0  0.97427  0.25552  0.31866  1.0000
  C   C891      1.0  0.55334  0.37573  0.48510  1.0000
  C   C892      1.0  0.03284  0.05386  0.53479  1.0000
  H   H1069     1.0  0.54738  0.30448  0.34768  1.0000
  C   C893      1.0  0.00416  0.16515  0.52940  1.0000
  C   C894      1.0  0.56119  0.30649  0.43245  1.0000
  C   C895      1.0  0.56017  0.33141  0.42675  1.0000
  H   H1070     1.0  0.83282  0.21299  0.29004  1.0000
  S   S242      1.0  0.62800  0.42160  0.53583  1.0000
  H   H1071     1.0  0.98640  0.27003  0.31172  1.0000
  H   H1072     1.0  0.99747  0.22934  0.51962  1.0000
  H   H1073     1.0  0.02457  0.25910  0.53454  1.0000
  C   C896      1.0  0.03833  0.23308  0.35319  1.0000
  H   H1074     1.0  0.71144  0.42634  0.29456  1.0000
  H   H1075     1.0  0.56977  0.36536  0.49052  1.0000
  C   C897      1.0  0.54220  0.34046  0.46394  1.0000
  C   C898      1.0  0.85161  0.44290  0.29882  1.0000
  H   H1076     1.0  0.58550  0.31528  0.29467  1.0000
  C   C899      1.0  0.02891  0.22050  0.30857  1.0000
  H   H1077     1.0  0.01974  0.06886  0.53457  1.0000
  C   C900      1.0  0.03498  0.23487  0.47406  1.0000
  H   H1078     1.0  0.56812  0.53654  0.53327  1.0000
  C   C901      1.0  0.02819  0.25307  0.51754  1.0000
  C   C902      1.0  0.54313  0.31482  0.46911  1.0000
  C   C903      1.0  0.79467  0.21358  0.28896  1.0000
  H   H1079     1.0  0.78867  0.54676  0.41746  1.0000
  C   C904      1.0  0.56871  0.30677  0.29057  1.0000
  C   C905      1.0  0.90844  0.22128  0.29311  1.0000
  H   H1080     1.0  0.70813  0.53830  0.47080  1.0000
  C   C906      1.0  0.72259  0.55016  0.46498  1.0000
  C   C907      1.0  0.98226  0.22689  0.28935  1.0000
  C   C908      1.0  0.72971  0.55096  0.44211  1.0000
  H   H1081     1.0  0.75256  0.55068  0.37796  1.0000
  Fe  Fe121     1.0  0.86373  0.10734  0.55709  1.0000
  S   S243      1.0  0.83189  0.11068  0.58108  1.0000
  S   S244      1.0  0.90206  0.11107  0.56787  1.0000
  Fe  Fe122     1.0  0.67641  0.29801  0.71989  1.0000
  S   S245      1.0  0.68347  0.33757  0.72695  1.0000
  S   S246      1.0  0.70930  0.27868  0.70545  1.0000
  Fe  Fe123     1.0  0.62403  0.30216  0.73655  1.0000
  S   S247      1.0  0.62782  0.34148  0.74549  1.0000
  S   S248      1.0  0.58670  0.28604  0.73880  1.0000
  Fe  Fe124     1.0  0.64712  0.34533  0.71200  1.0000
  S   S249      1.0  0.63502  0.37814  0.69063  1.0000
  Fe  Fe125     1.0  0.66361  0.32976  0.75947  1.0000
  S   S250      1.0  0.59614  0.48420  0.55724  1.0000
  S   S251      1.0  0.64155  0.30649  0.70202  1.0000
  S   S252      1.0  0.65844  0.28969  0.75348  1.0000
  Fe  Fe126     1.0  0.82249  0.14725  0.70715  1.0000
  S   S253      1.0  0.78898  0.12492  0.70630  1.0000
  S   S254      1.0  0.84539  0.15859  0.67681  1.0000
  Fe  Fe127     1.0  0.81894  0.15347  0.75806  1.0000
  S   S255      1.0  0.78525  0.13146  0.76140  1.0000
  C   C909      1.0  0.78949  0.31591  0.76871  1.0000
  Fe  Fe128     1.0  0.80367  0.10568  0.73752  1.0000
  H   H1082     1.0  0.83875  0.08118  0.70772  1.0000
  Fe  Fe129     1.0  0.77368  0.15277  0.73020  1.0000
  S   S256      1.0  0.73548  0.16738  0.72854  1.0000
  S   S257      1.0  0.83854  0.12605  0.73663  1.0000
  S   S258      1.0  0.80596  0.17672  0.72866  1.0000
  Fe  Fe130     1.0  0.61461  0.39326  0.56115  1.0000
  S   S259      1.0  0.64074  0.37177  0.58341  1.0000
  S   S260      1.0  0.58509  0.41715  0.57488  1.0000
  C   C910      1.0  0.58171  0.29670  0.67223  1.0000
  H   H1083     1.0  0.97052  0.29331  0.73096  1.0000
  H   H1084     1.0  0.77404  0.14412  0.63916  1.0000
  C   C911      1.0  0.75096  0.22430  0.64109  1.0000
  C   C912      1.0  0.72819  0.19505  0.66392  1.0000
  C   C913      1.0  0.78437  0.35616  0.78619  1.0000
  H   H1085     1.0  0.60350  0.32983  0.63912  1.0000
  C   C914      1.0  0.64488  0.53790  0.54718  1.0000
  H   H1086     1.0  0.74758  0.14918  0.65547  1.0000
  C   C915      1.0  0.66679  0.44196  0.65633  1.0000
  H   H1087     1.0  0.92134  0.05573  0.61688  1.0000
  H   H1088     1.0  0.60632  0.33720  0.67705  1.0000
  C   C916      1.0  0.58518  0.33508  0.63499  1.0000
  C   C917      1.0  0.74928  0.20027  0.65094  1.0000
  Fe  Fe131     1.0  0.56253  0.40138  0.54790  1.0000
  C   C918      1.0  0.77811  0.54420  0.77799  1.0000
  H   H1089     1.0  0.87811  0.23051  0.74463  1.0000
  C   C919      1.0  0.85859  0.20330  0.76424  1.0000
  N   N62       1.0  0.57105  0.32173  0.67404  1.0000
  H   H1090     1.0  0.65420  0.46909  0.63258  1.0000
  H   H1091     1.0  0.78773  0.19581  0.67774  1.0000
  H   H1092     1.0  0.85209  0.19419  0.74950  1.0000
  H   H1093     1.0  0.66808  0.48793  0.60084  1.0000
  C   C920      1.0  0.63600  0.37545  0.66093  1.0000
  C   C921      1.0  0.62282  0.39220  0.64738  1.0000
  C   C922      1.0  0.62369  0.39089  0.62364  1.0000
  C   C923      1.0  0.63817  0.37313  0.61324  1.0000
  C   C924      1.0  0.65118  0.35619  0.62683  1.0000
  C   C925      1.0  0.64991  0.35716  0.65064  1.0000
  H   H1094     1.0  0.61198  0.40634  0.65527  1.0000
  H   H1095     1.0  0.61336  0.40385  0.61350  1.0000
  H   H1096     1.0  0.66237  0.34234  0.61892  1.0000
  H   H1097     1.0  0.66019  0.34419  0.66098  1.0000
  C   C926      1.0  0.56980  0.29121  0.76388  1.0000
  H   H1098     1.0  0.68004  0.41144  0.67671  1.0000
  H   H1099     1.0  0.61233  0.53254  0.56689  1.0000
  C   C927      1.0  0.76501  0.19942  0.78695  1.0000
  H   H1100     1.0  0.56964  0.28450  0.66287  1.0000
  N   N63       1.0  0.88488  0.05687  0.63014  1.0000
  C   C928      1.0  0.87508  0.07245  0.61137  1.0000
  C   C929      1.0  0.68415  0.41609  0.61911  1.0000
  H   H1101     1.0  0.68569  0.37818  0.75873  1.0000
  Fe  Fe132     1.0  0.59655  0.44438  0.54790  1.0000
  C   C930      1.0  0.71672  0.24822  0.71362  1.0000
  C   C931      1.0  0.74032  0.23946  0.71002  1.0000
  C   C932      1.0  0.74653  0.21488  0.71526  1.0000
  C   C933      1.0  0.72900  0.19879  0.72361  1.0000
  C   C934      1.0  0.70549  0.20765  0.72749  1.0000
  C   C935      1.0  0.69940  0.23236  0.72271  1.0000
  H   H1102     1.0  0.75374  0.25167  0.70288  1.0000
  H   H1103     1.0  0.76468  0.20831  0.71231  1.0000
  H   H1104     1.0  0.69186  0.19528  0.73399  1.0000
  H   H1105     1.0  0.68115  0.23894  0.72547  1.0000
  H   H1106     1.0  0.59750  0.31128  0.78015  1.0000
  H   H1107     1.0  0.57643  0.38250  0.72156  1.0000
  C   C936      1.0  0.69413  0.38351  0.77421  1.0000
  C   C937      1.0  0.88220  0.23556  0.78050  1.0000
  C   C938      1.0  0.83640  0.12343  0.60780  1.0000
  C   C939      1.0  0.85502  0.13980  0.61126  1.0000
  C   C940      1.0  0.85773  0.15027  0.63259  1.0000
  C   C941      1.0  0.84212  0.14414  0.65066  1.0000
  C   C942      1.0  0.82391  0.12723  0.64735  1.0000
  C   C943      1.0  0.82089  0.11715  0.62590  1.0000
  H   H1108     1.0  0.86702  0.14481  0.59738  1.0000
  H   H1109     1.0  0.87188  0.16332  0.63505  1.0000
  H   H1110     1.0  0.81207  0.12200  0.66123  1.0000
  H   H1111     1.0  0.80661  0.10428  0.62336  1.0000
  H   H1112     1.0  0.78094  0.19225  0.61553  1.0000
  H   H1113     1.0  0.97387  0.22843  0.77342  1.0000
  H   H1114     1.0  0.99349  0.27049  0.70625  1.0000
  N   N64       1.0  0.97504  0.25809  0.74843  1.0000
  H   H1115     1.0  0.86525  0.11090  0.68791  1.0000
  C   C944      1.0  0.97022  0.28494  0.74832  1.0000
  C   C945      1.0  0.84485  0.05298  0.68345  1.0000
  C   C946      1.0  0.99963  0.25307  0.73951  1.0000
  C   C947      1.0  0.00615  0.26073  0.71708  1.0000
  C   C948      1.0  0.01765  0.24047  0.75247  1.0000
  C   C949      1.0  0.68714  0.40654  0.64117  1.0000
  C   C950      1.0  0.02917  0.25595  0.70817  1.0000
  H   H1116     1.0  0.57383  0.34668  0.74811  1.0000
  H   H1117     1.0  0.78129  0.22763  0.75239  1.0000
  S   S261      1.0  0.86901  0.06979  0.54284  1.0000
  C   C951      1.0  0.55758  0.35660  0.74308  1.0000
  H   H1118     1.0  0.67182  0.41617  0.57311  1.0000
  H   H1119     1.0  0.75550  0.19721  0.77065  1.0000
  H   H1120     1.0  0.63804  0.45780  0.57046  1.0000
  C   C952      1.0  0.58841  0.33742  0.68554  1.0000
  H   H1121     1.0  0.58501  0.28798  0.68927  1.0000
  C   C953      1.0  0.71206  0.23595  0.65677  1.0000
  C   C954      1.0  0.75951  0.35494  0.78110  1.0000
  H   H1122     1.0  0.83020  0.37579  0.78397  1.0000
  H   H1123     1.0  0.59946  0.29672  0.66332  1.0000
  C   C955      1.0  0.66384  0.45179  0.63436  1.0000
  C   C956      1.0  0.76506  0.31558  0.76364  1.0000
  H   H1124     1.0  0.73437  0.26022  0.63694  1.0000
  C   C957      1.0  0.67249  0.43919  0.61504  1.0000
  H   H1125     1.0  0.69720  0.47512  0.59396  1.0000
  H   H1126     1.0  0.55384  0.31169  0.70595  1.0000
  H   H1127     1.0  0.59147  0.33122  0.70346  1.0000
  H   H1128     1.0  0.63208  0.46270  0.59966  1.0000
  C   C958      1.0  0.86305  0.09278  0.68111  1.0000
  H   H1129     1.0  0.85525  0.07039  0.60990  1.0000
  H   H1130     1.0  0.88516  0.10064  0.65233  1.0000
  C   C959      1.0  0.78828  0.18869  0.63281  1.0000
  C   C960      1.0  0.80093  0.06249  0.78586  1.0000
  H   H1131     1.0  0.99724  0.11164  0.55954  1.0000
  C   C961      1.0  0.96852  0.13181  0.54287  1.0000
  C   C962      1.0  0.79913  0.33581  0.77989  1.0000
  C   C963      1.0  0.87217  0.06302  0.65153  1.0000
  C   C964      1.0  0.91101  0.06162  0.63216  1.0000
  C   C965      1.0  0.54618  0.28247  0.76597  1.0000
  H   H1132     1.0  0.69551  0.38861  0.64389  1.0000
  H   H1133     1.0  0.67568  0.48262  0.57213  1.0000
  C   C966      1.0  0.55902  0.37670  0.72810  1.0000
  H   H1134     1.0  0.79494  0.39890  0.76593  1.0000
  H   H1135     1.0  0.91490  0.08143  0.63369  1.0000
  H   H1136     1.0  0.69822  0.24982  0.65969  1.0000
  C   C967      1.0  0.70980  0.21257  0.66651  1.0000
  H   H1137     1.0  0.72611  0.17769  0.67300  1.0000
  C   C968      1.0  0.86564  0.05562  0.75910  1.0000
  H   H1138     1.0  0.67648  0.44349  0.55656  1.0000
  C   C969      1.0  0.58111  0.34513  0.61329  1.0000
  H   H1139     1.0  0.96049  0.22629  0.73305  1.0000
  H   H1140     1.0  0.73097  0.33463  0.76623  1.0000
  C   C970      1.0  0.78808  0.40043  0.78365  1.0000
  H   H1141     1.0  0.95702  0.25414  0.71636  1.0000
  C   C971      1.0  0.75936  0.15784  0.64227  1.0000
  H   H1142     1.0  0.75767  0.30027  0.75477  1.0000
  H   H1143     1.0  0.76648  0.23021  0.63137  1.0000
  H   H1144     1.0  0.95235  0.25237  0.77796  1.0000
  H   H1145     1.0  0.02854  0.31439  0.76509  1.0000
  C   C972      1.0  0.70613  0.40594  0.77492  1.0000
  H   H1146     1.0  0.69418  0.20833  0.67701  1.0000
  H   H1147     1.0  0.63417  0.43196  0.58951  1.0000
  C   C973      1.0  0.55810  0.35288  0.60701  1.0000
  H   H1148     1.0  0.79499  0.16459  0.67152  1.0000
  H   H1149     1.0  0.88337  0.06769  0.59475  1.0000
  Fe  Fe133     1.0  0.90762  0.07464  0.55164  1.0000
  H   H1150     1.0  0.70706  0.41769  0.75986  1.0000
  C   C974      1.0  0.95702  0.24642  0.73397  1.0000
  H   H1151     1.0  0.93833  0.24908  0.74075  1.0000
  C   C975      1.0  0.78007  0.17837  0.67187  1.0000
  C   C976      1.0  0.56613  0.33220  0.65108  1.0000
  C   C977      1.0  0.97112  0.24867  0.77202  1.0000
  C   C978      1.0  0.87338  0.22382  0.76151  1.0000
  H   H1152     1.0  0.55509  0.36093  0.59024  1.0000
  H   H1153     1.0  0.98382  0.29449  0.75847  1.0000
  C   C979      1.0  0.57927  0.30472  0.78141  1.0000
  H   H1154     1.0  0.58217  0.35691  0.68555  1.0000
  H   H1155     1.0  0.80627  0.21401  0.76715  1.0000
  S   S262      1.0  0.90078  0.26111  0.77648  1.0000
  N   N65       1.0  0.76895  0.18173  0.64930  1.0000
  H   H1156     1.0  0.01476  0.23445  0.76986  1.0000
  C   C980      1.0  0.75007  0.33497  0.77000  1.0000
  H   H1157     1.0  0.95218  0.28937  0.75581  1.0000
  H   H1158     1.0  0.87843  0.09225  0.61374  1.0000
  H   H1159     1.0  0.80110  0.30074  0.76379  1.0000
  H   H1160     1.0  0.65960  0.45161  0.67082  1.0000
  H   H1161     1.0  0.69939  0.43316  0.57585  1.0000
  H   H1162     1.0  0.76840  0.40429  0.78279  1.0000
  S   S263      1.0  0.80331  0.06412  0.73908  1.0000
  C   C981      1.0  0.03457  0.29919  0.77586  1.0000
  C   C982      1.0  0.62479  0.52457  0.55481  1.0000
  H   H1163     1.0  0.79821  0.20506  0.63825  1.0000
  H   H1164     1.0  0.76689  0.17199  0.68502  1.0000
  H   H1165     1.0  0.76658  0.53647  0.76543  1.0000
  H   H1166     1.0  0.73896  0.23276  0.75934  1.0000
  H   H1167     1.0  0.03392  0.26192  0.69100  1.0000
  H   H1168     1.0  0.59595  0.34717  0.60129  1.0000
  H   H1169     1.0  0.80225  0.17389  0.63126  1.0000
  H   H1170     1.0  0.74887  0.16005  0.62637  1.0000
  C   C983      1.0  0.87462  0.08659  0.66085  1.0000
  C   C984      1.0  0.73256  0.24180  0.64408  1.0000
  C   C985      1.0  0.79168  0.22821  0.76838  1.0000
  H   H1171     1.0  0.69051  0.40463  0.60557  1.0000
  C   C986      1.0  0.67842  0.41938  0.65971  1.0000
  N   N66       1.0  0.66822  0.44955  0.59193  1.0000
  C   C987      1.0  0.67957  0.43489  0.57366  1.0000
  C   C988      1.0  0.64201  0.45056  0.58780  1.0000
  C   C989      1.0  0.67774  0.47482  0.58972  1.0000
  C   C990      1.0  0.54934  0.31981  0.68890  1.0000
  H   H1172     1.0  0.74715  0.36956  0.78551  1.0000
  H   H1173     1.0  0.95490  0.11889  0.54820  1.0000
  H   H1174     1.0  0.64680  0.40494  0.78696  1.0000
  H   H1175     1.0  0.86513  0.07459  0.75309  1.0000
  H   H1176     1.0  0.54347  0.50117  0.54091  1.0000
  H   H1177     1.0  0.70788  0.26473  0.76064  1.0000
  C   C991      1.0  0.84811  0.07608  0.69230  1.0000
  C   C992      1.0  0.54278  0.34015  0.64407  1.0000
  H   H1178     1.0  0.80044  0.24639  0.76883  1.0000
  H   H1179     1.0  0.81819  0.33488  0.78324  1.0000
  C   C993      1.0  0.73941  0.24540  0.77308  1.0000
  C   C994      1.0  0.72151  0.26368  0.77368  1.0000
  C   C995      1.0  0.85248  0.19453  0.78601  1.0000
  H   H1180     1.0  0.98315  0.25772  0.78415  1.0000
  H   H1181     1.0  0.80265  0.08222  0.78499  1.0000
  C   C996      1.0  0.62082  0.50100  0.54685  1.0000
  C   C997      1.0  0.99253  0.12771  0.54928  1.0000
  C   C998      1.0  0.01039  0.14438  0.54267  1.0000
  S   S264      1.0  0.04018  0.13873  0.55156  1.0000
  H   H1182     1.0  0.77870  0.18421  0.78768  1.0000
  C   C999      1.0  0.04053  0.23564  0.74330  1.0000
  H   H1183     1.0  0.91874  0.05162  0.64714  1.0000
  H   H1184     1.0  0.60310  0.44243  0.99071  1.0000
  H   H1185     1.0  0.69423  0.46477  0.85657  1.0000
  S   S265      1.0  0.00313  0.20161  0.00692  1.0000
  C   C1000     1.0  0.73880  0.27961  0.80742  1.0000
  H   H1186     1.0  0.60092  0.40249  0.99651  1.0000
  Fe  Fe134     1.0  0.98026  0.23576  0.00721  1.0000
  S   S266      1.0  0.98668  0.26239  0.97768  1.0000
  H   H1187     1.0  0.70234  0.36387  0.82880  1.0000
  H   H1188     1.0  0.78151  0.21987  0.82484  1.0000
  H   H1189     1.0  0.03001  0.37942  0.81333  1.0000
  Fe  Fe135     1.0  0.97019  0.18242  0.02002  1.0000
  S   S267      1.0  0.72019  0.44622  0.00261  1.0000
  H   H1190     1.0  0.77251  0.06249  0.89179  1.0000
  C   C1001     1.0  0.82041  0.37706  0.80048  1.0000
  S   S268      1.0  0.65114  0.45609  0.02455  1.0000
  H   H1191     1.0  0.94711  0.09936  0.99074  1.0000
  H   H1192     1.0  0.58408  0.40153  0.02250  1.0000
  Fe  Fe136     1.0  0.92971  0.27738  0.85728  1.0000
  S   S269      1.0  0.94825  0.31371  0.85424  1.0000
  S   S270      1.0  0.92334  0.25507  0.88956  1.0000
  Fe  Fe137     1.0  0.91531  0.27766  0.80803  1.0000
  H   H1193     1.0  0.67119  0.53406  0.00499  1.0000
  H   H1194     1.0  0.63909  0.45994  0.86066  1.0000
  Fe  Fe138     1.0  0.96313  0.29944  0.82136  1.0000
  H   H1195     1.0  0.58227  0.41817  0.96189  1.0000
  Fe  Fe139     1.0  0.91575  0.32556  0.83420  1.0000
  S   S271      1.0  0.90257  0.36487  0.83584  1.0000
  S   S272      1.0  0.94755  0.26187  0.82612  1.0000
  S   S273      1.0  0.89593  0.29032  0.83936  1.0000
  Fe  Fe140     1.0  0.78526  0.43605  0.86398  1.0000
  S   S274      1.0  0.74535  0.43242  0.86082  1.0000
  S   S275      1.0  0.80213  0.39992  0.87568  1.0000
  Fe  Fe141     1.0  0.78375  0.48922  0.84680  1.0000
  S   S276      1.0  0.74387  0.48927  0.84188  1.0000
  S   S277      1.0  0.80443  0.52414  0.83981  1.0000
  Fe  Fe142     1.0  0.74244  0.46961  0.87580  1.0000
  S   S278      1.0  0.71138  0.47968  0.89916  1.0000
  Fe  Fe143     1.0  0.75010  0.45206  0.82744  1.0000
  C   C1002     1.0  0.71684  0.41320  0.79500  1.0000
  S   S279      1.0  0.78210  0.47195  0.88205  1.0000
  S   S280      1.0  0.79034  0.45343  0.82932  1.0000
  C   C1003     1.0  0.02137  0.29282  0.79548  1.0000
  H   H1196     1.0  0.67345  0.46532  0.83385  1.0000
  S   S281      1.0  0.73183  0.44135  0.79531  1.0000
  C   C1004     1.0  0.02405  0.17190  0.95907  1.0000
  C   C1005     1.0  0.75750  0.24344  0.78984  1.0000
  C   C1006     1.0  0.87342  0.37364  0.84467  1.0000
  C   C1007     1.0  0.86689  0.39860  0.84347  1.0000
  C   C1008     1.0  0.84469  0.40676  0.85231  1.0000
  C   C1009     1.0  0.82913  0.39002  0.86281  1.0000
  C   C1010     1.0  0.83541  0.36496  0.86365  1.0000
  C   C1011     1.0  0.85739  0.35671  0.85431  1.0000
  H   H1197     1.0  0.87928  0.41177  0.83609  1.0000
  H   H1198     1.0  0.84000  0.42611  0.85170  1.0000
  H   H1199     1.0  0.82331  0.35195  0.87171  1.0000
  H   H1200     1.0  0.86216  0.33741  0.85511  1.0000
  H   H1201     1.0  0.64068  0.43693  0.88298  1.0000
  H   H1202     1.0  0.56305  0.39196  0.96330  1.0000
  S   S282      1.0  0.94647  0.21616  0.01774  1.0000
  S   S283      1.0  0.62509  0.52126  0.03272  1.0000
  H   H1203     1.0  0.72384  0.40316  0.82982  1.0000
  H   H1204     1.0  0.66103  0.46196  0.88278  1.0000
  H   H1205     1.0  0.00683  0.10396  0.96996  1.0000
  H   H1206     1.0  0.97833  0.13193  0.95124  1.0000
  H   H1207     1.0  0.73846  0.29307  0.82065  1.0000
  C   C1012     1.0  0.71551  0.39792  0.81437  1.0000
  C   C1013     1.0  0.56499  0.43920  0.99979  1.0000
  C   C1014     1.0  0.79802  0.54051  0.81438  1.0000
  H   H1208     1.0  0.64021  0.39634  0.87063  1.0000
  Fe  Fe144     1.0  0.69129  0.45726  0.02767  1.0000
  C   C1015     1.0  0.71739  0.45580  0.97396  1.0000
  C   C1016     1.0  0.73544  0.44914  0.95836  1.0000
  C   C1017     1.0  0.73378  0.45646  0.93539  1.0000
  C   C1018     1.0  0.71402  0.47049  0.92791  1.0000
  C   C1019     1.0  0.69591  0.47716  0.94349  1.0000
  C   C1020     1.0  0.69760  0.46986  0.96650  1.0000
  H   H1209     1.0  0.75077  0.43825  0.96404  1.0000
  H   H1210     1.0  0.74779  0.45121  0.92351  1.0000
  H   H1211     1.0  0.68058  0.48801  0.93777  1.0000
  H   H1212     1.0  0.68361  0.47504  0.97844  1.0000
  C   C1021     1.0  0.58719  0.45158  0.99721  1.0000
  C   C1022     1.0  0.02920  0.27309  0.80929  1.0000
  H   H1213     1.0  0.62053  0.36711  0.84650  1.0000
  N   N67       1.0  0.56312  0.41310  0.99366  1.0000
  H   H1214     1.0  0.03066  0.16426  0.03428  1.0000
  C   C1023     1.0  0.56514  0.30978  0.80071  1.0000
  C   C1024     1.0  0.96854  0.26103  0.95349  1.0000
  C   C1025     1.0  0.97557  0.27351  0.93341  1.0000
  C   C1026     1.0  0.96188  0.27189  0.91358  1.0000
  C   C1027     1.0  0.94097  0.25796  0.91390  1.0000
  C   C1028     1.0  0.93383  0.24576  0.93405  1.0000
  C   C1029     1.0  0.94758  0.24724  0.95378  1.0000
  H   H1215     1.0  0.99180  0.28422  0.93312  1.0000
  H   H1216     1.0  0.96755  0.28130  0.89809  1.0000
  H   H1217     1.0  0.91755  0.23510  0.93440  1.0000
  H   H1218     1.0  0.94192  0.23775  0.96923  1.0000
  N   N68       1.0  0.79390  0.37794  0.79740  1.0000
  H   H1219     1.0  0.85656  0.19956  0.82189  1.0000
  H   H1220     1.0  0.01920  0.26820  0.82455  1.0000
  H   H1221     1.0  0.66735  0.43408  0.80975  1.0000
  H   H1222     1.0  0.58062  0.37821  0.00197  1.0000
  H   H1223     1.0  0.80049  0.06044  0.82242  1.0000
  H   H1224     1.0  0.80316  0.23944  0.81009  1.0000
  C   C1030     1.0  0.56481  0.41130  0.96868  1.0000
  C   C1031     1.0  0.58947  0.47603  0.00332  1.0000
  C   C1032     1.0  0.69202  0.54507  0.97557  1.0000
  H   H1225     1.0  0.78689  0.36395  0.83132  1.0000
  H   H1226     1.0  0.76275  0.38208  0.81941  1.0000
  C   C1033     1.0  0.70344  0.37557  0.81372  1.0000
  C   C1034     1.0  0.93599  0.08049  0.02158  1.0000
  C   C1035     1.0  0.87611  0.22680  0.80229  1.0000
  H   H1227     1.0  0.57183  0.50778  0.01706  1.0000
  C   C1036     1.0  0.54141  0.30146  0.80269  1.0000
  S   S284      1.0  0.99699  0.31187  0.80330  1.0000
  C   C1037     1.0  0.95063  0.12234  0.01965  1.0000
  S   S285      1.0  0.83328  0.16942  0.78989  1.0000
  C   C1038     1.0  0.94491  0.10059  0.00893  1.0000
  C   C1039     1.0  0.72107  0.28063  0.79091  1.0000
  H   H1228     1.0  0.80526  0.20713  0.80812  1.0000
  C   C1040     1.0  0.01186  0.12282  0.96646  1.0000
  C   C1041     1.0  0.75688  0.26142  0.80695  1.0000
  H   H1229     1.0  0.78900  0.39669  0.82890  1.0000
  C   C1042     1.0  0.78261  0.38020  0.82017  1.0000
  H   H1230     1.0  0.02965  0.19069  0.95734  1.0000
  C   C1043     1.0  0.86121  0.20633  0.80502  1.0000
  H   H1231     1.0  0.77524  0.51291  0.80105  1.0000
  H   H1232     1.0  0.82692  0.39388  0.80867  1.0000
  C   C1044     1.0  0.67819  0.54940  0.99494  1.0000
  H   H1233     1.0  0.69592  0.52637  0.97060  1.0000
  H   H1234     1.0  0.60677  0.48490  0.00184  1.0000
  S   S286      1.0  0.96139  0.14717  0.00302  1.0000
  C   C1045     1.0  0.04006  0.15558  0.97004  1.0000
  C   C1046     1.0  0.56972  0.48902  0.01180  1.0000
  N   N69       1.0  0.98381  0.18076  0.93979  1.0000
  C   C1047     1.0  0.99304  0.20591  0.93550  1.0000
  C   C1048     1.0  0.97733  0.17081  0.91752  1.0000
  C   C1049     1.0  0.96164  0.18296  0.95387  1.0000
  C   C1050     1.0  0.00132  0.16403  0.95138  1.0000
  C   C1051     1.0  0.99569  0.13900  0.95558  1.0000
  C   C1052     1.0  0.78295  0.53083  0.79816  1.0000
  H   H1235     1.0  0.93138  0.06399  0.01308  1.0000
  C   C1053     1.0  0.58301  0.39827  0.00404  1.0000
  H   H1236     1.0  0.69821  0.44343  0.83442  1.0000
  H   H1237     1.0  0.99655  0.21531  0.95167  1.0000
  H   H1238     1.0  0.00977  0.20569  0.92499  1.0000
  H   H1239     1.0  0.97977  0.21777  0.92615  1.0000
  H   H1240     1.0  0.99367  0.16761  0.90683  1.0000
  H   H1241     1.0  0.96506  0.18359  0.90790  1.0000
  H   H1242     1.0  0.96765  0.15317  0.91931  1.0000
  H   H1243     1.0  0.96566  0.19028  0.97084  1.0000
  H   H1244     1.0  0.94801  0.19540  0.94577  1.0000
  H   H1245     1.0  0.95276  0.16503  0.95694  1.0000
  C   C1054     1.0  0.79210  0.22270  0.80888  1.0000
  H   H1246     1.0  0.70704  0.29471  0.79136  1.0000
  H   H1247     1.0  0.62404  0.37090  0.80476  1.0000
  H   H1248     1.0  0.02635  0.34426  0.84032  1.0000
  C   C1055     1.0  0.64516  0.40358  0.80530  1.0000
  N   N70       1.0  0.90472  0.34286  0.91053  1.0000
  C   C1056     1.0  0.93012  0.34897  0.90498  1.0000
  C   C1057     1.0  0.89723  0.32292  0.89568  1.0000
  C   C1058     1.0  0.88977  0.36501  0.90491  1.0000
  C   C1059     1.0  0.90242  0.33445  0.93455  1.0000
  C   C1060     1.0  0.88489  0.34428  0.94973  1.0000
  C   C1061     1.0  0.91755  0.31529  0.94326  1.0000
  C   C1062     1.0  0.88326  0.33582  0.97232  1.0000
  C   C1063     1.0  0.91588  0.30708  0.96587  1.0000
  C   C1064     1.0  0.89880  0.31735  0.98039  1.0000
  H   H1249     1.0  0.93203  0.35685  0.88739  1.0000
  H   H1250     1.0  0.93709  0.36259  0.91690  1.0000
  H   H1251     1.0  0.94230  0.33261  0.90559  1.0000
  H   H1252     1.0  0.89860  0.32856  0.87743  1.0000
  H   H1253     1.0  0.87827  0.31761  0.89925  1.0000
  H   H1254     1.0  0.90858  0.30605  0.89798  1.0000
  H   H1255     1.0  0.89393  0.38047  0.91610  1.0000
  H   H1256     1.0  0.89309  0.37182  0.88719  1.0000
  H   H1257     1.0  0.87016  0.36120  0.90605  1.0000
  H   H1258     1.0  0.87213  0.35844  0.94456  1.0000
  H   H1259     1.0  0.93070  0.30631  0.93259  1.0000
  H   H1260     1.0  0.86981  0.34357  0.98364  1.0000
  H   H1261     1.0  0.92786  0.29257  0.97214  1.0000
  H   H1262     1.0  0.89752  0.31082  0.99789  1.0000
  C   C1065     1.0  0.63227  0.38438  0.81530  1.0000
  H   H1263     1.0  0.88292  0.23574  0.81702  1.0000
  H   H1264     1.0  0.55021  0.42229  0.96028  1.0000
  N   N71       1.0  0.66911  0.43484  0.85772  1.0000
  C   C1066     1.0  0.68506  0.42028  0.87319  1.0000
  C   C1067     1.0  0.68434  0.45279  0.84499  1.0000
  C   C1068     1.0  0.65166  0.44899  0.87162  1.0000
  C   C1069     1.0  0.65606  0.41819  0.84286  1.0000
  C   C1070     1.0  0.64202  0.39891  0.85247  1.0000
  C   C1071     1.0  0.65699  0.42025  0.81874  1.0000
  C   C1072     1.0  0.63051  0.38218  0.83883  1.0000
  H   H1265     1.0  0.81931  0.05732  0.95636  1.0000
  H   H1266     1.0  0.57260  0.32036  0.81414  1.0000
  H   H1267     1.0  0.69728  0.40794  0.86347  1.0000
  H   H1268     1.0  0.69641  0.43226  0.88357  1.0000
  H   H1269     1.0  0.67491  0.40866  0.88559  1.0000
  H   H1270     1.0  0.82608  0.36140  0.81182  1.0000
  S   S287      1.0  0.93198  0.31409  0.80129  1.0000
  H   H1271     1.0  0.75179  0.19610  0.80097  1.0000
  S   S288      1.0  0.67754  0.34039  0.79343  1.0000
  C   C1073     1.0  0.69274  0.36832  0.79365  1.0000
  H   H1272     1.0  0.77007  0.26180  0.82021  1.0000
  C   C1074     1.0  0.54744  0.47775  0.01375  1.0000
  C   C1075     1.0  0.54496  0.45327  0.00774  1.0000
  H   H1273     1.0  0.99044  0.07734  0.02962  1.0000
  C   C1076     1.0  0.00158  0.06081  0.03048  1.0000
  H   H1274     1.0  0.79598  0.41711  0.79091  1.0000
  C   C1077     1.0  0.02620  0.06232  0.03433  1.0000
  H   H1275     1.0  0.80308  0.05716  0.91833  1.0000
  H   H1276     1.0  0.03427  0.08014  0.03620  1.0000
  H   H1277     1.0  0.85460  0.06441  0.79295  1.0000
  C   C1078     1.0  0.03407  0.13105  0.97351  1.0000
  C   C1079     1.0  0.04126  0.34491  0.82830  1.0000
  N   N72       1.0  0.77626  0.22385  0.78872  1.0000
  S   S289      1.0  0.92790  0.98753  0.05347  1.0000
  Fe  Fe145     1.0  0.89011  0.97341  0.05264  1.0000
  S   S290      1.0  0.87850  0.94831  0.08181  1.0000
  Fe  Fe146     1.0  0.62465  0.71341  0.05942  1.0000
  S   S291      1.0  0.63409  0.74806  0.07735  1.0000
  S   S292      1.0  0.60621  0.68238  0.07757  1.0000
  Fe  Fe147     1.0  0.84667  0.93607  0.23210  1.0000
  S   S293      1.0  0.81676  0.92587  0.25607  1.0000
  S   S294      1.0  0.88532  0.92450  0.23552  1.0000
  Fe  Fe148     1.0  0.81337  0.95908  0.19699  1.0000
  S   S295      1.0  0.78009  0.95027  0.21777  1.0000
  S   S296      1.0  0.81260  0.98259  0.16465  1.0000
  Fe  Fe149     1.0  0.80131  0.96316  0.24729  1.0000
  S   S297      1.0  0.78104  0.98613  0.27283  1.0000
  Fe  Fe150     1.0  0.79800  0.91369  0.22492  1.0000
  S   S298      1.0  0.78291  0.87561  0.22884  1.0000
  S   S299      1.0  0.83320  0.97464  0.22614  1.0000
  S   S300      1.0  0.82917  0.92120  0.20149  1.0000
  Fe  Fe151     1.0  0.66711  0.77712  0.25591  1.0000
  S   S301      1.0  0.64232  0.81011  0.25484  1.0000
  H   H1278     1.0  0.84332  0.76094  0.26808  1.0000
  Fe  Fe152     1.0  0.65739  0.76463  0.20657  1.0000
  S   S302      1.0  0.63243  0.79689  0.20165  1.0000
  S   S303      1.0  0.66800  0.73765  0.17956  1.0000
  Fe  Fe153     1.0  0.65992  0.81765  0.22094  1.0000
  S   S304      1.0  0.67325  0.85510  0.20966  1.0000
  Fe  Fe154     1.0  0.61728  0.78597  0.23607  1.0000
  S   S305      1.0  0.57704  0.77980  0.23955  1.0000
  S   S306      1.0  0.68608  0.78604  0.22317  1.0000
  S   S307      1.0  0.64088  0.75219  0.23981  1.0000
  C   C1080     1.0  0.82349  0.03876  0.21276  1.0000
  C   C1081     1.0  0.88338  0.03538  0.11955  1.0000
  C   C1082     1.0  0.60275  0.72582  0.17618  1.0000
  H   H1279     1.0  0.72695  0.95346  0.25499  1.0000
  Fe  Fe155     1.0  0.62845  0.65754  0.05594  1.0000
  H   H1280     1.0  0.79026  0.00666  0.20491  1.0000
  C   C1083     1.0  0.82426  0.76076  0.26475  1.0000
  H   H1281     1.0  0.69393  0.56041  0.13107  1.0000
  H   H1282     1.0  0.72050  0.92547  0.24136  1.0000
  H   H1283     1.0  0.94312  0.02973  0.12969  1.0000
  H   H1284     1.0  0.70043  0.73572  0.25268  1.0000
  C   C1084     1.0  0.65488  0.57536  0.06815  1.0000
  H   H1285     1.0  0.55296  0.69170  0.10658  1.0000
  H   H1286     1.0  0.82617  0.79639  0.24803  1.0000
  H   H1287     1.0  0.02505  0.77556  0.25634  1.0000
  C   C1085     1.0  0.89441  0.91473  0.26268  1.0000
  H   H1288     1.0  0.68956  0.89960  0.25343  1.0000
  H   H1289     1.0  0.03513  0.83016  0.22772  1.0000
  H   H1290     1.0  0.56261  0.57704  0.05446  1.0000
  H   H1291     1.0  0.94039  0.99214  0.14596  1.0000
  H   H1292     1.0  0.59702  0.74636  0.20643  1.0000
  H   H1293     1.0  0.76741  0.56605  0.26287  1.0000
  C   C1086     1.0  0.75228  0.87081  0.22373  1.0000
  C   C1087     1.0  0.73811  0.88816  0.21190  1.0000
  C   C1088     1.0  0.71382  0.88323  0.20760  1.0000
  C   C1089     1.0  0.70360  0.86116  0.21542  1.0000
  C   C1090     1.0  0.71774  0.84419  0.22771  1.0000
  C   C1091     1.0  0.74206  0.84882  0.23152  1.0000
  H   H1294     1.0  0.74596  0.90508  0.20561  1.0000
  H   H1295     1.0  0.70297  0.89645  0.19807  1.0000
  H   H1296     1.0  0.70993  0.82762  0.23459  1.0000
  H   H1297     1.0  0.75292  0.83531  0.24059  1.0000
  C   C1092     1.0  0.83208  0.03650  0.28515  1.0000
  C   C1093     1.0  0.56706  0.80637  0.27817  1.0000
  Fe  Fe156     1.0  0.91094  0.02338  0.04228  1.0000
  C   C1094     1.0  0.03180  0.85496  0.13843  1.0000
  C   C1095     1.0  0.64251  0.74468  0.10603  1.0000
  C   C1096     1.0  0.63899  0.76433  0.12068  1.0000
  C   C1097     1.0  0.64565  0.76204  0.14359  1.0000
  C   C1098     1.0  0.65662  0.74033  0.15176  1.0000
  C   C1099     1.0  0.65995  0.72065  0.13713  1.0000
  C   C1100     1.0  0.65257  0.72266  0.11443  1.0000
  H   H1298     1.0  0.63092  0.78131  0.11433  1.0000
  H   H1299     1.0  0.64268  0.77722  0.15475  1.0000
  H   H1300     1.0  0.66840  0.70380  0.14335  1.0000
  H   H1301     1.0  0.65527  0.70737  0.10328  1.0000
  S   S308      1.0  0.87292  0.00984  0.04347  1.0000
  N   N73       1.0  0.79740  0.04477  0.21082  1.0000
  H   H1302     1.0  0.77235  0.72835  0.27079  1.0000
  C   C1101     1.0  0.85964  0.95814  0.10433  1.0000
  C   C1102     1.0  0.84567  0.97970  0.10269  1.0000
  C   C1103     1.0  0.83099  0.98686  0.12112  1.0000
  C   C1104     1.0  0.83035  0.97265  0.14135  1.0000
  C   C1105     1.0  0.84442  0.95120  0.14293  1.0000
  C   C1106     1.0  0.85886  0.94393  0.12449  1.0000
  H   H1303     1.0  0.84594  0.99067  0.08715  1.0000
  H   H1304     1.0  0.82010  0.00343  0.11968  1.0000
  H   H1305     1.0  0.84435  0.94018  0.15837  1.0000
  H   H1306     1.0  0.86966  0.92728  0.12593  1.0000
  H   H1307     1.0  0.82204  0.67966  0.27876  1.0000
  N   N74       1.0  0.90554  0.02105  0.12541  1.0000
  C   C1107     1.0  0.68692  0.86564  0.27115  1.0000
  H   H1308     1.0  0.75604  0.76471  0.25134  1.0000
  C   C1108     1.0  0.03180  0.79061  0.26587  1.0000
  C   C1109     1.0  0.90309  0.00544  0.14622  1.0000
  C   C1110     1.0  0.92311  0.99149  0.15450  1.0000
  C   C1111     1.0  0.88089  0.00258  0.15813  1.0000
  C   C1112     1.0  0.92101  0.97578  0.17355  1.0000
  C   C1113     1.0  0.87901  0.98670  0.17705  1.0000
  C   C1114     1.0  0.89897  0.97335  0.18477  1.0000
  H   H1309     1.0  0.87779  0.04768  0.13348  1.0000
  H   H1310     1.0  0.89768  0.99081  0.10421  1.0000
  H   H1311     1.0  0.03688  0.79915  0.18419  1.0000
  H   H1312     1.0  0.69827  0.93975  0.25965  1.0000
  S   S309      1.0  0.64956  0.68847  0.04033  1.0000
  H   H1313     1.0  0.79968  0.03851  0.17482  1.0000
  C   C1115     1.0  0.81546  0.69679  0.26994  1.0000
  C   C1116     1.0  0.55879  0.78989  0.26234  1.0000
  S   S310      1.0  0.54234  0.68237  0.06095  1.0000
  H   H1314     1.0  0.86824  0.02315  0.11563  1.0000
  H   H1315     1.0  0.54317  0.75660  0.15616  1.0000
  H   H1316     1.0  0.93640  0.96502  0.17943  1.0000
  H   H1317     1.0  0.86173  0.98414  0.18534  1.0000
  H   H1318     1.0  0.89724  0.96075  0.19925  1.0000
  C   C1117     1.0  0.56876  0.75292  0.18229  1.0000
  H   H1319     1.0  0.82796  0.03162  0.23012  1.0000
  H   H1320     1.0  0.84837  0.84196  0.25513  1.0000
  H   H1321     1.0  0.59836  0.72312  0.10812  1.0000
  C   C1118     1.0  0.81462  0.78136  0.25316  1.0000
  H   H1322     1.0  0.86448  0.01177  0.15282  1.0000
  H   H1323     1.0  0.79620  0.69371  0.26618  1.0000
  C   C1119     1.0  0.57218  0.73080  0.14656  1.0000
  C   C1120     1.0  0.55976  0.74745  0.16096  1.0000
  H   H1324     1.0  0.71773  0.55795  0.16566  1.0000
  H   H1325     1.0  0.57432  0.72853  0.08883  1.0000
  C   C1121     1.0  0.58061  0.73247  0.10624  1.0000
  S   S311      1.0  0.64863  0.62497  0.07101  1.0000
  H   H1326     1.0  0.01593  0.85331  0.12808  1.0000
  H   H1327     1.0  0.54892  0.69012  0.13688  1.0000
  C   C1122     1.0  0.56077  0.69723  0.12295  1.0000
  H   H1328     1.0  0.03335  0.85901  0.21244  1.0000
  C   C1123     1.0  0.64034  0.59575  0.06230  1.0000
  C   C1124     1.0  0.91140  0.00523  0.10604  1.0000
  C   C1125     1.0  0.62038  0.59274  0.04851  1.0000
  C   C1126     1.0  0.77516  0.76362  0.25495  1.0000
  C   C1127     1.0  0.03301  0.84308  0.15974  1.0000
  H   H1329     1.0  0.60880  0.60819  0.04432  1.0000
  H   H1330     1.0  0.91199  0.01607  0.08984  1.0000
  N   N75       1.0  0.71531  0.79749  0.15633  1.0000
  C   C1128     1.0  0.70884  0.78244  0.13671  1.0000
  C   C1129     1.0  0.72582  0.78056  0.17384  1.0000
  C   C1130     1.0  0.69276  0.80845  0.16553  1.0000
  C   C1131     1.0  0.73245  0.81727  0.15047  1.0000
  C   C1132     1.0  0.74034  0.82259  0.12784  1.0000
  C   C1133     1.0  0.74154  0.83220  0.16768  1.0000
  C   C1134     1.0  0.75666  0.84138  0.12303  1.0000
  C   C1135     1.0  0.75791  0.85084  0.16270  1.0000
  C   C1136     1.0  0.76547  0.85541  0.14042  1.0000
  H   H1331     1.0  0.72503  0.77376  0.12882  1.0000
  H   H1332     1.0  0.69683  0.76711  0.14196  1.0000
  H   H1333     1.0  0.69881  0.79341  0.12361  1.0000
  H   H1334     1.0  0.74339  0.77278  0.16802  1.0000
  H   H1335     1.0  0.71371  0.76488  0.17795  1.0000
  H   H1336     1.0  0.72874  0.78965  0.19019  1.0000
  H   H1337     1.0  0.67937  0.79414  0.17013  1.0000
  H   H1338     1.0  0.69584  0.81887  0.18115  1.0000
  H   H1339     1.0  0.68426  0.82147  0.15304  1.0000
  H   H1340     1.0  0.73412  0.81258  0.11355  1.0000
  H   H1341     1.0  0.73590  0.82971  0.18516  1.0000
  H   H1342     1.0  0.76248  0.84516  0.10568  1.0000
  H   H1343     1.0  0.76470  0.86190  0.17619  1.0000
  H   H1344     1.0  0.77809  0.86997  0.13663  1.0000
  H   H1345     1.0  0.55925  0.76576  0.19313  1.0000
  H   H1346     1.0  0.61954  0.71764  0.18212  1.0000
  H   H1347     1.0  0.72628  0.69814  0.25322  1.0000
  H   H1348     1.0  0.86222  0.87036  0.26200  1.0000
  N   N76       1.0  0.56321  0.72426  0.12398  1.0000
  C   C1137     1.0  0.03399  0.83877  0.21038  1.0000
  H   H1349     1.0  0.92912  0.99570  0.10777  1.0000
  H   H1350     1.0  0.67029  0.57757  0.07891  1.0000
  H   H1351     1.0  0.58526  0.81305  0.27680  1.0000
  H   H1352     1.0  0.75961  0.83898  0.28054  1.0000
  C   C1138     1.0  0.78404  0.02191  0.21585  1.0000
  H   H1353     1.0  0.01646  0.83316  0.20352  1.0000
  C   C1139     1.0  0.59414  0.72043  0.15474  1.0000
  H   H1354     1.0  0.67240  0.85972  0.26051  1.0000
  H   H1355     1.0  0.60500  0.70822  0.14454  1.0000
  C   C1140     1.0  0.91196  0.89614  0.26479  1.0000
  H   H1356     1.0  0.57836  0.68733  0.12420  1.0000
  H   H1357     1.0  0.85628  0.72091  0.27386  1.0000
  H   H1358     1.0  0.91963  0.88797  0.24975  1.0000
  C   C1141     1.0  0.79595  0.01236  0.28224  1.0000
  C   C1142     1.0  0.77156  0.55564  0.27824  1.0000
  H   H1359     1.0  0.76440  0.02413  0.21310  1.0000
  C   C1143     1.0  0.55195  0.56077  0.05685  1.0000
  H   H1360     1.0  0.79551  0.86371  0.27523  1.0000
  H   H1361     1.0  0.01777  0.83231  0.16521  1.0000
  H   H1362     1.0  0.78277  0.79890  0.23953  1.0000
  H   H1363     1.0  0.83078  0.86969  0.25694  1.0000
  H   H1364     1.0  0.78652  0.01582  0.23381  1.0000
  C   C1144     1.0  0.99198  0.91998  0.04404  1.0000
  H   H1365     1.0  0.58387  0.75254  0.10698  1.0000
  C   C1145     1.0  0.84585  0.85903  0.26486  1.0000
  C   C1146     1.0  0.80944  0.74082  0.27170  1.0000
  C   C1147     1.0  0.79015  0.78281  0.24832  1.0000
  Fe  Fe157     1.0  0.58072  0.68406  0.04836  1.0000
  C   C1148     1.0  0.70930  0.72979  0.26816  1.0000
  H   H1366     1.0  0.82516  0.69864  0.25339  1.0000
  H   H1367     1.0  0.02941  0.98261  0.06609  1.0000
  H   H1368     1.0  0.75755  0.90642  0.25847  1.0000
  C   C1149     1.0  0.71780  0.93550  0.25742  1.0000
  C   C1150     1.0  0.72387  0.70850  0.26851  1.0000
  C   C1151     1.0  0.03342  0.97555  0.04891  1.0000
  H   H1369     1.0  0.83062  0.00164  0.26885  1.0000
  H   H1370     1.0  0.82920  0.02421  0.20078  1.0000
  C   C1152     1.0  0.78465  0.74288  0.26629  1.0000
  C   C1153     1.0  0.59013  0.74205  0.18990  1.0000
  C   C1154     1.0  0.69707  0.88872  0.26727  1.0000
  H   H1371     1.0  0.95871  0.94070  0.04063  1.0000
  S   S312      1.0  0.03475  0.89502  0.04893  1.0000
  N   N77       1.0  0.81884  0.71865  0.28394  1.0000
  H   H1372     1.0  0.98736  0.91245  0.06067  1.0000
  S   S313      1.0  0.98622  0.79321  0.28452  1.0000
  C   C1155     1.0  0.92521  0.03885  0.12791  1.0000
  H   H1373     1.0  0.88609  0.04721  0.10400  1.0000
  C   C1156     1.0  0.64991  0.55219  0.05965  1.0000
  C   C1157     1.0  0.82045  0.01554  0.27770  1.0000
  H   H1374     1.0  0.72051  0.55960  0.20366  1.0000
  C   C1158     1.0  0.88473  0.92546  0.28212  1.0000
  H   H1375     1.0  0.87137  0.94005  0.28052  1.0000
  H   H1376     1.0  0.85111  0.03870  0.28172  1.0000
  C   C1159     1.0  0.71639  0.89683  0.28066  1.0000
  C   C1160     1.0  0.01649  0.80251  0.28141  1.0000
  H   H1377     1.0  0.76263  0.93612  0.26975  1.0000
  N   N78       1.0  0.72756  0.92119  0.27716  1.0000
  C   C1161     1.0  0.75385  0.91816  0.27326  1.0000
  H   H1378     1.0  0.01634  0.96914  0.04174  1.0000
  C   C1162     1.0  0.61566  0.56970  0.03967  1.0000
  C   C1163     1.0  0.91964  0.88799  0.28629  1.0000
  C   C1164     1.0  0.77666  0.83223  0.28718  1.0000
  C   C1165     1.0  0.79737  0.84622  0.28415  1.0000
  H   H1379     1.0  0.93327  0.87367  0.28776  1.0000
  H   H1380     1.0  0.92203  0.05035  0.14299  1.0000
  H   H1381     1.0  0.76328  0.90977  0.28808  1.0000
  H   H1382     1.0  0.92678  0.05136  0.11267  1.0000
  S   S314      1.0  0.75451  0.67463  0.28809  1.0000
  S   S315      1.0  0.68857  0.77034  0.28771  1.0000
  C   C1166     1.0  0.70626  0.74333  0.28784  1.0000
  C   C1167     1.0  0.69573  0.84987  0.28816  1.0000
  C   C1168     1.0  0.73517  0.70048  0.28858  1.0000
  H   H1383     1.0  0.90418  0.03656  0.49529  1.0000
  Fe  Fe158     1.0  0.97214  0.92772  0.51834  1.0000
  S   S316      1.0  0.98914  0.89994  0.49570  1.0000
  C   C1169     1.0  0.95678  0.93012  0.44775  1.0000
  Fe  Fe159     1.0  0.96116  0.87464  0.50996  1.0000
  S   S317      1.0  0.93582  0.85549  0.48672  1.0000
  C   C1170     1.0  0.84483  0.71981  0.28944  1.0000
  H   H1384     1.0  0.69459  0.71261  0.45747  1.0000
  H   H1385     1.0  0.61879  0.63760  0.48743  1.0000
  H   H1386     1.0  0.62977  0.61648  0.53457  1.0000
  S   S318      1.0  0.68709  0.61547  0.51713  1.0000
  C   C1171     1.0  0.82061  0.81463  0.30397  1.0000
  C   C1172     1.0  0.96197  0.91714  0.40834  1.0000
  Fe  Fe160     1.0  0.72484  0.62433  0.52686  1.0000
  S   S319      1.0  0.75295  0.64228  0.50424  1.0000
  C   C1173     1.0  0.79975  0.80080  0.30697  1.0000
  Fe  Fe161     1.0  0.76089  0.65105  0.37220  1.0000
  S   S320      1.0  0.79563  0.62990  0.37587  1.0000
  S   S321      1.0  0.73186  0.65368  0.39925  1.0000
  Fe  Fe162     1.0  0.76844  0.65988  0.32161  1.0000
  S   S322      1.0  0.80360  0.63895  0.32111  1.0000
  H   H1387     1.0  0.92273  0.01163  0.48526  1.0000
  Fe  Fe163     1.0  0.78501  0.61143  0.34389  1.0000
  S   S323      1.0  0.78751  0.56986  0.34373  1.0000
  Fe  Fe164     1.0  0.81119  0.65931  0.35283  1.0000
  S   S324      1.0  0.84920  0.67267  0.35736  1.0000
  S   S325      1.0  0.74923  0.63065  0.34172  1.0000
  S   S326      1.0  0.77719  0.68227  0.35183  1.0000
  Fe  Fe165     1.0  0.93315  0.84955  0.33227  1.0000
  S   S327      1.0  0.92531  0.82217  0.30579  1.0000
  S   S328      1.0  0.91954  0.88855  0.33269  1.0000
  Fe  Fe166     1.0  0.95554  0.81145  0.36404  1.0000
  S   S329      1.0  0.94934  0.78045  0.34043  1.0000
  S   S330      1.0  0.97490  0.80605  0.39725  1.0000
  Fe  Fe167     1.0  0.96250  0.80709  0.31325  1.0000
  H   H1388     1.0  0.74063  0.70793  0.32381  1.0000
  Fe  Fe168     1.0  0.91294  0.79804  0.33488  1.0000
  S   S331      1.0  0.87510  0.78338  0.33474  1.0000
  S   S332      1.0  0.97133  0.83681  0.33743  1.0000
  S   S333      1.0  0.91817  0.82665  0.36082  1.0000
  H   H1389     1.0  0.78619  0.71102  0.30314  1.0000
  C   C1174     1.0  0.95951  0.95455  0.44098  1.0000
  C   C1175     1.0  0.78307  0.56427  0.40881  1.0000
  C   C1176     1.0  0.70210  0.70234  0.47242  1.0000
  C   C1177     1.0  0.85637  0.70363  0.35202  1.0000
  C   C1178     1.0  0.88033  0.70986  0.34716  1.0000
  C   C1179     1.0  0.88647  0.73435  0.34220  1.0000
  C   C1180     1.0  0.86865  0.75273  0.34228  1.0000
  C   C1181     1.0  0.84478  0.74657  0.34755  1.0000
  C   C1182     1.0  0.83867  0.72210  0.35251  1.0000
  H   H1390     1.0  0.89409  0.69559  0.34678  1.0000
  H   H1391     1.0  0.90486  0.73889  0.33780  1.0000
  H   H1392     1.0  0.83096  0.76076  0.34779  1.0000
  H   H1393     1.0  0.82028  0.71751  0.35679  1.0000
  H   H1394     1.0  0.72822  0.56405  0.49823  1.0000
  C   C1183     1.0  0.77783  0.80955  0.29856  1.0000
  S   S334      1.0  0.54488  0.63511  0.51946  1.0000
  C   C1184     1.0  0.95934  0.98752  0.52363  1.0000
  C   C1185     1.0  0.90412  0.01944  0.48537  1.0000
  H   H1395     1.0  0.76417  0.02807  0.29781  1.0000
  C   C1186     1.0  0.89298  0.91782  0.30365  1.0000
  H   H1396     1.0  0.62532  0.62743  0.44721  1.0000
  C   C1187     1.0  0.66733  0.67440  0.47600  1.0000
  C   C1188     1.0  0.89672  0.93400  0.45866  1.0000
  C   C1189     1.0  0.83764  0.87667  0.30131  1.0000
  C   C1190     1.0  0.90239  0.93452  0.48157  1.0000
  H   H1397     1.0  0.71536  0.74586  0.32310  1.0000
  H   H1398     1.0  0.88578  0.92638  0.31868  1.0000
  H   H1399     1.0  0.64469  0.66652  0.50580  1.0000
  C   C1191     1.0  0.88810  0.95518  0.44756  1.0000
  C   C1192     1.0  0.74780  0.64373  0.47479  1.0000
  C   C1193     1.0  0.72637  0.63532  0.46583  1.0000
  C   C1194     1.0  0.72204  0.63791  0.44251  1.0000
  C   C1195     1.0  0.73913  0.64872  0.42795  1.0000
  C   C1196     1.0  0.76103  0.65621  0.43667  1.0000
  C   C1197     1.0  0.76526  0.65389  0.46011  1.0000
  H   H1400     1.0  0.71304  0.62689  0.47677  1.0000
  H   H1401     1.0  0.70535  0.63150  0.43572  1.0000
  H   H1402     1.0  0.77435  0.66450  0.42547  1.0000
  H   H1403     1.0  0.78197  0.66026  0.46691  1.0000
  C   C1198     1.0  0.95794  0.01230  0.51693  1.0000
  H   H1404     1.0  0.85366  0.88859  0.29984  1.0000
  H   H1405     1.0  0.79310  0.57940  0.41645  1.0000
  H   H1406     1.0  0.98626  0.91522  0.36685  1.0000
  C   C1199     1.0  0.72461  0.88047  0.29818  1.0000
  Fe  Fe169     1.0  0.69354  0.58021  0.53688  1.0000
  C   C1200     1.0  0.75040  0.59260  0.40046  1.0000
  H   H1407     1.0  0.85826  0.01713  0.47403  1.0000
  C   C1201     1.0  0.94729  0.84317  0.46146  1.0000
  C   C1202     1.0  0.97167  0.83703  0.45896  1.0000
  C   C1203     1.0  0.97994  0.82559  0.43918  1.0000
  C   C1204     1.0  0.96404  0.82098  0.42153  1.0000
  C   C1205     1.0  0.93978  0.82775  0.42379  1.0000
  C   C1206     1.0  0.93140  0.83855  0.44382  1.0000
  H   H1408     1.0  0.98402  0.84043  0.47255  1.0000
  H   H1409     1.0  0.99873  0.82031  0.43755  1.0000
  H   H1410     1.0  0.92732  0.82412  0.41045  1.0000
  H   H1411     1.0  0.91248  0.84311  0.44577  1.0000
  C   C1207     1.0  0.93999  0.88444  0.39154  1.0000
  H   H1412     1.0  0.87856  0.98547  0.52795  1.0000
  H   H1413     1.0  0.93504  0.87639  0.40840  1.0000
  H   H1414     1.0  0.55093  0.77700  0.33655  1.0000
  H   H1415     1.0  0.96375  0.01797  0.50004  1.0000
  H   H1416     1.0  0.68136  0.67391  0.52044  1.0000
  H   H1417     1.0  0.57187  0.72678  0.34201  1.0000
  S   S335      1.0  0.96708  0.96574  0.50346  1.0000
  H   H1418     1.0  0.82233  0.88764  0.29427  1.0000
  H   H1419     1.0  0.55790  0.82770  0.30749  1.0000
  C   C1208     1.0  0.78314  0.03036  0.29426  1.0000
  C   C1209     1.0  0.02506  0.02970  0.53441  1.0000
  H   H1420     1.0  0.89978  0.02516  0.46762  1.0000
  C   C1210     1.0  0.89000  0.97799  0.48291  1.0000
  H   H1421     1.0  0.77254  0.59500  0.44571  1.0000
  C   C1211     1.0  0.80546  0.71509  0.30566  1.0000
  H   H1422     1.0  0.83403  0.87321  0.31972  1.0000
  H   H1423     1.0  0.70524  0.66383  0.50206  1.0000
  H   H1424     1.0  0.72563  0.55254  0.39442  1.0000
  C   C1212     1.0  0.88484  0.97690  0.45943  1.0000
  C   C1213     1.0  0.73205  0.71398  0.30826  1.0000
  C   C1214     1.0  0.89927  0.95615  0.49360  1.0000
  H   H1425     1.0  0.68435  0.67611  0.44206  1.0000
  H   H1426     1.0  0.57742  0.75036  0.36195  1.0000
  H   H1427     1.0  0.00033  0.88816  0.39916  1.0000
  N   N79       1.0  0.68274  0.69218  0.48735  1.0000
  C   C1215     1.0  0.57315  0.64148  0.53085  1.0000
  H   H1428     1.0  0.76044  0.59210  0.48557  1.0000
  C   C1216     1.0  0.67036  0.66838  0.45278  1.0000
  H   H1429     1.0  0.95565  0.89295  0.43801  1.0000
  H   H1430     1.0  0.96970  0.89022  0.35623  1.0000
  H   H1431     1.0  0.87986  0.85383  0.29566  1.0000
  C   C1217     1.0  0.66766  0.71302  0.49530  1.0000
  H   H1432     1.0  0.94045  0.86912  0.37945  1.0000
  N   N80       1.0  0.88683  0.00139  0.49492  1.0000
  H   H1433     1.0  0.75508  0.59405  0.38205  1.0000
  N   N81       1.0  0.75655  0.56804  0.41023  1.0000
  C   C1218     1.0  0.77606  0.56808  0.29832  1.0000
  H   H1434     1.0  0.90467  0.95528  0.51115  1.0000
  H   H1435     1.0  0.80065  0.78311  0.31580  1.0000
  H   H1436     1.0  0.76017  0.60739  0.40886  1.0000
  H   H1437     1.0  0.77536  0.58793  0.29833  1.0000
  H   H1438     1.0  0.90973  0.99308  0.52338  1.0000
  C   C1219     1.0  0.96439  0.94234  0.40194  1.0000
  H   H1439     1.0  0.87853  0.99298  0.45002  1.0000
  N   N82       1.0  0.92229  0.75003  0.40697  1.0000
  C   C1220     1.0  0.94457  0.74035  0.39597  1.0000
  C   C1221     1.0  0.90485  0.72969  0.40863  1.0000
  C   C1222     1.0  0.91235  0.76970  0.39185  1.0000
  C   C1223     1.0  0.92633  0.76016  0.42968  1.0000
  C   C1224     1.0  0.90662  0.76935  0.44266  1.0000
  C   C1225     1.0  0.94965  0.76245  0.43904  1.0000
  C   C1226     1.0  0.91007  0.78029  0.46355  1.0000
  C   C1227     1.0  0.95284  0.77331  0.46001  1.0000
  C   C1228     1.0  0.93314  0.78234  0.47216  1.0000
  H   H1440     1.0  0.95792  0.75512  0.39269  1.0000
  H   H1441     1.0  0.95316  0.72550  0.40652  1.0000
  H   H1442     1.0  0.94087  0.73254  0.37910  1.0000
  H   H1443     1.0  0.91105  0.71514  0.42091  1.0000
  H   H1444     1.0  0.90234  0.72097  0.39194  1.0000
  H   H1445     1.0  0.88662  0.73595  0.41409  1.0000
  H   H1446     1.0  0.92483  0.78542  0.39083  1.0000
  H   H1447     1.0  0.90973  0.76330  0.37431  1.0000
  H   H1448     1.0  0.89456  0.77678  0.39776  1.0000
  H   H1449     1.0  0.88844  0.76876  0.43645  1.0000
  H   H1450     1.0  0.96586  0.75691  0.43016  1.0000
  H   H1451     1.0  0.89487  0.78785  0.47289  1.0000
  H   H1452     1.0  0.97084  0.77568  0.46645  1.0000
  H   H1453     1.0  0.93585  0.79166  0.48796  1.0000
  C   C1229     1.0  0.65537  0.65157  0.44264  1.0000
  C   C1230     1.0  0.96868  0.90578  0.36813  1.0000
  H   H1454     1.0  0.92515  0.89719  0.38614  1.0000
  C   C1231     1.0  0.63689  0.64047  0.45511  1.0000
  H   H1455     1.0  0.65754  0.72183  0.48098  1.0000
  H   H1456     1.0  0.86281  0.83811  0.31708  1.0000
  H   H1457     1.0  0.94679  0.04864  0.52627  1.0000
  H   H1458     1.0  0.90957  0.91808  0.49003  1.0000
  H   H1459     1.0  0.95395  0.92551  0.46559  1.0000
  C   C1232     1.0  0.64824  0.66281  0.48814  1.0000
  H   H1460     1.0  0.95890  0.96871  0.45358  1.0000
  H   H1461     1.0  0.88407  0.95481  0.42962  1.0000
  C   C1233     1.0  0.89095  0.99892  0.51973  1.0000
  C   C1234     1.0  0.94820  0.02964  0.53169  1.0000
  H   H1462     1.0  0.72106  0.84502  0.31510  1.0000
  H   H1463     1.0  0.73895  0.88546  0.30927  1.0000
  H   H1464     1.0  0.95420  0.91823  0.36138  1.0000
  N   N83       1.0  0.96333  0.89718  0.39177  1.0000
  H   H1465     1.0  0.85878  0.02817  0.50189  1.0000
  C   C1235     1.0  0.86199  0.01133  0.49188  1.0000
  C   C1236     1.0  0.71776  0.73547  0.30784  1.0000
  C   C1237     1.0  0.82005  0.83786  0.29239  1.0000
  H   H1466     1.0  0.71444  0.68755  0.46626  1.0000
  C   C1238     1.0  0.02544  0.82181  0.29380  1.0000
  H   H1467     1.0  0.76175  0.79863  0.30071  1.0000
  H   H1468     1.0  0.84836  0.99759  0.49729  1.0000
  H   H1469     1.0  0.70704  0.69260  0.51575  1.0000
  C   C1239     1.0  0.95788  0.91164  0.43177  1.0000
  C   C1240     1.0  0.91024  0.89888  0.30573  1.0000
  H   H1470     1.0  0.71360  0.71533  0.48151  1.0000
  C   C1241     1.0  0.72361  0.93606  0.29762  1.0000
  H   H1471     1.0  0.00598  0.02589  0.53380  1.0000
  H   H1472     1.0  0.58927  0.60755  0.51978  1.0000
  H   H1473     1.0  0.73210  0.92752  0.31293  1.0000
  H   H1474     1.0  0.65824  0.64704  0.42498  1.0000
  S   S336      1.0  0.94265  0.90336  0.53092  1.0000
  C   C1242     1.0  0.69451  0.68014  0.50726  1.0000
  C   C1243     1.0  0.59220  0.62452  0.52837  1.0000
  H   H1475     1.0  0.65421  0.70714  0.50842  1.0000
  C   C1244     1.0  0.63328  0.64615  0.47779  1.0000
  H   H1476     1.0  0.01386  0.83119  0.30571  1.0000
  C   C1245     1.0  0.86403  0.84175  0.29842  1.0000
  Fe  Fe170     1.0  0.01077  0.88884  0.52624  1.0000
  H   H1477     1.0  0.96539  0.97975  0.41298  1.0000
  H   H1478     1.0  0.67870  0.72731  0.50316  1.0000
  H   H1479     1.0  0.81287  0.69927  0.31586  1.0000
  H   H1480     1.0  0.98413  0.86390  0.38624  1.0000
  C   C1246     1.0  0.98251  0.87922  0.39838  1.0000
  H   H1481     1.0  0.83692  0.80672  0.31095  1.0000
  C   C1247     1.0  0.75902  0.58176  0.45054  1.0000
  H   H1482     1.0  0.97907  0.87040  0.41524  1.0000
  C   C1248     1.0  0.96321  0.96067  0.41813  1.0000
  H   H1483     1.0  0.80618  0.73172  0.31612  1.0000
  C   C1249     1.0  0.78153  0.55483  0.31826  1.0000
  H   H1484     1.0  0.96734  0.94838  0.38456  1.0000
  H   H1485     1.0  0.89941  0.91720  0.44945  1.0000
  H   H1486     1.0  0.85107  0.70317  0.29928  1.0000
  H   H1487     1.0  0.73082  0.59690  0.40228  1.0000
  C   C1250     1.0  0.74842  0.56667  0.43424  1.0000
  H   H1488     1.0  0.54971  0.57802  0.52766  1.0000
  H   H1489     1.0  0.78961  0.56370  0.39091  1.0000
  H   H1490     1.0  0.03572  0.99163  0.53463  1.0000
  C   C1251     1.0  0.75205  0.58045  0.47340  1.0000
  H   H1491     1.0  0.56686  0.72083  0.37156  1.0000
  H   H1492     1.0  0.73152  0.95469  0.29541  1.0000
  H   H1493     1.0  0.68801  0.83180  0.29075  1.0000
  H   H1494     1.0  0.70404  0.93846  0.30140  1.0000
  C   C1252     1.0  0.56510  0.73519  0.35794  1.0000
  C   C1253     1.0  0.55152  0.81469  0.29549  1.0000
  C   C1254     1.0  0.79481  0.05142  0.30171  1.0000
  C   C1255     1.0  0.61512  0.62956  0.53674  1.0000
  C   C1256     1.0  0.73384  0.56475  0.48057  1.0000
  H   H1495     1.0  0.84862  0.73578  0.30015  1.0000
  H   H1496     1.0  0.54534  0.75117  0.31945  1.0000
  C   C1257     1.0  0.71445  0.85733  0.30175  1.0000
  H   H1497     1.0  0.88828  0.01669  0.52841  1.0000
  H   H1498     1.0  0.86846  0.82417  0.29001  1.0000
  N   N84       1.0  0.84160  0.85334  0.28935  1.0000
  Fe  Fe171     1.0  0.96802  0.89101  0.55861  1.0000
  S   S337      1.0  0.95667  0.89120  0.59576  1.0000
  H   H1499     1.0  0.89024  0.65112  0.72990  1.0000
  Fe  Fe172     1.0  0.97252  0.82641  0.75615  1.0000
  S   S338      1.0  0.96520  0.85075  0.72553  1.0000
  C   C1258     1.0  0.83234  0.84003  0.77512  1.0000
  Fe  Fe173     1.0  0.92991  0.79327  0.74653  1.0000
  S   S339      1.0  0.91988  0.81458  0.71481  1.0000
  S   S340      1.0  0.90572  0.76539  0.76431  1.0000
  Fe  Fe174     1.0  0.95974  0.81568  0.70755  1.0000
  S   S341      1.0  0.97822  0.81064  0.67344  1.0000
  Fe  Fe175     1.0  0.92628  0.84789  0.73537  1.0000
  S   S342      1.0  0.89856  0.87859  0.73451  1.0000
  S   S343      1.0  0.96952  0.79111  0.73768  1.0000
  S   S344      1.0  0.93391  0.82676  0.76753  1.0000
  Fe  Fe176     1.0  0.77506  0.67424  0.76413  1.0000
  S   S345      1.0  0.80825  0.65007  0.76370  1.0000
  H   H1500     1.0  0.72584  0.60283  0.77519  1.0000
  Fe  Fe177     1.0  0.76378  0.66589  0.71461  1.0000
  S   S346      1.0  0.79572  0.64088  0.71036  1.0000
  S   S347      1.0  0.74035  0.67669  0.68488  1.0000
  Fe  Fe178     1.0  0.78520  0.62464  0.74436  1.0000
  S   S348      1.0  0.78104  0.58367  0.74863  1.0000
  Fe  Fe179     1.0  0.81552  0.66885  0.72987  1.0000
  S   S349      1.0  0.85072  0.68160  0.71445  1.0000
  S   S350      1.0  0.75146  0.64755  0.74703  1.0000
  S   S351      1.0  0.78424  0.69507  0.73195  1.0000
  Fe  Fe180     1.0  0.71779  0.60532  0.57578  1.0000
  S   S352      1.0  0.73451  0.59635  0.60973  1.0000
  H   H1501     1.0  0.83111  0.59523  0.72676  1.0000
  S   S353      1.0  0.67959  0.59459  0.56994  1.0000
  H   H1502     1.0  0.62435  0.64743  0.60664  1.0000
  N   N85       1.0  0.65593  0.64070  0.62717  1.0000
  H   H1503     1.0  0.64262  0.62246  0.59780  1.0000
  H   H1504     1.0  0.62445  0.61858  0.62281  1.0000
  C   C1259     1.0  0.88785  0.96775  0.77889  1.0000
  C   C1260     1.0  0.90308  0.64514  0.74331  1.0000
  C   C1261     1.0  0.73907  0.65440  0.66395  1.0000
  C   C1262     1.0  0.73257  0.66136  0.64177  1.0000
  C   C1263     1.0  0.73149  0.64375  0.62485  1.0000
  C   C1264     1.0  0.73671  0.61910  0.63013  1.0000
  C   C1265     1.0  0.74361  0.61226  0.65222  1.0000
  C   C1266     1.0  0.74484  0.62986  0.66909  1.0000
  H   H1505     1.0  0.72851  0.68043  0.63765  1.0000
  H   H1506     1.0  0.72668  0.64923  0.60773  1.0000
  H   H1507     1.0  0.74775  0.59321  0.65637  1.0000
  H   H1508     1.0  0.74985  0.62432  0.68617  1.0000
  C   C1267     1.0  0.79505  0.87585  0.78000  1.0000
  H   H1509     1.0  0.64775  0.55613  0.55322  1.0000
  H   H1510     1.0  0.00882  0.87559  0.58655  1.0000
  H   H1511     1.0  0.01344  0.87776  0.62773  1.0000
  C   C1268     1.0  0.88980  0.74335  0.74938  1.0000
  C   C1269     1.0  0.87012  0.73186  0.76009  1.0000
  C   C1270     1.0  0.85736  0.71371  0.74906  1.0000
  C   C1271     1.0  0.86482  0.70619  0.72757  1.0000
  C   C1272     1.0  0.88451  0.71761  0.71684  1.0000
  C   C1273     1.0  0.89677  0.73641  0.72757  1.0000
  H   H1512     1.0  0.68581  0.66521  0.62162  1.0000
  H   H1513     1.0  0.84212  0.70513  0.75743  1.0000
  H   H1514     1.0  0.89039  0.71189  0.70021  1.0000
  H   H1515     1.0  0.91199  0.74510  0.71923  1.0000
  C   C1274     1.0  0.89035  0.88801  0.76177  1.0000
  C   C1275     1.0  0.84751  0.57344  0.75329  1.0000
  H   H1516     1.0  0.81103  0.59492  0.78715  1.0000
  C   C1276     1.0  0.88238  0.03085  0.62378  1.0000
  C   C1277     1.0  0.63382  0.67778  0.68808  1.0000
  C   C1278     1.0  0.63585  0.63193  0.61320  1.0000
  H   H1517     1.0  0.02349  0.80739  0.74271  1.0000
  C   C1279     1.0  0.85894  0.61502  0.74343  1.0000
  H   H1518     1.0  0.67174  0.68034  0.69454  1.0000
  C   C1280     1.0  0.94025  0.02231  0.55336  1.0000
  H   H1519     1.0  0.00346  0.91402  0.60121  1.0000
  S   S354      1.0  0.00291  0.83952  0.77781  1.0000
  H   H1520     1.0  0.87597  0.04160  0.72671  1.0000
  H   H1521     1.0  0.85540  0.78174  0.77705  1.0000
  C   C1281     1.0  0.94311  0.99776  0.56062  1.0000
  C   C1282     1.0  0.79823  0.02363  0.76723  1.0000
  H   H1522     1.0  0.66117  0.60585  0.64462  1.0000
  H   H1523     1.0  0.79757  0.01338  0.75180  1.0000
  H   H1524     1.0  0.93715  0.99204  0.57744  1.0000
  H   H1525     1.0  0.68424  0.65957  0.66034  1.0000
  C   C1283     1.0  0.68161  0.64523  0.78267  1.0000
  C   C1284     1.0  0.96235  0.86796  0.61667  1.0000
  C   C1285     1.0  0.97491  0.84621  0.61183  1.0000
  C   C1286     1.0  0.97978  0.82877  0.62935  1.0000
  C   C1287     1.0  0.97173  0.83270  0.65168  1.0000
  C   C1288     1.0  0.95898  0.85431  0.65640  1.0000
  C   C1289     1.0  0.95446  0.87189  0.63901  1.0000
  H   H1526     1.0  0.98070  0.84272  0.59463  1.0000
  H   H1527     1.0  0.98949  0.81199  0.62552  1.0000
  H   H1528     1.0  0.95258  0.85755  0.67348  1.0000
  H   H1529     1.0  0.94465  0.88859  0.64290  1.0000
  H   H1530     1.0  0.85570  0.63114  0.73278  1.0000
  H   H1531     1.0  0.73771  0.81735  0.77363  1.0000
  N   N86       1.0  0.82016  0.67405  0.64655  1.0000
  C   C1290     1.0  0.83721  0.69474  0.64711  1.0000
  C   C1291     1.0  0.79922  0.68046  0.66114  1.0000
  C   C1292     1.0  0.83253  0.65206  0.65657  1.0000
  C   C1293     1.0  0.81174  0.66861  0.62348  1.0000
  C   C1294     1.0  0.79577  0.64895  0.62022  1.0000
  C   C1295     1.0  0.81890  0.68238  0.60376  1.0000
  C   C1296     1.0  0.78778  0.64322  0.59862  1.0000
  C   C1297     1.0  0.81060  0.67658  0.58224  1.0000
  C   C1298     1.0  0.79511  0.65703  0.57967  1.0000
  H   H1532     1.0  0.85376  0.69093  0.63690  1.0000
  H   H1533     1.0  0.82868  0.71223  0.64089  1.0000
  H   H1534     1.0  0.84329  0.69808  0.66474  1.0000
  H   H1535     1.0  0.78825  0.69574  0.65347  1.0000
  H   H1536     1.0  0.80479  0.68615  0.67831  1.0000
  H   H1537     1.0  0.78704  0.66474  0.66393  1.0000
  H   H1538     1.0  0.84773  0.64592  0.64552  1.0000
  H   H1539     1.0  0.83993  0.65576  0.67360  1.0000
  H   H1540     1.0  0.82024  0.63631  0.65912  1.0000
  H   H1541     1.0  0.78920  0.63786  0.63439  1.0000
  H   H1542     1.0  0.83084  0.69775  0.60446  1.0000
  H   H1543     1.0  0.77571  0.62799  0.59656  1.0000
  H   H1544     1.0  0.81622  0.68729  0.56739  1.0000
  H   H1545     1.0  0.78871  0.65255  0.56297  1.0000
  C   C1299     1.0  0.80567  0.87217  0.75883  1.0000
  C   C1300     1.0  0.80043  0.04926  0.76588  1.0000
  C   C1301     1.0  0.87866  0.59301  0.77443  1.0000
  H   H1546     1.0  0.02802  0.92847  0.58620  1.0000
  C   C1302     1.0  0.78793  0.56748  0.77406  1.0000
  H   H1547     1.0  0.83174  0.85304  0.73947  1.0000
  N   N87       1.0  0.85151  0.82098  0.77307  1.0000
  S   S355      1.0  0.73216  0.58799  0.54422  1.0000
  C   C1303     1.0  0.86209  0.81957  0.74986  1.0000
  H   H1548     1.0  0.82613  0.79233  0.76807  1.0000
  H   H1549     1.0  0.55889  0.75952  0.75196  1.0000
  H   H1550     1.0  0.67748  0.64865  0.59733  1.0000
  H   H1551     1.0  0.95369  0.96115  0.55098  1.0000
  C   C1304     1.0  0.62324  0.65766  0.65345  1.0000
  H   H1552     1.0  0.60886  0.65200  0.64270  1.0000
  H   H1553     1.0  0.79980  0.88326  0.74433  1.0000
  C   C1305     1.0  0.87159  0.03698  0.74425  1.0000
  H   H1554     1.0  0.87676  0.80549  0.74896  1.0000
  C   C1306     1.0  0.57703  0.66334  0.54204  1.0000
  C   C1307     1.0  0.59995  0.66843  0.55032  1.0000
  C   C1308     1.0  0.61643  0.66967  0.67329  1.0000
  C   C1309     1.0  0.87647  0.61486  0.76079  1.0000
  S   S356      1.0  0.71405  0.64253  0.55921  1.0000
  H   H1555     1.0  0.68769  0.62399  0.64253  1.0000
  H   H1556     1.0  0.91455  0.63013  0.73634  1.0000
  H   H1557     1.0  0.03690  0.85933  0.58647  1.0000
  H   H1558     1.0  0.03235  0.88584  0.56800  1.0000
  H   H1559     1.0  0.56244  0.67643  0.54413  1.0000
  H   H1560     1.0  0.70644  0.80887  0.77462  1.0000
  S   S357      1.0  0.64775  0.65899  0.55722  1.0000
  C   C1310     1.0  0.86492  0.00583  0.77450  1.0000
  H   H1561     1.0  0.03710  0.85123  0.74372  1.0000
  C   C1311     1.0  0.65813  0.67395  0.68311  1.0000
  H   H1562     1.0  0.86336  0.02647  0.62004  1.0000
  C   C1312     1.0  0.61904  0.65164  0.54755  1.0000
  H   H1563     1.0  0.02207  0.85335  0.71697  1.0000
  H   H1564     1.0  0.67759  0.60896  0.61826  1.0000
  C   C1313     1.0  0.72033  0.70030  0.77692  1.0000
  H   H1565     1.0  0.86478  0.73694  0.77705  1.0000
  H   H1566     1.0  0.92511  0.88007  0.77622  1.0000
  H   H1567     1.0  0.56252  0.77846  0.64863  1.0000
  H   H1568     1.0  0.03491  0.78779  0.72055  1.0000
  C   C1314     1.0  0.84156  0.79657  0.77910  1.0000
  H   H1569     1.0  0.86077  0.66196  0.75934  1.0000
  H   H1570     1.0  0.92244  0.61826  0.77756  1.0000
  H   H1571     1.0  0.85408  0.89782  0.75236  1.0000
  H   H1572     1.0  0.88926  0.01806  0.63731  1.0000
  H   H1573     1.0  0.55444  0.74658  0.65320  1.0000
  C   C1315     1.0  0.87451  0.65707  0.77226  1.0000
  H   H1574     1.0  0.83278  0.04033  0.69218  1.0000
  H   H1575     1.0  0.60290  0.68552  0.55869  1.0000
  C   C1316     1.0  0.84476  0.59458  0.73979  1.0000
  H   H1576     1.0  0.56430  0.76390  0.67626  1.0000
  H   H1577     1.0  0.83605  0.55784  0.75070  1.0000
  H   H1578     1.0  0.87034  0.83724  0.74437  1.0000
  C   C1317     1.0  0.85972  0.04983  0.78159  1.0000
  C   C1318     1.0  0.87137  0.01244  0.75179  1.0000
  N   N88       1.0  0.86381  0.97963  0.78172  1.0000
  H   H1579     1.0  0.59752  0.67273  0.67722  1.0000
  C   C1319     1.0  0.66512  0.66195  0.66339  1.0000
  C   C1320     1.0  0.84631  0.96697  0.76744  1.0000
  H   H1580     1.0  0.01320  0.81135  0.71427  1.0000
  C   C1321     1.0  0.95254  0.98029  0.54570  1.0000
  H   H1581     1.0  0.62848  0.68709  0.70341  1.0000
  C   C1322     1.0  0.90681  0.88618  0.77949  1.0000
  H   H1582     1.0  0.68631  0.70862  0.76113  1.0000
  N   N89       1.0  0.89080  0.63704  0.76467  1.0000
  H   H1583     1.0  0.84336  0.94778  0.77349  1.0000
  C   C1323     1.0  0.86680  0.89635  0.76608  1.0000
  C   C1324     1.0  0.64792  0.65332  0.64796  1.0000
  C   C1325     1.0  0.03977  0.84936  0.72508  1.0000
  H   H1584     1.0  0.89285  0.02672  0.60802  1.0000
  H   H1585     1.0  0.65901  0.67377  0.60666  1.0000
  H   H1586     1.0  0.91467  0.66131  0.74587  1.0000
  C   C1326     1.0  0.85670  0.04636  0.66337  1.0000
  H   H1587     1.0  0.03811  0.82660  0.68476  1.0000
  H   H1588     1.0  0.02574  0.92922  0.61655  1.0000
  H   H1589     1.0  0.85236  0.96589  0.74946  1.0000
  C   C1327     1.0  0.02944  0.80691  0.72464  1.0000
  H   H1590     1.0  0.82853  0.97661  0.76758  1.0000
  H   H1591     1.0  0.69205  0.62203  0.75523  1.0000
  C   C1328     1.0  0.55347  0.76520  0.66047  1.0000
  C   C1329     1.0  0.56605  0.78502  0.77831  1.0000
  H   H1592     1.0  0.87920  0.84426  0.78501  1.0000
  C   C1330     1.0  0.03290  0.88203  0.62539  1.0000
  H   H1593     1.0  0.87587  0.99862  0.73958  1.0000
  H   H1594     1.0  0.88447  0.67422  0.77540  1.0000
  C   C1331     1.0  0.67118  0.61901  0.63344  1.0000
  H   H1595     1.0  0.72859  0.69376  0.76149  1.0000
  C   C1332     1.0  0.67021  0.65781  0.61267  1.0000
  C   C1333     1.0  0.86431  0.57268  0.77063  1.0000
  C   C1334     1.0  0.72283  0.81107  0.78505  1.0000
  C   C1335     1.0  0.69644  0.70891  0.77669  1.0000
  C   C1336     1.0  0.82403  0.85455  0.75629  1.0000
  H   H1596     1.0  0.92047  0.65010  0.78418  1.0000
  S   S358      1.0  0.99562  0.91869  0.54786  1.0000
  C   C1337     1.0  0.02863  0.87803  0.58527  1.0000
  H   H1597     1.0  0.84853  0.81445  0.73717  1.0000
  Fe  Fe181     1.0  0.67676  0.63068  0.55092  1.0000
  H   H1598     1.0  0.89397  0.96764  0.76089  1.0000
  H   H1599     1.0  0.85320  0.02826  0.65737  1.0000
  C   C1338     1.0  0.55202  0.77504  0.76124  1.0000
  S   S359      1.0  0.92522  0.04318  0.57088  1.0000
  C   C1339     1.0  0.71489  0.61607  0.78420  1.0000
  C   C1340     1.0  0.02318  0.91748  0.60172  1.0000
  H   H1600     1.0  0.78093  0.88965  0.78192  1.0000
  H   H1601     1.0  0.71346  0.76695  0.77107  1.0000
  H   H1602     1.0  0.58366  0.77727  0.78203  1.0000
  C   C1341     1.0  0.90963  0.63328  0.78217  1.0000
  H   H1603     1.0  0.86463  0.65169  0.78811  1.0000
  H   H1604     1.0  0.86587  0.55631  0.78143  1.0000
  H   H1605     1.0  0.74534  0.77136  0.76783  1.0000
  C   C1342     1.0  0.69567  0.62713  0.77250  1.0000
  H   H1606     1.0  0.66704  0.65420  0.77342  1.0000
  N   N90       1.0  0.03756  0.89427  0.60307  1.0000
  H   H1607     1.0  0.03795  0.89367  0.63971  1.0000
  C   C1343     1.0  0.73065  0.76827  0.78051  1.0000
  H   H1608     1.0  0.00781  0.78645  0.78696  1.0000
  H   H1609     1.0  0.88632  0.81209  0.78728  1.0000
  H   H1610     1.0  0.88783  0.94818  0.78488  1.0000
  C   C1344     1.0  0.85946  0.90195  0.78825  1.0000
  C   C1345     1.0  0.79671  0.01127  0.78844  1.0000
  H   H1611     1.0  0.89111  0.59114  0.78829  1.0000
  H   H1612     1.0  0.76491  0.61446  0.78866  1.0000
  S   S360      1.0  0.98442  0.86022  0.53870  1.0000
  H   H1613     1.0  0.67915  0.63824  0.96381  1.0000
  H   H1614     1.0  0.80966  0.93390  0.96733  1.0000
  Fe  Fe182     1.0  0.87956  0.99864  0.00729  1.0000
  S   S361      1.0  0.89373  0.96096  0.01648  1.0000
  S   S362      1.0  0.85803  0.00801  0.97583  1.0000
  H   H1615     1.0  0.79578  0.99895  0.88792  1.0000
  H   H1616     1.0  0.73304  0.71025  0.83218  1.0000
  H   H1617     1.0  0.03218  0.86652  0.89678  1.0000
  S   S363      1.0  0.91596  0.01583  0.00544  1.0000
  H   H1618     1.0  0.91252  0.89111  0.81514  1.0000
  C   C1346     1.0  0.04059  0.04101  0.03561  1.0000
  H   H1619     1.0  0.69317  0.77740  0.80574  1.0000
  H   H1620     1.0  0.77052  0.75653  0.79938  1.0000
  H   H1621     1.0  0.90162  0.62899  0.79919  1.0000
  Fe  Fe183     1.0  0.62124  0.68900  0.01343  1.0000
  S   S364      1.0  0.63802  0.68865  0.97825  1.0000
  C   C1347     1.0  0.67326  0.57343  0.00148  1.0000
  S   S365      1.0  0.86790  0.90828  0.83361  1.0000
  C   C1348     1.0  0.73359  0.70080  0.79689  1.0000
  Fe  Fe184     1.0  0.61419  0.76079  0.86602  1.0000
  S   S366      1.0  0.61472  0.80174  0.86261  1.0000
  S   S367      1.0  0.59088  0.74677  0.89508  1.0000
  Fe  Fe185     1.0  0.64250  0.75508  0.82184  1.0000
  S   S368      1.0  0.64486  0.79579  0.81506  1.0000
  C   C1349     1.0  0.76382  0.62048  0.80652  1.0000
  Fe  Fe186     1.0  0.65341  0.79704  0.85221  1.0000
  S   S369      1.0  0.68278  0.81698  0.87026  1.0000
  Fe  Fe187     1.0  0.60594  0.79641  0.82604  1.0000
  C   C1350     1.0  0.74131  0.58446  0.81734  1.0000
  S   S370      1.0  0.65364  0.75606  0.85830  1.0000
  S   S371      1.0  0.60295  0.75574  0.83006  1.0000
  Fe  Fe188     1.0  0.83037  0.92250  0.84042  1.0000
  S   S372      1.0  0.80341  0.93771  0.81553  1.0000
  H   H1622     1.0  0.73421  0.02650  0.88627  1.0000
  Fe  Fe189     1.0  0.79913  0.93400  0.88160  1.0000
  S   S373      1.0  0.76894  0.94917  0.86015  1.0000
  S   S374      1.0  0.79741  0.93290  0.92004  1.0000
  Fe  Fe190     1.0  0.77655  0.91726  0.83771  1.0000
  S   S375      1.0  0.74778  0.89646  0.81970  1.0000
  Fe  Fe191     1.0  0.79806  0.96830  0.84001  1.0000
  S   S376      1.0  0.79749  0.00965  0.83531  1.0000
  S   S377      1.0  0.80413  0.90005  0.86097  1.0000
  S   S378      1.0  0.82764  0.95485  0.86287  1.0000
  H   H1623     1.0  0.86898  0.98431  0.81761  1.0000
  H   H1624     1.0  0.61341  0.80544  0.91200  1.0000
  C   C1351     1.0  0.79973  0.05010  0.80704  1.0000
  H   H1625     1.0  0.76926  0.04255  0.86837  1.0000
  H   H1626     1.0  0.74643  0.63815  0.84438  1.0000
  S   S379      1.0  0.76406  0.69195  0.79680  1.0000
  H   H1627     1.0  0.81991  0.57116  0.82278  1.0000
  H   H1628     1.0  0.81054  0.79743  0.84617  1.0000
  H   H1629     1.0  0.83399  0.96257  0.98952  1.0000
  H   H1630     1.0  0.68199  0.64120  0.02571  1.0000
  H   H1631     1.0  0.60065  0.56760  0.02840  1.0000
  C   C1352     1.0  0.72280  0.70976  0.81671  1.0000
  C   C1353     1.0  0.69976  0.84019  0.85648  1.0000
  C   C1354     1.0  0.71962  0.84977  0.86758  1.0000
  C   C1355     1.0  0.73414  0.86757  0.85675  1.0000
  C   C1356     1.0  0.72888  0.87584  0.83468  1.0000
  C   C1357     1.0  0.70881  0.86652  0.82372  1.0000
  C   C1358     1.0  0.69427  0.84876  0.83457  1.0000
  H   H1632     1.0  0.72394  0.84327  0.88457  1.0000
  H   H1633     1.0  0.74953  0.87467  0.86536  1.0000
  H   H1634     1.0  0.70454  0.87304  0.80672  1.0000
  H   H1635     1.0  0.67883  0.84174  0.82597  1.0000
  C   C1359     1.0  0.61712  0.79882  0.92963  1.0000
  H   H1636     1.0  0.69057  0.72542  0.83171  1.0000
  H   H1637     1.0  0.74343  0.57764  0.79983  1.0000
  H   H1638     1.0  0.79732  0.04302  0.88235  1.0000
  C   C1360     1.0  0.87598  0.90022  0.80593  1.0000
  C   C1361     1.0  0.03973  0.86809  0.93200  1.0000
  H   H1639     1.0  0.02871  0.83518  0.87200  1.0000
  C   C1362     1.0  0.71031  0.78187  0.81419  1.0000
  H   H1640     1.0  0.70639  0.79722  0.82582  1.0000
  C   C1363     1.0  0.62416  0.70397  0.95509  1.0000
  C   C1364     1.0  0.60098  0.71413  0.95688  1.0000
  C   C1365     1.0  0.59077  0.72682  0.93818  1.0000
  C   C1366     1.0  0.60377  0.72965  0.91773  1.0000
  C   C1367     1.0  0.62687  0.71933  0.91590  1.0000
  C   C1368     1.0  0.63699  0.70647  0.93452  1.0000
  H   H1641     1.0  0.59095  0.71224  0.97266  1.0000
  H   H1642     1.0  0.57284  0.73470  0.93967  1.0000
  H   H1643     1.0  0.63692  0.72124  0.90016  1.0000
  H   H1644     1.0  0.65493  0.69862  0.93306  1.0000
  H   H1645     1.0  0.70658  0.63750  0.98038  1.0000
  C   C1369     1.0  0.00372  0.93922  0.00104  1.0000
  N   N91       1.0  0.74176  0.61169  0.81821  1.0000
  C   C1370     1.0  0.78323  0.00813  0.96311  1.0000
  S   S380      1.0  0.96244  0.96644  0.99703  1.0000
  H   H1646     1.0  0.00826  0.94653  0.98433  1.0000
  C   C1371     1.0  0.79922  0.02638  0.96856  1.0000
  C   C1372     1.0  0.84276  0.98573  0.96056  1.0000
  C   C1373     1.0  0.84016  0.98928  0.93708  1.0000
  C   C1374     1.0  0.82696  0.97278  0.92446  1.0000
  C   C1375     1.0  0.81556  0.95297  0.93530  1.0000
  C   C1376     1.0  0.81836  0.94923  0.95880  1.0000
  C   C1377     1.0  0.83221  0.96537  0.97138  1.0000
  H   H1647     1.0  0.84823  0.00502  0.92862  1.0000
  H   H1648     1.0  0.82528  0.97571  0.90644  1.0000
  C   C1378     1.0  0.89966  0.89243  0.80150  1.0000
  H   H1649     1.0  0.60965  0.78005  0.93109  1.0000
  C   C1379     1.0  0.77144  0.77294  0.80921  1.0000
  H   H1650     1.0  0.64511  0.64216  0.00224  1.0000
  C   C1380     1.0  0.72054  0.62276  0.80662  1.0000
  H   H1651     1.0  0.71828  0.82626  0.79656  1.0000
  H   H1652     1.0  0.71154  0.56122  0.94753  1.0000
  H   H1653     1.0  0.76737  0.99892  0.87403  1.0000
  C   C1381     1.0  0.77379  0.00740  0.94128  1.0000
  Fe  Fe192     1.0  0.92978  0.97887  0.01672  1.0000
  H   H1654     1.0  0.70584  0.61940  0.01966  1.0000
  C   C1382     1.0  0.77602  0.00051  0.89084  1.0000
  H   H1655     1.0  0.03712  0.91901  0.00466  1.0000
  H   H1656     1.0  0.55033  0.77633  0.82989  1.0000
  H   H1657     1.0  0.99677  0.99953  0.02511  1.0000
  S   S381      1.0  0.65602  0.72945  0.79503  1.0000
  C   C1383     1.0  0.02580  0.82086  0.79007  1.0000
  H   H1658     1.0  0.54228  0.60044  0.02685  1.0000
  H   H1659     1.0  0.60657  0.81060  0.94138  1.0000
  H   H1660     1.0  0.89748  0.91916  0.87287  1.0000
  C   C1384     1.0  0.69589  0.58896  0.96900  1.0000
  H   H1661     1.0  0.02577  0.88175  0.93509  1.0000
  N   N92       1.0  0.76944  0.02410  0.90133  1.0000
  H   H1662     1.0  0.70320  0.60333  0.95818  1.0000
  C   C1385     1.0  0.68193  0.59399  0.98878  1.0000
  H   H1663     1.0  0.76183  0.99255  0.93782  1.0000
  C   C1386     1.0  0.74332  0.61817  0.84247  1.0000
  C   C1387     1.0  0.79779  0.02447  0.80838  1.0000
  C   C1388     1.0  0.77627  0.81332  0.83695  1.0000
  H   H1664     1.0  0.68196  0.65744  0.98752  1.0000
  H   H1665     1.0  0.85732  0.90455  0.88451  1.0000
  C   C1389     1.0  0.79463  0.79568  0.83591  1.0000
  H   H1666     1.0  0.83525  0.79537  0.79701  1.0000
  C   C1390     1.0  0.68575  0.71828  0.79632  1.0000
  H   H1667     1.0  0.78037  0.61357  0.81517  1.0000
  C   C1391     1.0  0.68601  0.62247  0.01935  1.0000
  H   H1668     1.0  0.80712  0.02644  0.98530  1.0000
  H   H1669     1.0  0.75871  0.60852  0.85100  1.0000
  C   C1392     1.0  0.75543  0.81083  0.82426  1.0000
  H   H1670     1.0  0.64083  0.61069  0.00938  1.0000
  C   C1393     1.0  0.54483  0.73119  0.84646  1.0000
  H   H1671     1.0  0.55200  0.73197  0.82876  1.0000
  H   H1672     1.0  0.67599  0.66684  0.81220  1.0000
  C   C1394     1.0  0.79219  0.77552  0.82211  1.0000
  C   C1395     1.0  0.80611  0.04378  0.95214  1.0000
  C   C1396     1.0  0.70082  0.56479  0.96262  1.0000
  C   C1397     1.0  0.02011  0.92371  0.01255  1.0000
  N   N93       1.0  0.64319  0.79919  0.93477  1.0000
  H   H1673     1.0  0.79458  0.99160  0.78939  1.0000
  C   C1398     1.0  0.65197  0.82422  0.92895  1.0000
  C   C1399     1.0  0.65613  0.78191  0.91970  1.0000
  C   C1400     1.0  0.64681  0.79157  0.95882  1.0000
  C   C1401     1.0  0.65688  0.80714  0.97509  1.0000
  C   C1402     1.0  0.63955  0.76800  0.96674  1.0000
  C   C1403     1.0  0.65923  0.79942  0.99784  1.0000
  C   C1404     1.0  0.64208  0.76042  0.98942  1.0000
  C   C1405     1.0  0.65179  0.77614  0.00499  1.0000
  H   H1674     1.0  0.77786  0.82882  0.84801  1.0000
  H   H1675     1.0  0.64222  0.83849  0.93878  1.0000
  H   H1676     1.0  0.64927  0.82909  0.91063  1.0000
  H   H1677     1.0  0.67167  0.82560  0.93181  1.0000
  H   H1678     1.0  0.64944  0.76292  0.92153  1.0000
  H   H1679     1.0  0.65394  0.78729  0.90150  1.0000
  H   H1680     1.0  0.67577  0.78137  0.92321  1.0000
  H   H1681     1.0  0.66295  0.82539  0.97074  1.0000
  H   H1682     1.0  0.63165  0.75528  0.95541  1.0000
  H   H1683     1.0  0.66678  0.81157  0.01006  1.0000
  H   H1684     1.0  0.63635  0.74224  0.99494  1.0000
  C   C1406     1.0  0.70592  0.64146  0.81643  1.0000
  C   C1407     1.0  0.01428  0.91407  0.03408  1.0000
  H   H1685     1.0  0.75642  0.57563  0.82700  1.0000
  H   H1686     1.0  0.84105  0.90745  0.79167  1.0000
  H   H1687     1.0  0.85358  0.02229  0.80671  1.0000
  H   H1688     1.0  0.72670  0.61292  0.85201  1.0000
  C   C1408     1.0  0.78012  0.02506  0.92418  1.0000
  C   C1409     1.0  0.98173  0.94565  0.01125  1.0000
  N   N94       1.0  0.72957  0.78795  0.79747  1.0000
  C   C1410     1.0  0.75242  0.79075  0.80977  1.0000
  H   H1689     1.0  0.66254  0.57580  0.01666  1.0000
  C   C1411     1.0  0.68668  0.65232  0.80458  1.0000
  H   H1690     1.0  0.04068  0.76186  0.80545  1.0000
  C   C1412     1.0  0.87143  0.82594  0.78876  1.0000
  C   C1413     1.0  0.80810  0.56370  0.81033  1.0000
  H   H1691     1.0  0.77056  0.98423  0.90131  1.0000
  C   C1414     1.0  0.69887  0.71852  0.81642  1.0000
  H   H1692     1.0  0.73505  0.00995  0.91268  1.0000
  N   N95       1.0  0.91485  0.94395  0.94675  1.0000
  C   C1415     1.0  0.93882  0.95153  0.93790  1.0000
  C   C1416     1.0  0.90282  0.96596  0.95622  1.0000
  C   C1417     1.0  0.91886  0.92557  0.96541  1.0000
  C   C1418     1.0  0.89935  0.93341  0.92934  1.0000
  C   C1419     1.0  0.90675  0.93104  0.90629  1.0000
  C   C1420     1.0  0.87602  0.92498  0.93529  1.0000
  C   C1421     1.0  0.89166  0.92072  0.89041  1.0000
  C   C1422     1.0  0.86124  0.91445  0.91932  1.0000
  C   C1423     1.0  0.86898  0.91242  0.89692  1.0000
  H   H1693     1.0  0.93714  0.96619  0.92450  1.0000
  H   H1694     1.0  0.95000  0.95928  0.95146  1.0000
  H   H1695     1.0  0.94925  0.93567  0.93117  1.0000
  H   H1696     1.0  0.91456  0.97542  0.96832  1.0000
  H   H1697     1.0  0.88614  0.96133  0.96581  1.0000
  H   H1698     1.0  0.89768  0.97954  0.94261  1.0000
  H   H1699     1.0  0.92690  0.90829  0.95888  1.0000
  H   H1700     1.0  0.93118  0.93248  0.97846  1.0000
  H   H1701     1.0  0.90194  0.92083  0.97466  1.0000
  H   H1702     1.0  0.92403  0.93707  0.90002  1.0000
  H   H1703     1.0  0.86891  0.92663  0.95235  1.0000
  H   H1704     1.0  0.67803  0.60958  0.03213  1.0000
  H   H1705     1.0  0.84348  0.90813  0.92428  1.0000
  C   C1424     1.0  0.77750  0.04404  0.88544  1.0000
  N   N96       1.0  0.67636  0.61920  0.99628  1.0000
  C   C1425     1.0  0.68660  0.63879  0.98124  1.0000
  S   S382      1.0  0.57490  0.81862  0.81133  1.0000
  C   C1426     1.0  0.64991  0.62321  0.99703  1.0000
  H   H1706     1.0  0.77871  0.99403  0.97569  1.0000
  C   C1427     1.0  0.80267  0.86192  0.79876  1.0000
  C   C1428     1.0  0.82099  0.84423  0.79643  1.0000
  C   C1429     1.0  0.00556  0.01662  0.02839  1.0000
  H   H1707     1.0  0.73335  0.74995  0.78872  1.0000
  C   C1430     1.0  0.85921  0.02535  0.78928  1.0000
  H   H1708     1.0  0.83786  0.98342  0.80902  1.0000
  S   S383      1.0  0.59785  0.71683  0.03119  1.0000
  H   H1709     1.0  0.80621  0.76145  0.82175  1.0000
  H   H1710     1.0  0.64179  0.62056  0.98011  1.0000
  H   H1711     1.0  0.76438  0.64088  0.80604  1.0000
  H   H1712     1.0  0.72417  0.57717  0.82452  1.0000
  C   C1431     1.0  0.79675  0.04328  0.93023  1.0000
  H   H1713     1.0  0.71552  0.76569  0.82505  1.0000
  C   C1432     1.0  0.80301  0.57719  0.79025  1.0000
  H   H1714     1.0  0.03046  0.98173  0.00309  1.0000
  H   H1715     1.0  0.54301  0.67467  0.01239  1.0000
  C   C1433     1.0  0.74283  0.02594  0.90326  1.0000
  H   H1716     1.0  0.97217  0.03690  0.02416  1.0000
  C   C1434     1.0  0.85627  0.97580  0.80581  1.0000
  S   S384      1.0  0.60148  0.65638  0.02803  1.0000
  H   H1717     1.0  0.74138  0.82448  0.82641  1.0000
  H   H1718     1.0  0.70923  0.64847  0.83302  1.0000
  H   H1719     1.0  0.03808  0.80642  0.88494  1.0000
  C   C1435     1.0  0.97577  0.93596  0.03273  1.0000
  H   H1720     1.0  0.85581  0.95595  0.81076  1.0000
  H   H1721     1.0  0.56075  0.73053  0.85782  1.0000
  H   H1722     1.0  0.55732  0.77717  0.85908  1.0000
  H   H1723     1.0  0.65345  0.77025  0.02266  1.0000
  C   C1436     1.0  0.99131  0.03801  0.02743  1.0000
  H   H1724     1.0  0.90168  0.97731  0.78874  1.0000
  C   C1437     1.0  0.54210  0.77537  0.84711  1.0000
  H   H1725     1.0  0.79434  0.86503  0.81520  1.0000
  C   C1438     1.0  0.55752  0.80537  0.79012  1.0000
  H   H1726     1.0  0.86572  0.82555  0.80685  1.0000
  H   H1727     1.0  0.73715  0.04284  0.91223  1.0000
  C   C1439     1.0  0.03057  0.01737  0.03313  1.0000
  H   H1728     1.0  0.82631  0.83397  0.81151  1.0000
  C   C1440     1.0  0.02381  0.79539  0.79267  1.0000
