data_image0
_chemical_formula_structural       HC2SH5C4HCNHS2HC3HCH2CSC4HSHCHC2NHC2HCHSHC2FeCHFeHFeH2CHC2HCH2CHC3H2CFeHSH3CSHSH2NCHCFeH6CH3CSCFeHCHC2H2C2HCHSC2S2CH2CH5CNC4HFeC3H2CH3C2HFeHFeSH3S2HSCSHSC2HNCH2C2H3C3H3CHCNHCH3CSCH2FeCH2C2SCNH2CH2CHCH4SH2CHFeNHCH3CH4CHC2SC2HCH2SHSCSHCH2FeHCHSC2H2CSH2CSHCHSHC3HFeCHCHFeCH2C2H3C3NH4CHC4HCSCNCFeCSH5CHCHC2SH3C2FeHCH2CH2CH2FeSC2HFeH2CHSCH3SHCHSC2H2C2SHCH2CHFeCS2H6CHCHCH2C2HC6HSCSH3FeCSCHFeCNC2H2CHCSH2SCH4CH3CHCSH7CH3C2HC2H3C2FeHSC2SHC2SCSC3SHNH2C4HNC4SH5FeSH2SC2HSC3SCNCSHCSHFeCHC2HCHSH2SCNHCH3CH6FeH2CH3SH2CH2C3HFeH2C2HFe2HC2SC3H2CH2C2FeCHSCH6CHCSHNC2FeHSH6CHC2HCHCHSH2C7NH3C2HC2H2FeC2SH2SFeC2H2SHSCH6C3H2C2HC2HC4H3C2HCFeHC2H2FeSC4H3FeCHC3HCH2S2C2HC2NH2C2HCS2HC3H4CHC4H2CH7NHCSH5CHSNHCSH4C5FeCH2FeH2C2HC2HFeCHC3SH3SHNHNHCHCSCHC2H4FeHC2HC2HC2HFeH3C4FeHCHCH3CSCH2CH5CHSHCSH2C2SCHCH2C2HCSHNHC2HCH2CH5CHCH3CHCHC3H2CH4C3H3C2H2CNSH2C2HFeHC2HS2HCSHCH2CFeSCHCNHC4HS2HSHFeHCHCFeHCHCHSHCHC3HCH2CHSCHCSFeCH3CH6CHC4SFeCHFeHC3H2CHCS2CHSNCFeCHCH2CNSHC2HFeCSCSCHCH2CH2SHC4H2C2HCSCFeHC3H4NCHSH6SH6SHCH2CHCH4CH3CSHSC2H2CHFeH2CS3C2HSH3CHC3SH2CHFe2HC2H4FeNC2H2SC2SFeCHC2H2CNCHCHFe2CSH2CHSCFeCHCH2CHC2HC2SH2CNHFeHCH2SHCSHSCHSFeHCSCH2CHFeCH3C2HCH3CFe2HC3S2HCFeSCHSH4C2HC3H3FeC2S2CH3CH2SH3C3H3C3HC2H4CH3C5HCFe2CFeSNH3SFeCHCHCH2C2HCFeSN2C3HSH2CH2CHC2H2SHCSHC3H3CSHC3H3CSC2H3CH2SC2HC3HC3H2CHCSC2H3SCH2C4H5SC3HSHCFe2CHSH4C2H2N2CSCHFeCSH4C3NSCHC2H2CFeH3C3H3C3HCHSH2C2HCH6SCSCHCHC3HCHSCH2CFeC2HCH2FeHC2H2CSH3CHFeH2CHSH7FeNHC6SC2HCH2SHNHSHCHC2HC3HNHCH2FeCHC3H2C2SH2C2
_chemical_formula_sum              "H720 C600 S160 N40 Fe80"
_cell_length_a       17.7808
_cell_length_b       47.1146
_cell_length_c       24.8993
_cell_angle_alpha    85.6627
_cell_angle_beta     77.7897
_cell_angle_gamma    90.7813

_space_group_name_H-M_alt    "P 1"
_space_group_IT_number       1

loop_
  _space_group_symop_operation_xyz
  'x, y, z'

loop_
  _atom_site_type_symbol
  _atom_site_label
  _atom_site_symmetry_multiplicity
  _atom_site_fract_x
  _atom_site_fract_y
  _atom_site_fract_z
  _atom_site_occupancy
  H   H1        1.0  0.91463  0.29915  0.70051  1.0000
  C   C1        1.0  0.94021  0.15486  0.74444  1.0000
  C   C2        1.0  0.85230  0.28587  0.83975  1.0000
  S   S1        1.0  0.90068  0.21664  0.91029  1.0000
  H   H2        1.0  0.25227  0.07189  0.89078  1.0000
  H   H3        1.0  0.67182  0.12828  0.71330  1.0000
  H   H4        1.0  0.00181  0.15916  0.73263  1.0000
  H   H5        1.0  0.92932  0.17108  0.82390  1.0000
  H   H6        1.0  0.70820  0.10023  0.84832  1.0000
  C   C3        1.0  0.68579  0.10568  0.81044  1.0000
  C   C4        1.0  0.15077  0.24213  0.82395  1.0000
  C   C5        1.0  0.94448  0.23281  0.75296  1.0000
  C   C6        1.0  0.71734  0.25993  0.82446  1.0000
  H   H7        1.0  0.07916  0.13035  0.82612  1.0000
  C   C7        1.0  0.71272  0.28906  0.68862  1.0000
  N   N1        1.0  0.17870  0.10838  0.89270  1.0000
  H   H8        1.0  0.23726  0.14936  0.88883  1.0000
  S   S2        1.0  0.67617  0.23259  0.68827  1.0000
  S   S3        1.0  0.52053  0.27745  0.79191  1.0000
  H   H9        1.0  0.71762  0.09258  0.77854  1.0000
  C   C8        1.0  0.71397  0.27867  0.86538  1.0000
  C   C9        1.0  0.85735  0.26785  0.79592  1.0000
  C   C10       1.0  0.77892  0.14364  0.77603  1.0000
  H   H10       1.0  0.77891  0.30565  0.90585  1.0000
  C   C11       1.0  0.46225  0.10847  0.89845  1.0000
  H   H11       1.0  0.00152  0.22888  0.72644  1.0000
  H   H12       1.0  0.66490  0.24992  0.81856  1.0000
  C   C12       1.0  0.65609  0.14293  0.74647  1.0000
  S   S4        1.0  0.37512  0.15942  0.79066  1.0000
  C   C13       1.0  0.11861  0.09352  0.87120  1.0000
  C   C14       1.0  0.19004  0.13909  0.87323  1.0000
  C   C15       1.0  0.82274  0.13575  0.72503  1.0000
  C   C16       1.0  0.07264  0.10776  0.83783  1.0000
  H   H13       1.0  0.00631  0.26858  0.81192  1.0000
  S   S5        1.0  0.45521  0.23036  0.72223  1.0000
  H   H14       1.0  0.66861  0.17554  0.83144  1.0000
  C   C17       1.0  0.82015  0.15642  0.81141  1.0000
  H   H15       1.0  0.42344  0.15165  0.89432  1.0000
  C   C18       1.0  0.65593  0.15225  0.83960  1.0000
  C   C19       1.0  0.92438  0.27590  0.70082  1.0000
  N   N2        1.0  0.93031  0.26363  0.75617  1.0000
  H   H16       1.0  0.29866  0.10488  0.89360  1.0000
  C   C20       1.0  0.13882  0.22402  0.78450  1.0000
  C   C21       1.0  0.43836  0.10722  0.79115  1.0000
  H   H17       1.0  0.79249  0.16219  0.85183  1.0000
  C   C22       1.0  0.20362  0.26511  0.80923  1.0000
  H   H18       1.0  0.98129  0.10403  0.79347  1.0000
  S   S6        1.0  0.53595  0.20905  0.82329  1.0000
  H   H19       1.0  0.29011  0.17202  0.70896  1.0000
  C   C23       1.0  0.89943  0.16176  0.79569  1.0000
  C   C24       1.0  0.22809  0.25345  0.71429  1.0000
  Fe  Fe1       1.0  0.56539  0.23919  0.74792  1.0000
  C   C25       1.0  0.46696  0.08341  0.81650  1.0000
  H   H20       1.0  0.78653  0.24065  0.75779  1.0000
  Fe  Fe2       1.0  0.40724  0.26575  0.77253  1.0000
  H   H21       1.0  0.21648  0.27783  0.84078  1.0000
  Fe  Fe3       1.0  0.42266  0.20246  0.80053  1.0000
  H   H22       1.0  0.12212  0.23782  0.86637  1.0000
  H   H23       1.0  0.16589  0.21639  0.69849  1.0000
  C   C26       1.0  0.42225  0.13176  0.81928  1.0000
  H   H24       1.0  0.05297  0.27562  0.91938  1.0000
  C   C27       1.0  0.90202  0.14157  0.70940  1.0000
  C   C28       1.0  0.17582  0.23014  0.72925  1.0000
  H   H25       1.0  0.59232  0.14028  0.75982  1.0000
  C   C29       1.0  0.43643  0.13275  0.87230  1.0000
  H   H26       1.0  0.65886  0.28342  0.89064  1.0000
  H   H27       1.0  0.67269  0.14486  0.87866  1.0000
  C   C30       1.0  0.25369  0.09472  0.87588  1.0000
  H   H28       1.0  0.27355  0.09674  0.83024  1.0000
  C   C31       1.0  0.78770  0.25461  0.79005  1.0000
  C   C32       1.0  0.24347  0.27043  0.75466  1.0000
  C   C33       1.0  0.78144  0.29127  0.87361  1.0000
  H   H29       1.0  0.62444  0.09842  0.81892  1.0000
  H   H30       1.0  0.42790  0.10649  0.74995  1.0000
  C   C34       1.0  0.02210  0.29500  0.91511  1.0000
  Fe  Fe4       1.0  0.01121  0.19344  0.89149  1.0000
  H   H31       1.0  0.90196  0.29657  0.84804  1.0000
  S   S7        1.0  0.32379  0.29368  0.73991  1.0000
  H   H32       1.0  0.66909  0.16525  0.72821  1.0000
  H   H33       1.0  0.94379  0.22243  0.79447  1.0000
  H   H34       1.0  0.99448  0.30072  0.77011  1.0000
  C   C35       1.0  0.01602  0.09294  0.81866  1.0000
  S   S8        1.0  0.36618  0.23719  0.84991  1.0000
  H   H35       1.0  0.05289  0.27307  0.74074  1.0000
  S   S9        1.0  0.07911  0.19342  0.80401  1.0000
  H   H36       1.0  0.10261  0.31223  0.84218  1.0000
  H   H37       1.0  0.59238  0.14883  0.84812  1.0000
  N   N3        1.0  0.69552  0.13645  0.79287  1.0000
  C   C36       1.0  0.47630  0.08363  0.87081  1.0000
  H   H38       1.0  0.90091  0.22146  0.73577  1.0000
  C   C37       1.0  0.99873  0.27713  0.77049  1.0000
  Fe  Fe5       1.0  0.48304  0.24644  0.86624  1.0000
  H   H39       1.0  0.67023  0.28893  0.72662  1.0000
  H   H40       1.0  0.20665  0.14230  0.82744  1.0000
  H   H41       1.0  0.13765  0.15138  0.88781  1.0000
  H   H42       1.0  0.35350  0.30964  0.92917  1.0000
  H   H43       1.0  0.79637  0.12449  0.69724  1.0000
  H   H44       1.0  0.87604  0.26596  0.68658  1.0000
  C   C38       1.0  0.05022  0.31572  0.87178  1.0000
  H   H45       1.0  0.77644  0.29477  0.06591  1.0000
  H   H46       1.0  0.65415  0.25587  0.98199  1.0000
  H   H47       1.0  0.72586  0.07541  0.00923  1.0000
  C   C39       1.0  0.62568  0.10954  0.14759  1.0000
  S   S10       1.0  0.52997  0.08549  0.04148  1.0000
  C   C40       1.0  0.15332  0.11453  0.10135  1.0000
  Fe  Fe6       1.0  0.94111  0.22896  0.98475  1.0000
  H   H48       1.0  0.47019  0.10891  0.94025  1.0000
  C   C41       1.0  0.95455  0.29960  0.95341  1.0000
  H   H49       1.0  0.79371  0.11522  0.03290  1.0000
  C   C42       1.0  0.01102  0.25946  0.16441  1.0000
  C   C43       1.0  0.51226  0.26635  0.16575  1.0000
  H   H50       1.0  0.40466  0.27646  0.04636  1.0000
  H   H51       1.0  0.32531  0.19544  0.12808  1.0000
  C   C44       1.0  0.32542  0.27759  0.12461  1.0000
  C   C45       1.0  0.11799  0.25837  0.08625  1.0000
  H   H52       1.0  0.56127  0.17331  0.10700  1.0000
  C   C46       1.0  0.57229  0.15011  0.10719  1.0000
  H   H53       1.0  0.68799  0.17807  0.14426  1.0000
  S   S11       1.0  0.91703  0.27371  0.00657  1.0000
  C   C47       1.0  0.14877  0.28348  0.10069  1.0000
  C   C48       1.0  0.37008  0.26406  0.08158  1.0000
  S   S12       1.0  0.88154  0.19131  0.03849  1.0000
  S   S13       1.0  0.35324  0.06968  0.03154  1.0000
  C   C49       1.0  0.87256  0.08002  0.96005  1.0000
  H   H54       1.0  0.73394  0.14510  0.15729  1.0000
  H   H55       1.0  0.74466  0.21689  0.98795  1.0000
  C   C50       1.0  0.04125  0.28472  0.17850  1.0000
  H   H56       1.0  0.85041  0.30187  0.10278  1.0000
  H   H57       1.0  0.45032  0.26351  0.17285  1.0000
  H   H58       1.0  0.83356  0.09409  0.94125  1.0000
  H   H59       1.0  0.71889  0.15475  0.09060  1.0000
  H   H60       1.0  0.20513  0.17869  0.16788  1.0000
  C   C51       1.0  0.55986  0.25209  0.12535  1.0000
  N   N4        1.0  0.61519  0.14058  0.15003  1.0000
  C   C52       1.0  0.67443  0.27053  0.15367  1.0000
  C   C53       1.0  0.83644  0.10123  0.04718  1.0000
  C   C54       1.0  0.12269  0.13762  0.07551  1.0000
  C   C55       1.0  0.15763  0.10648  0.95364  1.0000
  H   H61       1.0  0.67357  0.24291  0.08662  1.0000
  Fe  Fe7       1.0  0.85102  0.17736  0.96244  1.0000
  C   C56       1.0  0.54295  0.20049  0.95960  1.0000
  C   C57       1.0  0.24572  0.16314  0.06055  1.0000
  C   C58       1.0  0.22976  0.11575  0.10719  1.0000
  H   H62       1.0  0.15475  0.08421  0.97223  1.0000
  H   H63       1.0  0.89165  0.11368  0.03860  1.0000
  C   C59       1.0  0.27601  0.14003  0.08681  1.0000
  H   H64       1.0  0.11820  0.09551  0.11610  1.0000
  H   H65       1.0  0.51678  0.13812  0.11278  1.0000
  H   H66       1.0  0.32476  0.30065  0.12283  1.0000
  C   C60       1.0  0.59331  0.17833  0.96440  1.0000
  C   C61       1.0  0.66716  0.18437  0.97245  1.0000
  H   H67       1.0  0.86130  0.24818  0.12476  1.0000
  Fe  Fe8       1.0  0.41028  0.09613  0.08311  1.0000
  H   H68       1.0  0.48724  0.19595  0.95059  1.0000
  Fe  Fe9       1.0  0.99244  0.16929  0.01138  1.0000
  S   S14       1.0  0.02817  0.13455  0.06644  1.0000
  H   H69       1.0  0.10082  0.11598  0.96776  1.0000
  H   H70       1.0  0.20020  0.11823  0.97147  1.0000
  H   H71       1.0  0.65822  0.10061  0.17821  1.0000
  S   S15       1.0  0.01819  0.21263  0.10604  1.0000
  S   S16       1.0  0.73431  0.15741  0.96911  1.0000
  H   H72       1.0  0.14541  0.17985  0.03508  1.0000
  S   S17       1.0  0.05519  0.20797  0.96317  1.0000
  C   C62       1.0  0.68811  0.21218  0.98076  1.0000
  S   S18       1.0  0.50967  0.25656  0.94720  1.0000
  H   H73       1.0  0.40446  0.22392  0.05010  1.0000
  S   S19       1.0  0.37209  0.14082  0.09311  1.0000
  C   C63       1.0  0.63672  0.23423  0.97766  1.0000
  C   C64       1.0  0.56553  0.22852  0.96467  1.0000
  H   H74       1.0  0.53464  0.23898  0.09932  1.0000
  N   N5        1.0  0.84324  0.07406  0.02031  1.0000
  C   C65       1.0  0.36982  0.23446  0.08372  1.0000
  H   H75       1.0  0.28163  0.18180  0.04387  1.0000
  H   H76       1.0  0.57584  0.15672  0.95969  1.0000
  C   C66       1.0  0.11114  0.29631  0.14741  1.0000
  C   C67       1.0  0.16886  0.16194  0.05503  1.0000
  H   H77       1.0  0.79591  0.24501  0.08175  1.0000
  H   H78       1.0  0.14808  0.24796  0.05096  1.0000
  H   H79       1.0  0.99596  0.08491  0.01675  1.0000
  C   C68       1.0  0.69204  0.15532  0.13516  1.0000
  C   C69       1.0  0.63984  0.25424  0.11895  1.0000
  C   C70       1.0  0.04998  0.24608  0.11887  1.0000
  H   H80       1.0  0.81871  0.09726  0.09291  1.0000
  H   H81       1.0  0.60415  0.14597  0.06517  1.0000
  H   H82       1.0  0.20202  0.29269  0.07604  1.0000
  C   C71       1.0  0.32371  0.21831  0.12830  1.0000
  H   H83       1.0  0.65783  0.10427  0.10635  1.0000
  C   C72       1.0  0.79834  0.24735  0.12535  1.0000
  N   N6        1.0  0.75910  0.27311  0.14690  1.0000
  H   H84       1.0  0.77289  0.22780  0.15052  1.0000
  C   C73       1.0  0.78727  0.29792  0.10748  1.0000
  H   H85       1.0  0.25291  0.09782  0.12745  1.0000
  H   H86       1.0  0.93010  0.09085  0.94986  1.0000
  H   H87       1.0  0.14156  0.20750  0.16495  1.0000
  C   C74       1.0  0.27486  0.23132  0.17164  1.0000
  S   S20       1.0  0.95782  0.15302  0.93760  1.0000
  C   C75       1.0  0.27855  0.26159  0.16918  1.0000
  H   H88       1.0  0.57562  0.30533  0.99716  1.0000
  H   H89       1.0  0.56928  0.09778  0.15603  1.0000
  Fe  Fe10      1.0  0.95766  0.18886  0.18430  1.0000
  C   C76       1.0  0.68596  0.08023  0.37618  1.0000
  H   H90       1.0  0.12930  0.07309  0.22920  1.0000
  H   H91       1.0  0.01185  0.29467  0.21442  1.0000
  C   C77       1.0  0.94736  0.07749  0.30451  1.0000
  C   C78       1.0  0.57530  0.14625  0.20659  1.0000
  S   S21       1.0  0.83042  0.18098  0.20622  1.0000
  C   C79       1.0  0.14760  0.17736  0.39848  1.0000
  N   N7        1.0  0.87405  0.28890  0.40813  1.0000
  H   H92       1.0  0.67196  0.13513  0.24439  1.0000
  H   H93       1.0  0.87471  0.26416  0.33818  1.0000
  C   C80       1.0  0.91484  0.27407  0.36035  1.0000
  H   H94       1.0  0.60936  0.14546  0.33764  1.0000
  H   H95       1.0  0.62653  0.24254  0.40434  1.0000
  C   C81       1.0  0.26888  0.19532  0.24735  1.0000
  H   H96       1.0  0.43551  0.08659  0.35432  1.0000
  C   C82       1.0  0.07137  0.08186  0.24311  1.0000
  H   H97       1.0  0.19614  0.16410  0.38500  1.0000
  H   H98       1.0  0.91946  0.08304  0.26933  1.0000
  H   H99       1.0  0.23136  0.18176  0.28145  1.0000
  H   H100      1.0  0.30509  0.18064  0.22066  1.0000
  S   S22       1.0  0.76235  0.22354  0.33747  1.0000
  H   H101      1.0  0.64541  0.30031  0.21799  1.0000
  H   H102      1.0  0.96203  0.18642  0.38691  1.0000
  C   C83       1.0  0.61235  0.23646  0.36652  1.0000
  H   H103      1.0  0.52034  0.07072  0.24134  1.0000
  Fe  Fe11      1.0  0.85664  0.13720  0.23722  1.0000
  N   N8        1.0  0.22276  0.21358  0.21636  1.0000
  H   H104      1.0  0.06377  0.07958  0.35295  1.0000
  C   C84       1.0  0.17184  0.23051  0.25641  1.0000
  H   H105      1.0  0.97606  0.31464  0.40661  1.0000
  H   H106      1.0  0.66914  0.09191  0.41225  1.0000
  H   H107      1.0  0.95664  0.09784  0.32243  1.0000
  C   C85       1.0  0.53739  0.23930  0.35853  1.0000
  H   H108      1.0  0.69242  0.20846  0.24672  1.0000
  H   H109      1.0  0.24406  0.27356  0.20022  1.0000
  H   H110      1.0  0.40467  0.16843  0.28252  1.0000
  H   H111      1.0  0.47617  0.16239  0.35713  1.0000
  C   C86       1.0  0.74575  0.07993  0.27923  1.0000
  H   H112      1.0  0.30775  0.20851  0.26570  1.0000
  C   C87       1.0  0.66843  0.22526  0.32648  1.0000
  C   C88       1.0  0.17254  0.19490  0.19255  1.0000
  S   S23       1.0  0.85686  0.14905  0.32299  1.0000
  C   C89       1.0  0.50262  0.15703  0.31593  1.0000
  C   C90       1.0  0.46256  0.16055  0.27360  1.0000
  H   H113      1.0  0.95369  0.28903  0.32976  1.0000
  C   C91       1.0  0.64944  0.21708  0.27792  1.0000
  H   H114      1.0  0.12882  0.18272  0.22498  1.0000
  H   H115      1.0  0.04543  0.08531  0.20625  1.0000
  S   S24       1.0  0.79721  0.09796  0.21804  1.0000
  H   H116      1.0  0.72995  0.11745  0.32379  1.0000
  S   S25       1.0  0.42473  0.29715  0.40433  1.0000
  C   C92       1.0  0.61356  0.14223  0.25104  1.0000
  S   S26       1.0  0.42584  0.23904  0.29853  1.0000
  H   H117      1.0  0.20572  0.24394  0.27829  1.0000
  C   C93       1.0  0.57468  0.22103  0.26901  1.0000
  H   H118      1.0  0.13458  0.24438  0.23554  1.0000
  H   H119      1.0  0.95028  0.25658  0.37318  1.0000
  Fe  Fe12      1.0  0.36617  0.26209  0.37056  1.0000
  H   H120      1.0  0.75655  0.26062  0.23241  1.0000
  C   C94       1.0  0.76604  0.30408  0.36242  1.0000
  H   H121      1.0  0.95789  0.25017  0.18892  1.0000
  S   S27       1.0  0.98399  0.14400  0.20793  1.0000
  C   C95       1.0  0.40838  0.07047  0.33329  1.0000
  C   C96       1.0  0.51864  0.23239  0.30936  1.0000
  H   H122      1.0  0.56044  0.21539  0.23101  1.0000
  H   H123      1.0  0.75326  0.28215  0.35677  1.0000
  C   C97       1.0  0.78246  0.27741  0.19975  1.0000
  S   S28       1.0  0.96531  0.20423  0.26581  1.0000
  H   H124      1.0  0.76697  0.29849  0.21494  1.0000
  H   H125      1.0  0.55750  0.07759  0.30141  1.0000
  C   C98       1.0  0.82602  0.31137  0.38902  1.0000
  S   S29       1.0  0.25505  0.28490  0.37726  1.0000
  H   H126      1.0  0.13265  0.21659  0.28896  1.0000
  C   C99       1.0  0.72193  0.09472  0.32610  1.0000
  H   H127      1.0  0.49415  0.24672  0.39090  1.0000
  S   S30       1.0  0.07218  0.14625  0.33769  1.0000
  H   H128      1.0  0.08076  0.10307  0.25790  1.0000
  C   C100      1.0  0.54431  0.28379  0.19822  1.0000
  C   C101      1.0  0.62416  0.28624  0.19195  1.0000
  C   C102      1.0  0.01581  0.18992  0.39951  1.0000
  H   H129      1.0  0.39048  0.08178  0.29736  1.0000
  Fe  Fe13      1.0  0.98196  0.15875  0.29123  1.0000
  C   C103      1.0  0.49777  0.15514  0.21964  1.0000
  H   H130      1.0  0.46348  0.15851  0.18882  1.0000
  C   C104      1.0  0.07883  0.17298  0.38141  1.0000
  H   H131      1.0  0.50675  0.29463  0.22995  1.0000
  Fe  Fe14      1.0  0.83939  0.19330  0.28952  1.0000
  C   C105      1.0  0.57781  0.14769  0.30475  1.0000
  H   H132      1.0  0.84598  0.27703  0.19521  1.0000
  H   H133      1.0  0.78433  0.25569  0.42852  1.0000
  C   C106      1.0  0.15433  0.19931  0.43207  1.0000
  C   C107      1.0  0.20994  0.07738  0.53933  1.0000
  H   H134      1.0  0.04426  0.16199  0.53494  1.0000
  H   H135      1.0  0.02379  0.20479  0.58336  1.0000
  H   H136      1.0  0.78806  0.27848  0.48246  1.0000
  C   C108      1.0  0.01306  0.11497  0.49933  1.0000
  C   C109      1.0  0.98577  0.16629  0.55420  1.0000
  C   C110      1.0  0.82697  0.28934  0.59225  1.0000
  N   N9        1.0  0.93160  0.12184  0.52153  1.0000
  H   H137      1.0  0.97276  0.22383  0.44994  1.0000
  H   H138      1.0  0.46253  0.30750  0.63120  1.0000
  H   H139      1.0  0.22067  0.16720  0.66896  1.0000
  H   H140      1.0  0.21034  0.09401  0.61791  1.0000
  C   C111      1.0  0.81569  0.31377  0.62118  1.0000
  H   H141      1.0  0.85809  0.25155  0.46617  1.0000
  C   C112      1.0  0.84790  0.15714  0.57549  1.0000
  C   C113      1.0  0.62606  0.19512  0.51534  1.0000
  C   C114      1.0  0.32493  0.16295  0.57091  1.0000
  C   C115      1.0  0.24403  0.08450  0.58278  1.0000
  H   H142      1.0  0.42795  0.14753  0.63498  1.0000
  C   C116      1.0  0.32227  0.07975  0.58005  1.0000
  S   S31       1.0  0.36817  0.09046  0.63111  1.0000
  C   C117      1.0  0.72515  0.26444  0.66045  1.0000
  N   N10       1.0  0.33744  0.17538  0.62135  1.0000
  C   C118      1.0  0.82412  0.26787  0.44798  1.0000
  Fe  Fe15      1.0  0.65328  0.07807  0.61484  1.0000
  C   C119      1.0  0.51049  0.21827  0.50029  1.0000
  S   S32       1.0  0.58318  0.11711  0.61992  1.0000
  H   H143      1.0  0.01762  0.09470  0.47863  1.0000
  H   H144      1.0  0.90770  0.31172  0.47166  1.0000
  H   H145      1.0  0.83467  0.09989  0.57770  1.0000
  H   H146      1.0  0.25980  0.25742  0.67217  1.0000
  H   H147      1.0  0.57945  0.30113  0.56029  1.0000
  C   C120      1.0  0.28120  0.16293  0.67068  1.0000
  H   H148      1.0  0.20767  0.20262  0.44478  1.0000
  C   C121      1.0  0.63610  0.21560  0.55121  1.0000
  H   H149      1.0  0.68439  0.21449  0.57124  1.0000
  C   C122      1.0  0.25080  0.16280  0.55805  1.0000
  C   C123      1.0  0.32700  0.20648  0.61547  1.0000
  S   S33       1.0  0.54136  0.10275  0.50336  1.0000
  H   H150      1.0  0.04241  0.13162  0.46752  1.0000
  H   H151      1.0  0.08263  0.27396  0.59383  1.0000
  H   H152      1.0  0.36510  0.21626  0.57718  1.0000
  C   C124      1.0  0.90083  0.19899  0.60632  1.0000
  C   C125      1.0  0.56259  0.19620  0.49048  1.0000
  Fe  Fe16      1.0  0.38161  0.27273  0.48602  1.0000
  H   H153      1.0  0.89238  0.21845  0.62703  1.0000
  C   C126      1.0  0.89242  0.12443  0.47441  1.0000
  H   H154      1.0  0.87322  0.28890  0.55658  1.0000
  H   H155      1.0  0.77970  0.18847  0.62088  1.0000
  C   C127      1.0  0.78135  0.26473  0.61168  1.0000
  H   H156      1.0  0.14977  0.08114  0.54107  1.0000
  H   H157      1.0  0.83087  0.12976  0.48695  1.0000
  C   C128      1.0  0.37219  0.14081  0.48428  1.0000
  H   H158      1.0  0.96765  0.28249  0.45052  1.0000
  H   H159      1.0  0.44424  0.15197  0.53741  1.0000
  Fe  Fe17      1.0  0.63627  0.12558  0.53042  1.0000
  S   S34       1.0  0.69288  0.16823  0.50188  1.0000
  C   C129      1.0  0.83750  0.18207  0.60291  1.0000
  C   C130      1.0  0.41556  0.17060  0.63223  1.0000
  H   H160      1.0  0.18054  0.15040  0.50249  1.0000
  Fe  Fe18      1.0  0.49456  0.09054  0.59349  1.0000
  H   H161      1.0  0.42164  0.17847  0.67215  1.0000
  H   H162      1.0  0.34151  0.21716  0.65052  1.0000
  C   C131      1.0  0.89671  0.09734  0.56021  1.0000
  H   H163      1.0  0.46136  0.18206  0.60028  1.0000
  S   S35       1.0  0.32895  0.23674  0.45185  1.0000
  C   C132      1.0  0.75804  0.31369  0.66902  1.0000
  H   H164      1.0  0.79084  0.24572  0.58969  1.0000
  H   H165      1.0  0.46267  0.21910  0.48019  1.0000
  H   H166      1.0  0.04601  0.11235  0.53257  1.0000
  S   S36       1.0  0.45619  0.26697  0.54810  1.0000
  H   H167      1.0  0.90096  0.07704  0.53967  1.0000
  C   C133      1.0  0.38575  0.15214  0.53183  1.0000
  H   H168      1.0  0.55504  0.18053  0.46231  1.0000
  S   S37       1.0  0.10159  0.24431  0.49073  1.0000
  C   C134      1.0  0.23776  0.15102  0.51082  1.0000
  C   C135      1.0  0.92242  0.14838  0.55036  1.0000
  H   H169      1.0  0.41916  0.13216  0.45569  1.0000
  H   H170      1.0  0.26714  0.21182  0.61310  1.0000
  C   C136      1.0  0.29825  0.13996  0.47411  1.0000
  C   C137      1.0  0.52067  0.23896  0.53586  1.0000
  S   S38       1.0  0.71083  0.08771  0.52663  1.0000
  H   H171      1.0  0.79660  0.14505  0.57327  1.0000
  C   C138      1.0  0.58275  0.23717  0.56227  1.0000
  H   H172      1.0  0.20250  0.17194  0.58424  1.0000
  H   H173      1.0  0.58996  0.25237  0.59133  1.0000
  C   C139      1.0  0.97474  0.19114  0.58201  1.0000
  H   H174      1.0  0.92538  0.09435  0.59580  1.0000
  Fe  Fe19      1.0  0.22231  0.26220  0.46162  1.0000
  C   C140      1.0  0.09171  0.21631  0.45019  1.0000
  S   S39       1.0  0.27173  0.29617  0.50317  1.0000
  S   S40       1.0  0.72134  0.07257  0.68006  1.0000
  H   H175      1.0  0.52865  0.30955  0.67607  1.0000
  H   H176      1.0  0.93396  0.13535  0.67024  1.0000
  H   H177      1.0  0.97730  0.27277  0.66951  1.0000
  H   H178      1.0  0.16527  0.29553  0.64749  1.0000
  H   H179      1.0  0.64461  0.30871  0.60162  1.0000
  H   H180      1.0  0.89436  0.10439  0.45319  1.0000
  C   C141      1.0  0.09581  0.29663  0.58764  1.0000
  H   H181      1.0  0.28716  0.13945  0.67625  1.0000
  C   C142      1.0  0.14364  0.30914  0.61768  1.0000
  H   H182      1.0  0.28761  0.13044  0.43799  1.0000
  C   C143      1.0  0.25469  0.06613  0.49296  1.0000
  H   H183      1.0  0.91959  0.14173  0.44322  1.0000
  H   H184      1.0  0.03149  0.30301  0.52406  1.0000
  C   C144      1.0  0.93375  0.29999  0.43552  1.0000
  C   C145      1.0  0.06795  0.31290  0.54749  1.0000
  H   H185      1.0  0.29137  0.31350  0.63387  1.0000
  C   C146      1.0  0.36519  0.06682  0.53530  1.0000
  C   C147      1.0  0.02181  0.21118  0.43496  1.0000
  C   C148      1.0  0.41333  0.52605  0.90610  1.0000
  C   C149      1.0  0.03187  0.46842  0.71765  1.0000
  C   C150      1.0  0.69742  0.50808  0.82321  1.0000
  C   C151      1.0  0.40981  0.41074  0.90667  1.0000
  H   H186      1.0  0.28457  0.52505  0.82246  1.0000
  S   S41       1.0  0.39461  0.47726  0.73104  1.0000
  C   C152      1.0  0.51643  0.40568  0.74790  1.0000
  S   S42       1.0  0.21068  0.52163  0.72139  1.0000
  H   H187      1.0  0.75473  0.44600  0.88173  1.0000
  H   H188      1.0  0.66454  0.54692  0.74286  1.0000
  H   H189      1.0  0.30528  0.38626  0.84510  1.0000
  Fe  Fe20      1.0  0.76686  0.37934  0.78455  1.0000
  C   C153      1.0  0.10590  0.47875  0.71870  1.0000
  S   S43       1.0  0.88288  0.47478  0.70497  1.0000
  C   C154      1.0  0.20122  0.36716  0.89290  1.0000
  H   H190      1.0  0.84552  0.53075  0.79298  1.0000
  Fe  Fe21      1.0  0.87101  0.42727  0.71947  1.0000
  C   C155      1.0  0.67084  0.55562  0.78183  1.0000
  N   N11       1.0  0.01550  0.45935  0.90812  1.0000
  C   C156      1.0  0.80041  0.53983  0.77253  1.0000
  C   C157      1.0  0.26325  0.38680  0.88333  1.0000
  H   H191      1.0  0.90987  0.36423  0.89954  1.0000
  H   H192      1.0  0.28654  0.45653  0.86110  1.0000
  C   C158      1.0  0.74199  0.48890  0.84933  1.0000
  H   H193      1.0  0.15018  0.46404  0.72440  1.0000
  C   C159      1.0  0.57719  0.37359  0.80573  1.0000
  S   S44       1.0  0.85363  0.40861  0.80666  1.0000
  H   H194      1.0  0.40403  0.34600  0.79337  1.0000
  H   H195      1.0  0.11389  0.43424  0.87667  1.0000
  S   S45       1.0  0.37515  0.39484  0.72536  1.0000
  C   C160      1.0  0.98627  0.53590  0.85461  1.0000
  H   H196      1.0  0.42566  0.52868  0.81777  1.0000
  H   H197      1.0  0.90418  0.43765  0.92746  1.0000
  H   H198      1.0  0.61232  0.55636  0.80845  1.0000
  H   H199      1.0  0.01339  0.55129  0.82140  1.0000
  C   C161      1.0  0.38577  0.52651  0.85739  1.0000
  H   H200      1.0  0.94855  0.44217  0.85575  1.0000
  H   H201      1.0  0.62769  0.41362  0.76583  1.0000
  H   H202      1.0  0.80072  0.52757  0.73595  1.0000
  C   C162      1.0  0.45341  0.38660  0.75545  1.0000
  H   H203      1.0  0.59165  0.50949  0.79076  1.0000
  C   C163      1.0  0.62939  0.49664  0.81053  1.0000
  S   S46       1.0  0.15617  0.52429  0.91580  1.0000
  H   H204      1.0  0.55537  0.45984  0.81346  1.0000
  H   H205      1.0  0.01980  0.44584  0.72244  1.0000
  H   H206      1.0  0.76824  0.54117  0.88305  1.0000
  H   H207      1.0  0.41870  0.39737  0.87123  1.0000
  H   H208      1.0  0.79523  0.49581  0.85929  1.0000
  H   H209      1.0  0.19636  0.35240  0.86226  1.0000
  H   H210      1.0  0.06554  0.50451  0.82679  1.0000
  C   C164      1.0  0.45248  0.36094  0.78778  1.0000
  H   H211      1.0  0.51755  0.42556  0.72296  1.0000
  H   H212      1.0  0.98256  0.41578  0.90027  1.0000
  H   H213      1.0  0.51241  0.33502  0.83920  1.0000
  C   C165      1.0  0.97425  0.48737  0.71010  1.0000
  C   C166      1.0  0.06310  0.52697  0.70927  1.0000
  H   H214      1.0  0.18680  0.32276  0.71275  1.0000
  C   C167      1.0  0.01551  0.50857  0.85783  1.0000
  C   C168      1.0  0.18996  0.34564  0.69797  1.0000
  H   H215      1.0  0.34912  0.43191  0.82324  1.0000
  H   H216      1.0  0.08374  0.45721  0.82599  1.0000
  H   H217      1.0  0.63518  0.42758  0.86031  1.0000
  C   C169      1.0  0.60723  0.46796  0.82397  1.0000
  C   C170      1.0  0.00922  0.34049  0.86583  1.0000
  Fe  Fe22      1.0  0.94187  0.37783  0.77216  1.0000
  H   H218      1.0  0.22700  0.35604  0.72229  1.0000
  S   S47       1.0  0.04144  0.36519  0.80956  1.0000
  C   C171      1.0  0.98350  0.48802  0.90171  1.0000
  C   C172      1.0  0.57890  0.39891  0.77221  1.0000
  S   S48       1.0  0.85401  0.34653  0.75819  1.0000
  H   H219      1.0  0.67020  0.55102  0.88944  1.0000
  C   C173      1.0  0.12123  0.50808  0.71495  1.0000
  C   C174      1.0  0.27083  0.40663  0.92222  1.0000
  S   S49       1.0  0.77699  0.40026  0.69939  1.0000
  C   C175      1.0  0.96026  0.43774  0.89768  1.0000
  S   S50       1.0  0.65281  0.36570  0.83908  1.0000
  C   C176      1.0  0.65200  0.44984  0.85007  1.0000
  C   C177      1.0  0.34067  0.44470  0.85967  1.0000
  C   C178      1.0  0.51370  0.35471  0.81373  1.0000
  S   S51       1.0  0.51158  0.53025  0.90368  1.0000
  H   H220      1.0  0.13126  0.35411  0.70947  1.0000
  N   N12       1.0  0.33790  0.42686  0.91173  1.0000
  H   H221      1.0  0.38907  0.46082  0.85144  1.0000
  H   H222      1.0  0.13417  0.47181  0.87383  1.0000
  C   C179      1.0  0.71939  0.46027  0.86237  1.0000
  C   C180      1.0  0.30625  0.52435  0.86003  1.0000
  C   C181      1.0  0.09017  0.45563  0.86950  1.0000
  C   C182      1.0  0.25498  0.52263  0.91132  1.0000
  H   H223      1.0  0.46167  0.42516  0.90016  1.0000
  N   N13       1.0  0.72301  0.53833  0.80960  1.0000
  C   C183      1.0  0.92433  0.54357  0.89467  1.0000
  C   C184      1.0  0.94163  0.34509  0.90408  1.0000
  C   C185      1.0  0.72748  0.55183  0.86075  1.0000
  C   C186      1.0  0.99023  0.51670  0.70564  1.0000
  S   S52       1.0  0.96425  0.39781  0.68562  1.0000
  H   H224      1.0  0.81968  0.56207  0.75734  1.0000
  H   H225      1.0  0.74868  0.33251  0.69150  1.0000
  H   H226      1.0  0.07494  0.54960  0.70683  1.0000
  H   H227      1.0  0.90349  0.56507  0.89310  1.0000
  H   H228      1.0  0.94679  0.53158  0.69888  1.0000
  Fe  Fe23      1.0  0.30988  0.49581  0.68470  1.0000
  S   S53       1.0  0.40806  0.43336  0.12340  1.0000
  H   H229      1.0  0.38231  0.52292  0.99461  1.0000
  H   H230      1.0  0.63190  0.41702  0.08084  1.0000
  S   S54       1.0  0.65773  0.51653  0.99732  1.0000
  C   C187      1.0  0.56525  0.37735  0.99184  1.0000
  C   C188      1.0  0.02815  0.45358  0.96499  1.0000
  H   H231      1.0  0.74775  0.51637  0.14148  1.0000
  S   S55       1.0  0.15230  0.32625  0.16833  1.0000
  C   C189      1.0  0.91378  0.48950  0.16758  1.0000
  C   C190      1.0  0.15116  0.38554  0.98071  1.0000
  C   C191      1.0  0.75663  0.37520  0.13436  1.0000
  S   S56       1.0  0.61934  0.55293  0.13596  1.0000
  C   C192      1.0  0.80699  0.51686  0.14947  1.0000
  N   N14       1.0  0.83509  0.48765  0.15680  1.0000
  C   C193      1.0  0.84136  0.47440  0.10379  1.0000
  S   S57       1.0  0.54561  0.46169  0.99274  1.0000
  H   H232      1.0  0.62604  0.38198  0.99427  1.0000
  C   C194      1.0  0.36187  0.52304  0.95703  1.0000
  S   S58       1.0  0.99230  0.55259  0.03319  1.0000
  H   H233      1.0  0.21216  0.42013  0.00222  1.0000
  Fe  Fe24      1.0  0.59292  0.51929  0.08415  1.0000
  C   C195      1.0  0.14555  0.36640  0.94171  1.0000
  H   H234      1.0  0.09811  0.35087  0.94948  1.0000
  C   C196      1.0  0.29201  0.46484  0.09376  1.0000
  C   C197      1.0  0.26550  0.41450  0.11863  1.0000
  H   H235      1.0  0.40856  0.39627  0.94431  1.0000
  C   C198      1.0  0.81856  0.39822  0.04538  1.0000
  H   H236      1.0  0.78522  0.47375  0.09080  1.0000
  S   S59       1.0  0.99184  0.37198  0.13890  1.0000
  H   H237      1.0  0.33107  0.48311  0.08711  1.0000
  H   H238      1.0  0.65379  0.33075  0.99240  1.0000
  S   S60       1.0  0.47649  0.51449  0.06573  1.0000
  C   C199      1.0  0.68714  0.38761  0.12948  1.0000
  N   N15       1.0  0.53981  0.34793  0.01419  1.0000
  H   H239      1.0  0.95577  0.50043  0.13214  1.0000
  C   C200      1.0  0.68483  0.40667  0.08379  1.0000
  H   H240      1.0  0.86296  0.45233  0.10643  1.0000
  H   H241      1.0  0.97370  0.45182  0.99668  1.0000
  H   H242      1.0  0.87161  0.36732  0.09166  1.0000
  C   C201      1.0  0.75198  0.41320  0.04351  1.0000
  H   H243      1.0  0.51647  0.36182  0.09730  1.0000
  H   H244      1.0  0.88270  0.48658  0.06976  1.0000
  H   H245      1.0  0.24347  0.51922  0.99911  1.0000
  H   H246      1.0  0.51820  0.32374  0.09314  1.0000
  H   H247      1.0  0.06492  0.47077  0.97564  1.0000
  H   H248      1.0  0.56231  0.38077  0.94755  1.0000
  Fe  Fe25      1.0  0.54115  0.50909  0.97960  1.0000
  H   H249      1.0  0.21800  0.49486  0.18431  1.0000
  H   H250      1.0  0.52900  0.39350  0.01461  1.0000
  C   C202      1.0  0.16375  0.44488  0.09993  1.0000
  H   H251      1.0  0.05703  0.43310  0.97014  1.0000
  H   H252      1.0  0.24626  0.32947  0.99453  1.0000
  H   H253      1.0  0.40550  0.36882  0.07442  1.0000
  S   S61       1.0  0.75615  0.44190  0.99426  1.0000
  H   H254      1.0  0.33838  0.43447  0.99593  1.0000
  H   H255      1.0  0.88736  0.48095  0.97230  1.0000
  C   C203      1.0  0.33660  0.44642  0.95597  1.0000
  H   H256      1.0  0.28388  0.39374  0.13145  1.0000
  H   H257      1.0  0.75798  0.31753  0.12106  1.0000
  C   C204      1.0  0.39677  0.35525  0.04299  1.0000
  C   C205      1.0  0.21215  0.40563  0.97095  1.0000
  C   C206      1.0  0.91522  0.32491  0.94861  1.0000
  H   H258      1.0  0.86317  0.32854  0.97844  1.0000
  Fe  Fe26      1.0  0.49126  0.46761  0.08043  1.0000
  H   H259      1.0  0.86973  0.40223  0.01317  1.0000
  H   H260      1.0  0.28463  0.45973  0.96150  1.0000
  C   C207      1.0  0.30527  0.33368  0.99755  1.0000
  C   C208      1.0  0.21524  0.46831  0.08899  1.0000
  H   H261      1.0  0.19478  0.48927  0.07984  1.0000
  Fe  Fe27      1.0  0.01368  0.41390  0.16887  1.0000
  Fe  Fe28      1.0  0.65608  0.46959  0.01864  1.0000
  H   H262      1.0  0.27310  0.35868  0.06673  1.0000
  C   C209      1.0  0.82042  0.37900  0.09058  1.0000
  C   C210      1.0  0.45962  0.34300  0.00799  1.0000
  S   S62       1.0  0.06499  0.44930  0.10587  1.0000
  C   C211      1.0  0.28291  0.52143  0.95960  1.0000
  C   C212      1.0  0.54481  0.34450  0.07322  1.0000
  C   C213      1.0  0.32074  0.35017  0.03825  1.0000
  H   H263      1.0  0.10791  0.38481  0.01885  1.0000
  H   H264      1.0  0.84032  0.52942  0.96754  1.0000
  C   C214      1.0  0.19006  0.41784  0.11202  1.0000
  H   H265      1.0  0.60556  0.34524  0.07832  1.0000
  H   H266      1.0  0.84451  0.52963  0.11419  1.0000
  C   C215      1.0  0.31617  0.43802  0.11044  1.0000
  C   C216      1.0  0.44171  0.32713  0.96569  1.0000
  Fe  Fe29      1.0  0.11023  0.55462  0.97886  1.0000
  C   C217      1.0  0.59486  0.32793  0.98457  1.0000
  H   H267      1.0  0.15179  0.39936  0.11738  1.0000
  S   S63       1.0  0.60232  0.47300  0.10747  1.0000
  C   C218      1.0  0.36564  0.32248  0.96095  1.0000
  H   H268      1.0  0.93542  0.46801  0.17582  1.0000
  H   H269      1.0  0.63664  0.38391  0.16238  1.0000
  H   H270      1.0  0.74118  0.43874  0.15910  1.0000
  H   H271      1.0  0.60224  0.33151  0.93906  1.0000
  H   H272      1.0  0.30657  0.56540  0.10332  1.0000
  H   H273      1.0  0.38725  0.46156  0.94646  1.0000
  C   C219      1.0  0.91734  0.49598  0.93977  1.0000
  H   H274      1.0  0.48537  0.31762  0.93608  1.0000
  C   C220      1.0  0.88919  0.52351  0.93679  1.0000
  S   S64       1.0  0.03516  0.54664  0.18420  1.0000
  H   H275      1.0  0.63181  0.51978  0.23040  1.0000
  N   N16       1.0  0.54330  0.52587  0.30250  1.0000
  C   C221      1.0  0.51895  0.49553  0.30442  1.0000
  C   C222      1.0  0.78300  0.47170  0.20410  1.0000
  Fe  Fe30      1.0  0.05507  0.35382  0.20120  1.0000
  H   H276      1.0  0.80603  0.49936  0.26562  1.0000
  S   S65       1.0  0.76666  0.35765  0.19687  1.0000
  H   H277      1.0  0.36489  0.49867  0.38261  1.0000
  H   H278      1.0  0.44342  0.41655  0.30766  1.0000
  H   H279      1.0  0.70365  0.36967  0.32936  1.0000
  H   H280      1.0  0.67783  0.31876  0.32047  1.0000
  H   H281      1.0  0.66546  0.52110  0.29289  1.0000
  H   H282      1.0  0.19163  0.33934  0.35623  1.0000
  C   C223      1.0  0.48150  0.45533  0.25709  1.0000
  H   H283      1.0  0.18370  0.43322  0.28624  1.0000
  C   C224      1.0  0.15266  0.48653  0.32338  1.0000
  C   C225      1.0  0.73889  0.44718  0.19839  1.0000
  H   H284      1.0  0.47245  0.44678  0.21958  1.0000
  C   C226      1.0  0.62312  0.53005  0.26977  1.0000
  H   H285      1.0  0.30655  0.54330  0.35427  1.0000
  C   C227      1.0  0.20832  0.37495  0.40224  1.0000
  H   H286      1.0  0.48313  0.53348  0.38473  1.0000
  S   S66       1.0  0.90422  0.41213  0.23326  1.0000
  H   H287      1.0  0.27092  0.45526  0.26427  1.0000
  H   H288      1.0  0.05694  0.53678  0.40268  1.0000
  C   C228      1.0  0.09480  0.36682  0.36517  1.0000
  C   C229      1.0  0.50795  0.48354  0.25587  1.0000
  C   C230      1.0  0.72213  0.32490  0.34170  1.0000
  C   C231      1.0  0.33563  0.51184  0.41358  1.0000
  C   C232      1.0  0.54157  0.53605  0.35779  1.0000
  C   C233      1.0  0.68517  0.44172  0.29660  1.0000
  C   C234      1.0  0.69101  0.43245  0.24412  1.0000
  N   N17       1.0  0.16504  0.47766  0.26649  1.0000
  H   H289      1.0  0.83821  0.53567  0.35398  1.0000
  H   H290      1.0  0.08335  0.52294  0.30829  1.0000
  H   H291      1.0  0.80497  0.38387  0.37770  1.0000
  C   C235      1.0  0.77516  0.48067  0.25814  1.0000
  C   C236      1.0  0.16693  0.35828  0.37362  1.0000
  H   H292      1.0  0.96144  0.52503  0.29358  1.0000
  C   C237      1.0  0.50566  0.47706  0.35360  1.0000
  C   C238      1.0  0.83749  0.34082  0.39519  1.0000
  H   H293      1.0  0.26110  0.50714  0.23787  1.0000
  H   H294      1.0  0.22243  0.45448  0.35748  1.0000
  Fe  Fe31      1.0  0.97142  0.39004  0.28974  1.0000
  C   C239      1.0  0.46571  0.43821  0.30649  1.0000
  C   C240      1.0  0.30256  0.53703  0.39747  1.0000
  S   S67       1.0  0.08243  0.39596  0.22834  1.0000
  H   H295      1.0  0.51945  0.49601  0.21658  1.0000
  H   H296      1.0  0.64805  0.43018  0.33184  1.0000
  S   S68       1.0  0.97469  0.40308  0.37373  1.0000
  Fe  Fe32      1.0  0.88642  0.36840  0.20716  1.0000
  C   C241      1.0  0.47819  0.44901  0.35452  1.0000
  C   C242      1.0  0.79325  0.36150  0.37420  1.0000
  H   H297      1.0  0.05531  0.45517  0.28320  1.0000
  H   H298      1.0  0.72277  0.47304  0.34449  1.0000
  S   S69       1.0  0.29985  0.36524  0.41125  1.0000
  H   H299      1.0  0.17069  0.52048  0.22716  1.0000
  S   S70       1.0  0.94793  0.34599  0.26748  1.0000
  C   C243      1.0  0.18521  0.47230  0.36508  1.0000
  H   H300      1.0  0.65898  0.41348  0.23879  1.0000
  H   H301      1.0  0.55821  0.55900  0.35498  1.0000
  H   H302      1.0  0.05449  0.49072  0.25127  1.0000
  H   H303      1.0  0.63898  0.55307  0.25909  1.0000
  H   H304      1.0  0.43049  0.54013  0.29670  1.0000
  H   H305      1.0  0.46487  0.43581  0.39317  1.0000
  C   C244      1.0  0.73622  0.35358  0.34708  1.0000
  C   C245      1.0  0.92598  0.54111  0.27947  1.0000
  C   C246      1.0  0.85567  0.54689  0.31352  1.0000
  H   H306      1.0  0.21761  0.44512  0.21546  1.0000
  H   H307      1.0  0.08103  0.42776  0.43068  1.0000
  C   C247      1.0  0.20554  0.50105  0.22739  1.0000
  C   C248      1.0  0.72720  0.46580  0.30362  1.0000
  H   H308      1.0  0.06409  0.35422  0.34176  1.0000
  C   C249      1.0  0.10417  0.40815  0.41559  1.0000
  C   C250      1.0  0.21142  0.45172  0.25809  1.0000
  H   H309      1.0  0.09674  0.46337  0.21106  1.0000
  C   C251      1.0  0.94884  0.55543  0.22711  1.0000
  C   C252      1.0  0.08960  0.47147  0.25262  1.0000
  C   C253      1.0  0.10710  0.51033  0.33833  1.0000
  C   C254      1.0  0.06323  0.39171  0.38638  1.0000
  H   H310      1.0  0.58352  0.52497  0.37885  1.0000
  H   H311      1.0  0.80544  0.52895  0.18630  1.0000
  H   H312      1.0  0.51293  0.48406  0.39255  1.0000
  C   C255      1.0  0.09226  0.51863  0.39212  1.0000
  C   C256      1.0  0.49182  0.54427  0.27608  1.0000
  H   H313      1.0  0.49793  0.54130  0.23159  1.0000
  C   C257      1.0  0.17694  0.39994  0.42311  1.0000
  Fe  Fe33      1.0  0.31043  0.31775  0.41850  1.0000
  H   H314      1.0  0.88184  0.34862  0.41449  1.0000
  C   C258      1.0  0.12394  0.50397  0.43216  1.0000
  C   C259      1.0  0.17037  0.48093  0.41871  1.0000
  H   H315      1.0  0.91654  0.50144  0.20363  1.0000
  H   H316      1.0  0.74063  0.53956  0.66245  1.0000
  Fe  Fe34      1.0  0.48485  0.49382  0.65804  1.0000
  S   S71       1.0  0.87739  0.34355  0.60034  1.0000
  C   C260      1.0  0.60927  0.31908  0.57432  1.0000
  C   C261      1.0  0.33115  0.50389  0.46947  1.0000
  C   C262      1.0  0.66873  0.51734  0.61881  1.0000
  C   C263      1.0  0.26209  0.55378  0.43717  1.0000
  H   H317      1.0  0.72428  0.50197  0.48484  1.0000
  H   H318      1.0  0.28349  0.51409  0.55261  1.0000
  H   H319      1.0  0.40126  0.41426  0.56106  1.0000
  Fe  Fe35      1.0  0.86900  0.36900  0.67397  1.0000
  C   C264      1.0  0.50274  0.34513  0.51537  1.0000
  H   H320      1.0  0.26217  0.38727  0.58121  1.0000
  C   C265      1.0  0.46151  0.36047  0.48139  1.0000
  C   C266      1.0  0.79397  0.52488  0.52919  1.0000
  C   C267      1.0  0.79906  0.53475  0.57968  1.0000
  H   H321      1.0  0.86298  0.45469  0.46732  1.0000
  C   C268      1.0  0.23444  0.38186  0.62528  1.0000
  H   H322      1.0  0.45914  0.33653  0.67433  1.0000
  H   H323      1.0  0.47121  0.38793  0.62209  1.0000
  S   S72       1.0  0.48488  0.45423  0.61352  1.0000
  S   S73       1.0  0.86922  0.53277  0.47248  1.0000
  C   C269      1.0  0.49879  0.32253  0.64814  1.0000
  C   C270      1.0  0.91904  0.45805  0.47934  1.0000
  H   H324      1.0  0.56281  0.37176  0.65923  1.0000
  C   C271      1.0  0.66475  0.50617  0.56890  1.0000
  C   C272      1.0  0.99259  0.45186  0.54998  1.0000
  N   N18       1.0  0.92000  0.44366  0.53409  1.0000
  H   H325      1.0  0.07876  0.50884  0.59418  1.0000
  H   H326      1.0  0.96487  0.45035  0.44658  1.0000
  C   C273      1.0  0.47143  0.37993  0.58266  1.0000
  C   C274      1.0  0.28870  0.52026  0.50932  1.0000
  H   H327      1.0  0.22196  0.55791  0.52411  1.0000
  C   C275      1.0  0.73646  0.53114  0.62422  1.0000
  S   S74       1.0  0.04439  0.56054  0.53445  1.0000
  S   S75       1.0  0.29642  0.45624  0.64327  1.0000
  H   H328      1.0  0.95332  0.40454  0.49614  1.0000
  C   C276      1.0  0.53866  0.55249  0.49145  1.0000
  C   C277      1.0  0.43037  0.39505  0.54833  1.0000
  C   C278      1.0  0.42589  0.38546  0.49766  1.0000
  H   H329      1.0  0.11449  0.51112  0.47322  1.0000
  H   H330      1.0  0.52682  0.32549  0.50083  1.0000
  H   H331      1.0  0.27410  0.39040  0.64972  1.0000
  H   H332      1.0  0.53939  0.52944  0.49268  1.0000
  C   C279      1.0  0.59951  0.35892  0.62908  1.0000
  H   H333      1.0  0.61248  0.49556  0.56443  1.0000
  C   C280      1.0  0.13354  0.46964  0.57496  1.0000
  C   C281      1.0  0.85211  0.45245  0.57464  1.0000
  C   C282      1.0  0.25359  0.54508  0.49318  1.0000
  C   C283      1.0  0.00343  0.47955  0.56662  1.0000
  H   H334      1.0  0.95895  0.49511  0.56955  1.0000
  H   H335      1.0  0.19665  0.47009  0.44973  1.0000
  C   C284      1.0  0.16672  0.33835  0.60727  1.0000
  H   H336      1.0  0.20915  0.41300  0.44483  1.0000
  H   H337      1.0  0.05378  0.41227  0.53306  1.0000
  H   H338      1.0  0.91676  0.40067  0.56986  1.0000
  H   H339      1.0  0.06824  0.35406  0.50428  1.0000
  H   H340      1.0  0.64932  0.33014  0.53815  1.0000
  H   H341      1.0  0.84706  0.47586  0.57437  1.0000
  H   H342      1.0  0.85517  0.44444  0.61717  1.0000
  N   N19       1.0  0.55408  0.33911  0.60358  1.0000
  H   H343      1.0  0.85351  0.40650  0.52306  1.0000
  C   C285      1.0  0.08896  0.34165  0.53638  1.0000
  S   S76       1.0  0.38175  0.47433  0.48865  1.0000
  H   H344      1.0  0.33735  0.34523  0.64693  1.0000
  H   H345      1.0  0.32191  0.34052  0.57871  1.0000
  H   H346      1.0  0.17985  0.39350  0.63598  1.0000
  H   H347      1.0  0.18703  0.47670  0.58426  1.0000
  H   H348      1.0  0.85127  0.54525  0.58463  1.0000
  C   C286      1.0  0.29603  0.33692  0.62356  1.0000
  H   H349      1.0  0.79676  0.44451  0.56641  1.0000
  S   S77       1.0  0.58938  0.51541  0.67426  1.0000
  N   N20       1.0  0.22071  0.35067  0.63772  1.0000
  H   H350      1.0  0.39355  0.39716  0.47134  1.0000
  C   C287      1.0  0.91083  0.41251  0.53074  1.0000
  S   S78       1.0  0.40067  0.51595  0.61554  1.0000
  H   H351      1.0  0.63715  0.37365  0.59724  1.0000
  H   H352      1.0  0.92976  0.48130  0.47854  1.0000
  H   H353      1.0  0.15398  0.37634  0.55334  1.0000
  H   H354      1.0  0.17453  0.42878  0.55275  1.0000
  C   C288      1.0  0.05621  0.43354  0.54590  1.0000
  C   C289      1.0  0.72791  0.50975  0.52402  1.0000
  C   C290      1.0  0.07242  0.48794  0.57994  1.0000
  C   C291      1.0  0.51079  0.35488  0.56667  1.0000
  C   C292      1.0  0.12583  0.44258  0.55766  1.0000
  Fe  Fe36      1.0  0.39236  0.47503  0.57664  1.0000
  C   C293      1.0  0.13815  0.35428  0.56535  1.0000
  H   H355      1.0  0.45606  0.35280  0.44239  1.0000
  H   H356      1.0  0.41963  0.55436  0.48651  1.0000
  Fe  Fe37      1.0  0.38868  0.43902  0.68395  1.0000
  H   H357      1.0  0.63666  0.34729  0.65351  1.0000
  H   H358      1.0  0.65562  0.55643  0.49744  1.0000
  C   C294      1.0  0.74022  0.78136  0.90627  1.0000
  C   C295      1.0  0.30019  0.65614  0.73853  1.0000
  H   H359      1.0  0.55227  0.76396  0.82664  1.0000
  C   C296      1.0  0.88309  0.61485  0.81264  1.0000
  C   C297      1.0  0.52485  0.77268  0.86442  1.0000
  H   H360      1.0  0.99576  0.73716  0.70970  1.0000
  Fe  Fe38      1.0  0.68410  0.67275  0.80463  1.0000
  C   C298      1.0  0.31308  0.59207  0.72779  1.0000
  H   H361      1.0  0.33750  0.75552  0.80611  1.0000
  C   C299      1.0  0.32557  0.68378  0.81103  1.0000
  C   C300      1.0  0.53909  0.80137  0.87129  1.0000
  C   C301      1.0  0.47277  0.75599  0.90497  1.0000
  S   S79       1.0  0.72259  0.69214  0.71793  1.0000
  H   H362      1.0  0.89013  0.66849  0.85900  1.0000
  H   H363      1.0  0.35997  0.81068  0.89457  1.0000
  H   H364      1.0  0.01752  0.73586  0.83195  1.0000
  S   S80       1.0  0.65728  0.71477  0.83843  1.0000
  H   H365      1.0  0.15118  0.59557  0.82728  1.0000
  N   N21       1.0  0.00072  0.69035  0.84640  1.0000
  H   H366      1.0  0.00661  0.66787  0.92412  1.0000
  N   N22       1.0  0.24409  0.60615  0.75724  1.0000
  H   H367      1.0  0.42315  0.58570  0.91888  1.0000
  C   C302      1.0  0.87005  0.61741  0.70227  1.0000
  H   H368      1.0  0.75759  0.63380  0.73140  1.0000
  C   C303      1.0  0.13742  0.68641  0.70726  1.0000
  S   S81       1.0  0.73991  0.77675  0.73730  1.0000
  C   C304      1.0  0.83508  0.77558  0.74483  1.0000
  H   H369      1.0  0.89016  0.70618  0.83812  1.0000
  C   C305      1.0  0.71900  0.80779  0.92558  1.0000
  C   C306      1.0  0.99134  0.77675  0.74784  1.0000
  H   H370      1.0  0.89562  0.69359  0.90723  1.0000
  H   H371      1.0  0.44344  0.61870  0.87723  1.0000
  H   H372      1.0  0.14095  0.62404  0.73777  1.0000
  H   H373      1.0  0.27577  0.78353  0.74280  1.0000
  Fe  Fe39      1.0  0.68279  0.73348  0.75128  1.0000
  H   H374      1.0  0.69749  0.76767  0.89495  1.0000
  C   C307      1.0  0.33236  0.77370  0.83249  1.0000
  C   C308      1.0  0.32693  0.68128  0.75558  1.0000
  H   H375      1.0  0.16910  0.59188  0.70589  1.0000
  C   C309      1.0  0.26899  0.63614  0.83321  1.0000
  C   C310      1.0  0.80965  0.62633  0.74283  1.0000
  H   H376      1.0  0.38670  0.78666  0.81829  1.0000
  C   C311      1.0  0.02918  0.71801  0.86071  1.0000
  C   C312      1.0  0.94401  0.79805  0.77088  1.0000
  H   H377      1.0  0.00171  0.72299  0.90325  1.0000
  Fe  Fe40      1.0  0.53888  0.70721  0.82517  1.0000
  H   H378      1.0  0.20010  0.75283  0.81908  1.0000
  H   H379      1.0  0.34798  0.70297  0.82419  1.0000
  H   H380      1.0  0.88880  0.61428  0.85509  1.0000
  C   C313      1.0  0.98031  0.67846  0.75230  1.0000
  C   C314      1.0  0.95964  0.75401  0.72622  1.0000
  C   C315      1.0  0.29709  0.66126  0.84961  1.0000
  C   C316      1.0  0.00976  0.67391  0.69714  1.0000
  Fe  Fe41      1.0  0.59940  0.68458  0.71301  1.0000
  H   H381      1.0  0.15003  0.69644  0.78669  1.0000
  C   C317      1.0  0.27088  0.80122  0.77030  1.0000
  H   H382      1.0  0.69248  0.57806  0.77125  1.0000
  C   C318      1.0  0.10901  0.69048  0.76285  1.0000
  H   H383      1.0  0.83301  0.75309  0.88270  1.0000
  H   H384      1.0  0.23997  0.57762  0.83040  1.0000
  H   H385      1.0  0.32961  0.76454  0.87548  1.0000
  C   C319      1.0  0.02932  0.68678  0.78705  1.0000
  S   S82       1.0  0.44827  0.72095  0.89366  1.0000
  C   C320      1.0  0.81705  0.62574  0.79775  1.0000
  H   H386      1.0  0.57052  0.61829  0.88845  1.0000
  H   H387      1.0  0.74811  0.70335  0.93292  1.0000
  C   C321      1.0  0.88108  0.75313  0.72565  1.0000
  H   H388      1.0  0.30533  0.65483  0.69489  1.0000
  H   H389      1.0  0.09318  0.66726  0.87213  1.0000
  H   H390      1.0  0.24885  0.61945  0.86541  1.0000
  H   H391      1.0  0.99645  0.59923  0.78326  1.0000
  H   H392      1.0  0.48362  0.66080  0.91524  1.0000
  C   C322      1.0  0.20232  0.58580  0.80266  1.0000
  H   H393      1.0  0.01050  0.64572  0.86838  1.0000
  S   S83       1.0  0.56314  0.66333  0.79846  1.0000
  H   H394      1.0  0.91900  0.67504  0.76661  1.0000
  C   C323      1.0  0.93781  0.60797  0.71680  1.0000
  S   S84       1.0  0.74680  0.64043  0.84735  1.0000
  H   H395      1.0  0.85685  0.73572  0.70828  1.0000
  H   H396      1.0  0.74673  0.57458  0.85208  1.0000
  C   C324      1.0  0.91537  0.68975  0.86312  1.0000
  C   C325      1.0  0.26910  0.63293  0.77680  1.0000
  S   S85       1.0  0.56216  0.72768  0.73912  1.0000
  C   C326      1.0  0.94380  0.60629  0.77210  1.0000
  H   H397      1.0  0.35030  0.69871  0.72552  1.0000
  C   C327      1.0  0.19170  0.61197  0.71862  1.0000
  H   H398      1.0  0.09193  0.71835  0.85947  1.0000
  H   H399      1.0  0.14115  0.78155  0.84222  1.0000
  C   C328      1.0  0.19558  0.77101  0.84544  1.0000
  C   C329      1.0  0.02924  0.66687  0.87909  1.0000
  H   H400      1.0  0.35326  0.58660  0.75550  1.0000
  C   C330      1.0  0.86618  0.79783  0.76817  1.0000
  S   S86       1.0  0.09052  0.77931  0.74356  1.0000
  H   H401      1.0  0.18923  0.76247  0.88893  1.0000
  N   N23       1.0  0.26360  0.79069  0.82879  1.0000
  H   H402      1.0  0.29823  0.66329  0.89242  1.0000
  C   C331      1.0  0.81634  0.77313  0.89956  1.0000
  C   C332      1.0  0.42331  0.60925  0.92034  1.0000
  H   H403      1.0  0.22035  0.81349  0.76350  1.0000
  C   C333      1.0  0.87161  0.79140  0.91182  1.0000
  H   H404      1.0  0.83007  0.81487  0.78437  1.0000
  H   H405      1.0  0.29741  0.57197  0.71151  1.0000
  C   C334      1.0  0.25400  0.81502  0.86384  1.0000
  H   H406      1.0  0.57747  0.81431  0.83881  1.0000
  H   H407      1.0  0.36305  0.61604  0.93372  1.0000
  H   H408      1.0  0.93138  0.78538  0.90481  1.0000
  H   H409      1.0  0.19802  0.69005  0.68898  1.0000
  H   H410      1.0  0.34567  0.60579  0.69182  1.0000
  C   C335      1.0  0.50311  0.81333  0.91949  1.0000
  H   H411      1.0  0.18055  0.56651  0.78693  1.0000
  C   C336      1.0  0.55301  0.61090  0.93295  1.0000
  H   H412      1.0  0.32273  0.81544  0.75573  1.0000
  H   H413      1.0  0.96778  0.81514  0.78939  1.0000
  H   H414      1.0  0.65972  0.81349  0.92866  1.0000
  C   C337      1.0  0.43783  0.76782  0.95354  1.0000
  H   H415      1.0  0.53445  0.76178  0.02541  1.0000
  C   C338      1.0  0.59032  0.75631  0.03327  1.0000
  H   H416      1.0  0.67219  0.67603  0.10349  1.0000
  C   C339      1.0  0.75162  0.58491  0.11199  1.0000
  C   C340      1.0  0.46816  0.69372  0.13290  1.0000
  C   C341      1.0  0.35958  0.57791  0.08917  1.0000
  H   H417      1.0  0.40994  0.65658  0.97675  1.0000
  H   H418      1.0  0.84149  0.70624  0.00112  1.0000
  C   C342      1.0  0.71852  0.68628  0.96371  1.0000
  H   H419      1.0  0.34162  0.58439  0.00792  1.0000
  H   H420      1.0  0.72854  0.78200  0.09317  1.0000
  H   H421      1.0  0.89006  0.80027  0.05274  1.0000
  H   H422      1.0  0.49860  0.79504  0.17452  1.0000
  C   C343      1.0  0.24675  0.70266  0.98722  1.0000
  C   C344      1.0  0.45479  0.79622  0.96151  1.0000
  C   C345      1.0  0.73086  0.74134  0.05834  1.0000
  H   H423      1.0  0.86428  0.60503  0.08977  1.0000
  H   H424      1.0  0.99682  0.75245  0.15189  1.0000
  H   H425      1.0  0.30739  0.70188  0.98796  1.0000
  C   C346      1.0  0.62924  0.77503  0.05923  1.0000
  C   C347      1.0  0.67241  0.67161  0.06013  1.0000
  H   H426      1.0  0.91856  0.58680  0.16849  1.0000
  H   H427      1.0  0.24591  0.74833  0.98250  1.0000
  C   C348      1.0  0.39505  0.70428  0.13283  1.0000
  N   N24       1.0  0.47290  0.61863  0.95723  1.0000
  S   S87       1.0  0.89220  0.61882  0.97377  1.0000
  H   H428      1.0  0.80798  0.69005  0.07019  1.0000
  H   H429      1.0  0.78399  0.73659  0.07098  1.0000
  C   C349      1.0  0.47408  0.59929  0.10812  1.0000
  C   C350      1.0  0.38068  0.58898  0.03414  1.0000
  H   H430      1.0  0.23781  0.62519  0.12266  1.0000
  Fe  Fe42      1.0  0.15121  0.61128  0.01800  1.0000
  H   H431      1.0  0.53282  0.66102  0.16594  1.0000
  C   C351      1.0  0.68770  0.57592  0.09296  1.0000
  C   C352      1.0  0.08611  0.66406  0.17974  1.0000
  H   H432      1.0  0.65879  0.68374  0.95763  1.0000
  S   S88       1.0  0.08759  0.76282  0.99494  1.0000
  S   S89       1.0  0.24433  0.64468  0.00235  1.0000
  H   H433      1.0  0.08997  0.65937  0.99466  1.0000
  C   C353      1.0  0.88538  0.73210  0.16361  1.0000
  S   S90       1.0  0.03714  0.61389  0.07605  1.0000
  H   H434      1.0  0.49913  0.75928  0.15598  1.0000
  C   C354      1.0  0.13265  0.73022  0.98618  1.0000
  H   H435      1.0  0.74628  0.66576  0.95297  1.0000
  H   H436      1.0  0.50869  0.65910  0.98119  1.0000
  C   C355      1.0  0.18552  0.63052  0.15086  1.0000
  Fe  Fe43      1.0  0.14133  0.77668  0.06268  1.0000
  S   S91       1.0  0.38873  0.73784  0.09938  1.0000
  C   C356      1.0  0.69941  0.76761  0.07167  1.0000
  H   H437      1.0  0.42707  0.80528  0.99894  1.0000
  C   C357      1.0  0.20257  0.67752  0.99210  1.0000
  N   N25       1.0  0.72157  0.69287  0.02066  1.0000
  H   H438      1.0  0.27302  0.69693  0.16174  1.0000
  C   C358      1.0  0.49518  0.61075  0.05353  1.0000
  C   C359      1.0  0.40616  0.58310  0.12606  1.0000
  C   C360      1.0  0.81347  0.59910  0.07540  1.0000
  C   C361      1.0  0.21179  0.72898  0.98424  1.0000
  H   H439      1.0  0.54741  0.62371  0.04220  1.0000
  S   S92       1.0  0.15882  0.73991  0.12104  1.0000
  S   S93       1.0  0.10197  0.59981  0.94718  1.0000
  H   H440      1.0  0.82474  0.66842  0.01456  1.0000
  S   S94       1.0  0.09221  0.80480  0.12930  1.0000
  H   H441      1.0  0.39717  0.75509  0.98485  1.0000
  Fe  Fe44      1.0  0.98895  0.59912  0.00629  1.0000
  H   H442      1.0  0.51021  0.60319  0.13703  1.0000
  C   C362      1.0  0.08899  0.70510  0.98869  1.0000
  H   H443      1.0  0.02743  0.70592  0.99227  1.0000
  C   C363      1.0  0.68308  0.58272  0.03806  1.0000
  Fe  Fe45      1.0  0.27554  0.75950  0.11523  1.0000
  H   H444      1.0  0.89013  0.73017  0.12004  1.0000
  C   C364      1.0  0.46901  0.65005  0.95755  1.0000
  H   H445      1.0  0.69306  0.64959  0.05472  1.0000
  C   C365      1.0  0.44953  0.60577  0.01462  1.0000
  H   H446      1.0  0.58673  0.71607  0.00126  1.0000
  S   S95       1.0  0.75258  0.70039  0.17846  1.0000
  H   H447      1.0  0.38953  0.57487  0.16885  1.0000
  C   C366      1.0  0.62124  0.73007  0.01947  1.0000
  H   H448      1.0  0.75497  0.57953  0.15430  1.0000
  C   C367      1.0  0.32950  0.68878  0.16182  1.0000
  C   C368      1.0  0.12418  0.67873  0.99124  1.0000
  C   C369      1.0  0.81035  0.60493  0.02008  1.0000
  H   H449      1.0  0.51880  0.70591  0.11132  1.0000
  C   C370      1.0  0.69261  0.72168  0.03167  1.0000
  H   H450      1.0  0.61152  0.67184  0.05565  1.0000
  H   H451      1.0  0.18112  0.67201  0.10997  1.0000
  C   C371      1.0  0.80247  0.68945  0.02668  1.0000
  H   H452      1.0  0.74223  0.60200  0.95859  1.0000
  S   S96       1.0  0.16937  0.56628  0.04536  1.0000
  C   C372      1.0  0.74432  0.59756  0.00155  1.0000
  H   H453      1.0  0.60400  0.79503  0.07083  1.0000
  C   C373      1.0  0.15350  0.65696  0.14380  1.0000
  S   S97       1.0  0.26126  0.79452  0.05248  1.0000
  Fe  Fe46      1.0  0.05099  0.56747  0.09817  1.0000
  C   C374      1.0  0.47609  0.66846  0.16415  1.0000
  H   H454      1.0  0.06327  0.68478  0.17210  1.0000
  H   H455      1.0  0.63320  0.57586  0.02349  1.0000
  H   H456      1.0  0.59634  0.62055  0.95285  1.0000
  C   C375      1.0  0.94629  0.74467  0.18176  1.0000
  H   H457      1.0  0.40950  0.77520  0.18019  1.0000
  H   H458      1.0  0.55903  0.58735  0.93641  1.0000
  H   H459      1.0  0.01534  0.69685  0.25875  1.0000
  H   H460      1.0  0.89076  0.63738  0.33309  1.0000
  H   H461      1.0  0.98580  0.62622  0.33330  1.0000
  H   H462      1.0  0.03326  0.67469  0.31600  1.0000
  C   C376      1.0  0.46956  0.77388  0.18626  1.0000
  H   H463      1.0  0.58656  0.74861  0.21206  1.0000
  C   C377      1.0  0.43370  0.73526  0.25551  1.0000
  C   C378      1.0  0.04881  0.64481  0.22444  1.0000
  C   C379      1.0  0.94296  0.74593  0.23815  1.0000
  C   C380      1.0  0.81604  0.72291  0.25815  1.0000
  S   S98       1.0  0.64881  0.81332  0.41105  1.0000
  Fe  Fe47      1.0  0.58212  0.66399  0.35780  1.0000
  C   C381      1.0  0.43476  0.78285  0.28521  1.0000
  H   H464      1.0  0.56309  0.74987  0.28459  1.0000
  Fe  Fe48      1.0  0.68094  0.66973  0.24272  1.0000
  H   H465      1.0  0.10028  0.79491  0.36938  1.0000
  C   C382      1.0  0.91757  0.65890  0.22889  1.0000
  C   C383      1.0  0.26585  0.69092  0.36396  1.0000
  C   C384      1.0  0.25560  0.72083  0.35773  1.0000
  H   H466      1.0  0.16009  0.72462  0.25266  1.0000
  H   H467      1.0  0.58432  0.78248  0.24126  1.0000
  C   C385      1.0  0.43817  0.77722  0.34146  1.0000
  H   H468      1.0  0.38764  0.81315  0.23017  1.0000
  C   C386      1.0  0.23402  0.67388  0.32921  1.0000
  S   S99       1.0  0.65032  0.62540  0.22504  1.0000
  S   S100      1.0  0.22312  0.58554  0.41582  1.0000
  C   C387      1.0  0.60916  0.77925  0.41110  1.0000
  H   H469      1.0  0.46190  0.72010  0.22611  1.0000
  S   S101      1.0  0.23569  0.78539  0.18733  1.0000
  N   N26       1.0  0.30444  0.67741  0.40603  1.0000
  C   C388      1.0  0.41076  0.65330  0.19429  1.0000
  Fe  Fe49      1.0  0.11701  0.76921  0.18672  1.0000
  C   C389      1.0  0.15043  0.61108  0.19415  1.0000
  H   H470      1.0  0.05882  0.60179  0.26294  1.0000
  C   C390      1.0  0.82125  0.72040  0.20185  1.0000
  H   H471      1.0  0.43477  0.72576  0.29751  1.0000
  H   H472      1.0  0.38901  0.71108  0.40346  1.0000
  C   C391      1.0  0.36293  0.65734  0.38087  1.0000
  N   N27       1.0  0.97706  0.65288  0.26154  1.0000
  S   S102      1.0  0.70666  0.65651  0.32523  1.0000
  H   H473      1.0  0.68841  0.76864  0.33765  1.0000
  C   C392      1.0  0.99180  0.67872  0.28871  1.0000
  C   C393      1.0  0.19657  0.68604  0.28960  1.0000
  H   H474      1.0  0.86187  0.66419  0.25545  1.0000
  Fe  Fe50      1.0  0.66643  0.61307  0.31059  1.0000
  C   C394      1.0  0.87668  0.73589  0.27628  1.0000
  S   S103      1.0  0.42178  0.62438  0.23987  1.0000
  C   C395      1.0  0.61737  0.73228  0.37721  1.0000
  S   S104      1.0  0.02480  0.75689  0.26090  1.0000
  C   C396      1.0  0.55496  0.76109  0.24561  1.0000
  H   H475      1.0  0.20985  0.75547  0.31399  1.0000
  C   C397      1.0  0.40444  0.79515  0.38140  1.0000
  H   H476      1.0  0.28742  0.65090  0.21489  1.0000
  H   H477      1.0  0.87363  0.73710  0.31991  1.0000
  C   C398      1.0  0.21758  0.73271  0.31802  1.0000
  H   H478      1.0  0.39867  0.64939  0.41022  1.0000
  H   H479      1.0  0.93094  0.61048  0.28963  1.0000
  S   S105      1.0  0.54366  0.61954  0.35050  1.0000
  H   H480      1.0  0.79512  0.59796  0.22996  1.0000
  C   C399      1.0  0.94481  0.63063  0.30610  1.0000
  C   C400      1.0  0.64193  0.76098  0.37139  1.0000
  C   C401      1.0  0.34397  0.69818  0.43346  1.0000
  C   C402      1.0  0.83117  0.58187  0.24350  1.0000
  H   H481      1.0  0.93828  0.68603  0.31537  1.0000
  H   H482      1.0  0.93410  0.67737  0.19803  1.0000
  C   C403      1.0  0.18888  0.71537  0.28369  1.0000
  C   C404      1.0  0.80825  0.56722  0.29556  1.0000
  H   H483      1.0  0.79193  0.80810  0.33783  1.0000
  C   C405      1.0  0.55994  0.72209  0.42234  1.0000
  S   S106      1.0  0.55921  0.68033  0.27678  1.0000
  C   C406      1.0  0.08312  0.61799  0.23065  1.0000
  Fe  Fe51      1.0  0.53014  0.63502  0.26650  1.0000
  H   H484      1.0  0.33690  0.63794  0.36833  1.0000
  C   C407      1.0  0.39343  0.80709  0.27177  1.0000
  C   C408      1.0  0.90126  0.57575  0.20894  1.0000
  C   C409      1.0  0.12676  0.81049  0.33423  1.0000
  H   H485      1.0  0.90701  0.64027  0.20629  1.0000
  H   H486      1.0  0.46824  0.75917  0.35494  1.0000
  H   H487      1.0  0.23765  0.65091  0.33257  1.0000
  H   H488      1.0  0.64418  0.71790  0.34759  1.0000
  N   N28       1.0  0.47242  0.76377  0.24363  1.0000
  C   C410      1.0  0.33752  0.66292  0.19179  1.0000
  H   H489      1.0  0.40228  0.66772  0.34371  1.0000
  S   S107      1.0  0.00895  0.59513  0.42491  1.0000
  H   H490      1.0  0.76626  0.71431  0.28784  1.0000
  H   H491      1.0  0.17381  0.67260  0.26308  1.0000
  H   H492      1.0  0.27587  0.73550  0.38318  1.0000
  H   H493      1.0  0.37256  0.73625  0.25158  1.0000
  H   H494      1.0  0.12329  0.80026  0.29597  1.0000
  H   H495      1.0  0.17510  0.59040  0.19924  1.0000
  S   S108      1.0  0.72012  0.57359  0.33845  1.0000
  H   H496      1.0  0.18865  0.81353  0.33496  1.0000
  H   H497      1.0  0.50475  0.56738  0.27779  1.0000
  H   H498      1.0  0.85599  0.72268  0.42182  1.0000
  H   H499      1.0  0.73602  0.61022  0.41835  1.0000
  H   H500      1.0  0.21541  0.64474  0.43163  1.0000
  H   H501      1.0  0.89143  0.80914  0.25191  1.0000
  S   S109      1.0  0.53260  0.68612  0.43219  1.0000
  H   H502      1.0  0.40996  0.79091  0.42383  1.0000
  C   C411      1.0  0.85007  0.81520  0.33754  1.0000
  H   H503      1.0  0.30286  0.71249  0.45727  1.0000
  H   H504      1.0  0.52522  0.78310  0.48622  1.0000
  C   C412      1.0  0.89440  0.70197  0.58489  1.0000
  H   H505      1.0  0.52910  0.63431  0.49334  1.0000
  C   C413      1.0  0.53516  0.61166  0.49184  1.0000
  H   H506      1.0  0.62372  0.65359  0.52635  1.0000
  H   H507      1.0  0.58290  0.75114  0.55831  1.0000
  H   H508      1.0  0.27257  0.65008  0.48120  1.0000
  H   H509      1.0  0.48040  0.73273  0.49548  1.0000
  C   C414      1.0  0.39419  0.70274  0.60857  1.0000
  H   H510      1.0  0.09817  0.73085  0.48901  1.0000
  H   H511      1.0  0.73421  0.61942  0.56744  1.0000
  H   H512      1.0  0.37395  0.72404  0.61011  1.0000
  C   C415      1.0  0.60500  0.56810  0.49415  1.0000
  S   S110      1.0  0.15365  0.81109  0.58852  1.0000
  H   H513      1.0  0.61410  0.72123  0.59559  1.0000
  S   S111      1.0  0.26521  0.68891  0.57084  1.0000
  C   C416      1.0  0.76667  0.73548  0.57290  1.0000
  C   C417      1.0  0.76607  0.70565  0.56719  1.0000
  H   H514      1.0  0.71757  0.69446  0.55805  1.0000
  H   H515      1.0  0.86506  0.61869  0.65969  1.0000
  C   C418      1.0  0.00248  0.75338  0.46774  1.0000
  H   H516      1.0  0.20218  0.67563  0.47026  1.0000
  Fe  Fe52      1.0  0.27374  0.79706  0.55731  1.0000
  H   H517      1.0  0.74093  0.76146  0.47757  1.0000
  H   H518      1.0  0.83896  0.77014  0.58935  1.0000
  C   C419      1.0  0.67863  0.77091  0.61352  1.0000
  S   S112      1.0  0.10504  0.74308  0.60766  1.0000
  S   S113      1.0  0.01801  0.60024  0.66667  1.0000
  S   S114      1.0  0.27122  0.76501  0.62896  1.0000
  C   C420      1.0  0.82925  0.68927  0.57313  1.0000
  C   C421      1.0  0.38234  0.65426  0.58514  1.0000
  H   H519      1.0  0.79642  0.61863  0.46423  1.0000
  S   S115      1.0  0.07267  0.63021  0.51493  1.0000
  H   H520      1.0  0.22039  0.62400  0.67938  1.0000
  H   H521      1.0  0.77730  0.78680  0.51668  1.0000
  H   H522      1.0  0.66936  0.75726  0.65270  1.0000
  C   C422      1.0  0.49012  0.66879  0.62355  1.0000
  H   H523      1.0  0.37281  0.68730  0.46455  1.0000
  C   C423      1.0  0.04575  0.72924  0.47391  1.0000
  C   C424      1.0  0.83385  0.74762  0.58514  1.0000
  C   C425      1.0  0.46120  0.69614  0.62734  1.0000
  S   S116      1.0  0.02896  0.78573  0.48987  1.0000
  H   H524      1.0  0.72415  0.65658  0.49621  1.0000
  H   H525      1.0  0.49042  0.71234  0.64436  1.0000
  C   C426      1.0  0.08808  0.67759  0.67479  1.0000
  H   H526      1.0  0.70000  0.58369  0.56452  1.0000
  Fe  Fe53      1.0  0.14765  0.77581  0.65527  1.0000
  Fe  Fe54      1.0  0.94335  0.56675  0.49491  1.0000
  H   H527      1.0  0.05344  0.68418  0.46701  1.0000
  C   C427      1.0  0.35385  0.68176  0.58840  1.0000
  C   C428      1.0  0.95095  0.70018  0.44421  1.0000
  H   H528      1.0  0.41610  0.60666  0.48688  1.0000
  H   H529      1.0  0.35123  0.63787  0.56979  1.0000
  H   H530      1.0  0.67939  0.78811  0.50980  1.0000
  H   H531      1.0  0.97171  0.66695  0.67172  1.0000
  Fe  Fe55      1.0  0.22921  0.73428  0.57666  1.0000
  N   N29       1.0  0.70186  0.75371  0.56550  1.0000
  C   C429      1.0  0.68648  0.60652  0.55807  1.0000
  C   C430      1.0  0.72608  0.77335  0.51525  1.0000
  H   H532      1.0  0.82844  0.66672  0.56736  1.0000
  H   H533      1.0  0.64300  0.72600  0.52136  1.0000
  S   S117      1.0  0.23980  0.76563  0.50301  1.0000
  C   C431      1.0  0.52521  0.74058  0.46070  1.0000
  C   C432      1.0  0.02017  0.70270  0.46183  1.0000
  S   S118      1.0  0.89708  0.60267  0.54512  1.0000
  Fe  Fe56      1.0  0.10680  0.59208  0.46797  1.0000
  C   C433      1.0  0.89642  0.73105  0.59119  1.0000
  H   H534      1.0  0.47245  0.62654  0.60028  1.0000
  C   C434      1.0  0.46920  0.59592  0.48861  1.0000
  C   C435      1.0  0.45073  0.64785  0.60241  1.0000
  H   H535      1.0  0.63363  0.61039  0.58942  1.0000
  H   H536      1.0  0.62451  0.78235  0.61267  1.0000
  C   C436      1.0  0.66946  0.64538  0.49399  1.0000
  N   N30       1.0  0.67498  0.61394  0.50153  1.0000
  C   C437      1.0  0.63259  0.73722  0.55994  1.0000
  H   H537      1.0  0.75902  0.58338  0.46690  1.0000
  C   C438      1.0  0.90946  0.72453  0.43562  1.0000
  H   H538      1.0  0.11039  0.67374  0.63203  1.0000
  Fe  Fe57      1.0  0.11937  0.77738  0.53897  1.0000
  Fe  Fe58      1.0  0.96918  0.63086  0.47656  1.0000
  C   C439      1.0  0.60554  0.59819  0.49429  1.0000
  S   S119      1.0  0.57638  0.66061  0.64360  1.0000
  H   H539      1.0  0.94425  0.68942  0.58748  1.0000
  H   H540      1.0  0.72204  0.78767  0.61562  1.0000
  C   C440      1.0  0.24611  0.66126  0.44906  1.0000
  H   H541      1.0  0.65747  0.65207  0.45294  1.0000
  S   S120      1.0  0.91324  0.66656  0.43632  1.0000
  C   C441      1.0  0.74423  0.60608  0.46118  1.0000
  Fe  Fe59      1.0  0.00379  0.59890  0.57946  1.0000
  C   C442      1.0  0.93543  0.75118  0.44719  1.0000
  H   H542      1.0  0.94744  0.74106  0.59940  1.0000
  C   C443      1.0  0.55042  0.76908  0.45535  1.0000
  H   H543      1.0  0.90215  0.76981  0.44202  1.0000
  H   H544      1.0  0.92007  0.81398  0.57661  1.0000
  C   C444      1.0  0.47102  0.56643  0.48838  1.0000
  H   H545      1.0  0.37273  0.81492  0.63108  1.0000
  C   C445      1.0  0.62316  0.98531  0.77453  1.0000
  C   C446      1.0  0.67925  0.02504  0.81053  1.0000
  H   H546      1.0  0.13455  0.05154  0.91066  1.0000
  C   C447      1.0  0.89445  0.02179  0.70191  1.0000
  C   C448      1.0  0.33535  0.98503  0.78063  1.0000
  S   S121      1.0  0.94310  0.88979  0.82164  1.0000
  H   H547      1.0  0.67600  0.04669  0.82173  1.0000
  H   H548      1.0  0.45555  0.02252  0.74975  1.0000
  C   C449      1.0  0.14300  0.01224  0.70754  1.0000
  N   N31       1.0  0.33494  0.01389  0.75261  1.0000
  H   H549      1.0  0.22170  0.95333  0.71935  1.0000
  Fe  Fe60      1.0  0.50176  0.87098  0.84179  1.0000
  H   H550      1.0  0.35877  0.03583  0.82060  1.0000
  C   C450      1.0  0.83760  0.04228  0.70915  1.0000
  H   H551      1.0  0.56244  0.93946  0.87048  1.0000
  H   H552      1.0  0.78739  0.96651  0.81611  1.0000
  S   S122      1.0  0.54618  0.97129  0.74979  1.0000
  H   H553      1.0  0.60119  0.92447  0.92650  1.0000
  C   C451      1.0  0.04137  0.88624  0.79320  1.0000
  S   S123      1.0  0.48993  0.90219  0.69760  1.0000
  H   H554      1.0  0.14585  0.82872  0.84325  1.0000
  S   S124      1.0  0.46533  0.84460  0.78029  1.0000
  C   C452      1.0  0.18865  0.83234  0.86730  1.0000
  H   H555      1.0  0.02057  0.85610  0.73692  1.0000
  S   S125      1.0  0.29447  0.87163  0.72299  1.0000
  Fe  Fe61      1.0  0.02819  0.97093  0.91136  1.0000
  H   H556      1.0  0.30993  0.05635  0.77504  1.0000
  C   C453      1.0  0.17805  0.85509  0.90086  1.0000
  S   S126      1.0  0.51101  0.85022  0.92414  1.0000
  C   C454      1.0  0.54870  0.93367  0.91576  1.0000
  H   H557      1.0  0.77800  0.87494  0.87405  1.0000
  H   H558      1.0  0.17641  0.00919  0.78462  1.0000
  C   C455      1.0  0.29777  0.84528  0.92815  1.0000
  H   H559      1.0  0.47780  0.97902  0.88031  1.0000
  Fe  Fe62      1.0  0.87303  0.98673  0.88645  1.0000
  C   C456      1.0  0.19769  0.01180  0.74053  1.0000
  H   H560      1.0  0.59845  0.98996  0.89355  1.0000
  H   H561      1.0  0.92588  0.01672  0.73399  1.0000
  H   H562      1.0  0.37763  0.98391  0.80791  1.0000
  C   C457      1.0  0.41460  0.02150  0.72175  1.0000
  C   C458      1.0  0.72866  0.87250  0.91030  1.0000
  H   H563      1.0  0.48012  0.06460  0.79448  1.0000
  C   C459      1.0  0.68266  0.96815  0.78555  1.0000
  H   H564      1.0  0.08197  0.01048  0.72619  1.0000
  H   H565      1.0  0.68454  0.94622  0.77575  1.0000
  H   H566      1.0  0.57769  0.02747  0.77694  1.0000
  C   C460      1.0  0.17636  0.89710  0.79110  1.0000
  Fe  Fe63      1.0  0.56244  0.86681  0.71961  1.0000
  Fe  Fe64      1.0  0.93135  0.92692  0.87290  1.0000
  H   H567      1.0  0.08152  0.91647  0.84256  1.0000
  C   C461      1.0  0.73773  0.00789  0.82285  1.0000
  C   C462      1.0  0.85103  0.81807  0.93055  1.0000
  C   C463      1.0  0.31463  0.03465  0.79498  1.0000
  S   S127      1.0  0.15104  0.98588  0.89896  1.0000
  S   S128      1.0  0.97943  0.96975  0.83574  1.0000
  H   H568      1.0  0.50331  0.91638  0.92471  1.0000
  C   C464      1.0  0.19797  0.87808  0.75056  1.0000
  Fe  Fe65      1.0  0.52319  0.92430  0.76532  1.0000
  S   S129      1.0  0.81982  0.94368  0.91717  1.0000
  C   C465      1.0  0.74054  0.97957  0.80901  1.0000
  H   H569      1.0  0.25970  0.02886  0.82468  1.0000
  S   S130      1.0  0.60519  0.89075  0.78226  1.0000
  H   H570      1.0  0.83971  0.83855  0.68698  1.0000
  H   H571      1.0  0.82563  0.05311  0.74666  1.0000
  H   H572      1.0  0.71117  0.89412  0.92177  1.0000
  H   H573      1.0  0.27803  0.97841  0.80670  1.0000
  C   C466      1.0  0.45903  0.97149  0.92480  1.0000
  C   C467      1.0  0.30837  0.82231  0.89521  1.0000
  H   H574      1.0  0.35159  0.96885  0.75018  1.0000
  C   C468      1.0  0.14157  0.86379  0.73041  1.0000
  C   C469      1.0  0.09788  0.90152  0.81180  1.0000
  C   C470      1.0  0.62289  0.01394  0.78563  1.0000
  H   H575      1.0  0.21993  0.90846  0.80620  1.0000
  H   H576      1.0  0.08712  0.94774  0.70964  1.0000
  H   H577      1.0  0.15819  0.84924  0.69862  1.0000
  Fe  Fe66      1.0  0.39415  0.88127  0.76124  1.0000
  C   C471      1.0  0.27791  0.01416  0.71696  1.0000
  C   C472      1.0  0.06354  0.86762  0.75208  1.0000
  S   S131      1.0  0.80395  0.02174  0.85825  1.0000
  S   S132      1.0  0.42121  0.90617  0.82866  1.0000
  C   C473      1.0  0.04747  0.04928  0.86442  1.0000
  H   H578      1.0  0.12776  0.86799  0.90252  1.0000
  H   H579      1.0  0.03797  0.02658  0.87436  1.0000
  H   H580      1.0  0.41752  0.04275  0.69836  1.0000
  C   C474      1.0  0.00377  0.06375  0.83162  1.0000
  H   H581      1.0  0.41038  0.95595  0.92772  1.0000
  H   H582      1.0  0.67964  0.86259  0.89636  1.0000
  S   S133      1.0  0.50299  0.05252  0.90422  1.0000
  H   H583      1.0  0.95998  0.05232  0.81649  1.0000
  H   H584      1.0  0.29045  0.00751  0.92145  1.0000
  H   H585      1.0  0.43796  0.00531  0.69284  1.0000
  C   C475      1.0  0.10340  0.06384  0.88450  1.0000
  C   C476      1.0  0.23286  0.86170  0.93085  1.0000
  C   C477      1.0  0.66634  0.99904  0.07803  1.0000
  H   H586      1.0  0.86096  0.87712  0.94103  1.0000
  H   H587      1.0  0.43773  0.99055  0.94658  1.0000
  H   H588      1.0  0.78978  0.89162  0.99252  1.0000
  C   C478      1.0  0.99109  0.91763  0.10685  1.0000
  C   C479      1.0  0.15699  0.98083  0.06093  1.0000
  C   C480      1.0  0.50564  0.85146  0.13880  1.0000
  H   H589      1.0  0.63854  0.01102  0.04937  1.0000
  C   C481      1.0  0.91861  0.81931  0.06155  1.0000
  C   C482      1.0  0.89696  0.05574  0.04408  1.0000
  H   H590      1.0  0.37768  0.95643  0.02010  1.0000
  H   H591      1.0  0.93587  0.91424  0.13764  1.0000
  H   H592      1.0  0.08937  0.90150  0.17187  1.0000
  H   H593      1.0  0.07726  0.96802  0.01209  1.0000
  C   C483      1.0  0.25290  0.00009  0.96022  1.0000
  H   H594      1.0  0.90573  0.99320  0.12238  1.0000
  H   H595      1.0  0.34962  0.94277  0.11789  1.0000
  H   H596      1.0  0.62922  0.84425  0.99184  1.0000
  C   C484      1.0  0.50214  0.94941  0.00656  1.0000
  C   C485      1.0  0.98777  0.82926  0.02724  1.0000
  C   C486      1.0  0.71620  0.97724  0.05972  1.0000
  C   C487      1.0  0.69367  0.99111  0.16911  1.0000
  C   C488      1.0  0.75314  0.96189  0.09655  1.0000
  H   H597      1.0  0.81588  0.02072  0.08161  1.0000
  C   C489      1.0  0.46660  0.93351  0.12141  1.0000
  Fe  Fe67      1.0  0.51575  0.04889  0.10624  1.0000
  Fe  Fe68      1.0  0.35264  0.03410  0.09670  1.0000
  C   C490      1.0  0.22717  0.99480  0.06011  1.0000
  Fe  Fe69      1.0  0.87916  0.94752  0.98686  1.0000
  S   S134      1.0  0.25156  0.86309  0.13939  1.0000
  N   N32       1.0  0.52322  0.95861  0.94700  1.0000
  H   H598      1.0  0.08391  0.05680  0.06086  1.0000
  H   H599      1.0  0.01294  0.81780  0.99189  1.0000
  H   H600      1.0  0.34053  0.85033  0.95159  1.0000
  S   S135      1.0  0.92567  0.99180  0.95933  1.0000
  Fe  Fe70      1.0  0.21408  0.81926  0.12488  1.0000
  C   C491      1.0  0.77352  0.82692  0.93873  1.0000
  H   H601      1.0  0.03911  0.01179  0.11533  1.0000
  C   C492      1.0  0.54178  0.93189  0.09155  1.0000
  H   H602      1.0  0.33122  0.01348  0.00854  1.0000
  C   C493      1.0  0.05621  0.88425  0.15809  1.0000
  H   H603      1.0  0.45329  0.92778  0.16540  1.0000
  H   H604      1.0  0.12029  0.97340  0.09994  1.0000
  C   C494      1.0  0.40839  0.94200  0.09461  1.0000
  C   C495      1.0  0.65664  0.00646  0.13243  1.0000
  H   H605      1.0  0.50756  0.82928  0.06584  1.0000
  C   C496      1.0  0.92506  0.01336  0.09925  1.0000
  Fe  Fe71      1.0  0.47178  0.05627  0.99504  1.0000
  S   S136      1.0  0.25231  0.00296  0.12165  1.0000
  N   N33       1.0  0.03892  0.89205  0.10326  1.0000
  N   N34       1.0  0.74977  0.85528  0.95689  1.0000
  C   C497      1.0  0.02538  0.04901  0.06400  1.0000
  C   C498      1.0  0.68198  0.85229  0.00366  1.0000
  C   C499      1.0  0.42544  0.94977  0.03796  1.0000
  H   H606      1.0  0.76546  0.04077  0.00856  1.0000
  S   S137      1.0  0.98659  0.92688  0.94571  1.0000
  H   H607      1.0  0.66602  0.87298  0.02127  1.0000
  H   H608      1.0  0.83240  0.82627  0.13385  1.0000
  C   C500      1.0  0.55936  0.93944  0.03484  1.0000
  H   H609      1.0  0.37150  0.83767  0.06433  1.0000
  H   H610      1.0  0.76995  0.95697  0.17990  1.0000
  C   C501      1.0  0.47345  0.84121  0.09713  1.0000
  H   H611      1.0  0.14376  0.91794  0.07873  1.0000
  C   C502      1.0  0.87365  0.02937  0.07504  1.0000
  C   C503      1.0  0.35055  0.86082  0.13688  1.0000
  H   H612      1.0  0.02101  0.93611  0.11914  1.0000
  H   H613      1.0  0.08048  0.85929  0.01174  1.0000
  S   S138      1.0  0.81820  0.93553  0.07358  1.0000
  H   H614      1.0  0.10472  0.90713  0.02270  1.0000
  C   C504      1.0  0.11331  0.90003  0.06459  1.0000
  S   S139      1.0  0.59964  0.84222  0.14342  1.0000
  H   H615      1.0  0.15369  0.88206  0.06174  1.0000
  C   C505      1.0  0.18078  0.98774  0.96111  1.0000
  C   C506      1.0  0.81091  0.87128  0.97554  1.0000
  C   C507      1.0  0.00028  0.02347  0.09461  1.0000
  H   H616      1.0  0.22562  0.87971  0.95579  1.0000
  H   H617      1.0  0.64266  0.97145  0.94256  1.0000
  H   H618      1.0  0.09053  0.86474  0.15726  1.0000
  C   C508      1.0  0.39600  0.84575  0.09645  1.0000
  S   S140      1.0  0.46758  0.01873  0.05641  1.0000
  H   H619      1.0  0.72651  0.97246  0.01708  1.0000
  C   C509      1.0  0.74094  0.96859  0.15141  1.0000
  C   C510      1.0  0.92475  0.85783  0.11967  1.0000
  C   C511      1.0  0.88660  0.83380  0.10729  1.0000
  H   H620      1.0  0.83109  0.85892  0.00931  1.0000
  H   H621      1.0  0.89799  0.86813  0.15603  1.0000
  H   H622      1.0  0.58672  0.92483  0.11255  1.0000
  C   C512      1.0  0.02639  0.85326  0.03927  1.0000
  S   S141      1.0  0.60576  0.03675  0.15350  1.0000
  C   C513      1.0  0.13301  0.97769  0.01137  1.0000
  C   C514      1.0  0.27585  0.00366  0.00965  1.0000
  H   H623      1.0  0.61840  0.93768  0.01343  1.0000
  H   H624      1.0  0.57342  0.99813  0.96326  1.0000
  H   H625      1.0  0.69392  0.83758  0.03769  1.0000
  C   C515      1.0  0.99666  0.86801  0.08665  1.0000
  H   H626      1.0  0.97619  0.92398  0.06662  1.0000
  H   H627      1.0  0.87743  0.05990  0.93881  1.0000
  S   S142      1.0  0.40006  0.06182  0.15179  1.0000
  C   C516      1.0  0.97473  0.06487  0.03879  1.0000
  C   C517      1.0  0.76454  0.06128  0.02818  1.0000
  H   H628      1.0  0.73708  0.05758  0.07269  1.0000
  C   C518      1.0  0.38315  0.87198  0.17751  1.0000
  C   C519      1.0  0.46075  0.86726  0.17847  1.0000
  C   C520      1.0  0.58723  0.98026  0.93648  1.0000
  H   H629      1.0  0.89719  0.83169  0.93682  1.0000
  C   C521      1.0  0.32106  0.00444  0.25354  1.0000
  C   C522      1.0  0.47508  0.00408  0.26144  1.0000
  C   C523      1.0  0.29218  0.95005  0.38952  1.0000
  H   H630      1.0  0.87524  0.99136  0.22951  1.0000
  H   H631      1.0  0.88621  0.03649  0.26721  1.0000
  C   C524      1.0  0.81307  0.94560  0.31179  1.0000
  H   H632      1.0  0.18090  0.86505  0.29185  1.0000
  C   C525      1.0  0.12205  0.85760  0.28944  1.0000
  S   S143      1.0  0.16141  0.91661  0.41966  1.0000
  C   C526      1.0  0.07489  0.01775  0.24771  1.0000
  C   C527      1.0  0.94257  0.95527  0.35560  1.0000
  H   H633      1.0  0.48366  0.96763  0.21428  1.0000
  H   H634      1.0  0.33143  0.84387  0.30044  1.0000
  H   H635      1.0  0.11551  0.05040  0.32453  1.0000
  S   S144      1.0  0.54700  0.85562  0.30120  1.0000
  C   C528      1.0  0.72956  0.05067  0.28179  1.0000
  H   H636      1.0  0.34823  0.88369  0.20891  1.0000
  H   H637      1.0  0.99169  0.92030  0.31048  1.0000
  C   C529      1.0  0.81426  0.96772  0.34625  1.0000
  C   C530      1.0  0.67188  0.05086  0.37940  1.0000
  C   C531      1.0  0.38375  0.90557  0.34800  1.0000
  C   C532      1.0  0.86900  0.82316  0.38578  1.0000
  H   H638      1.0  0.64190  0.97136  0.41727  1.0000
  H   H639      1.0  0.90602  0.06400  0.33665  1.0000
  H   H640      1.0  0.98848  0.96158  0.20415  1.0000
  H   H641      1.0  0.26127  0.00427  0.25035  1.0000
  H   H642      1.0  0.30906  0.04007  0.30111  1.0000
  S   S145      1.0  0.88246  0.00160  0.40781  1.0000
  C   C533      1.0  0.69223  0.03615  0.33188  1.0000
  C   C534      1.0  0.01061  0.03507  0.26419  1.0000
  C   C535      1.0  0.99518  0.98211  0.21968  1.0000
  H   H643      1.0  0.41878  0.88837  0.33219  1.0000
  S   S146      1.0  0.51708  0.93854  0.32896  1.0000
  H   H644      1.0  0.06493  0.87063  0.39370  1.0000
  C   C536      1.0  0.30425  0.90097  0.36738  1.0000
  Fe  Fe72      1.0  0.75610  0.88667  0.26273  1.0000
  Fe  Fe73      1.0  0.58763  0.90069  0.30396  1.0000
  C   C537      1.0  0.87747  0.92875  0.29831  1.0000
  H   H645      1.0  0.48550  0.87578  0.21008  1.0000
  S   S147      1.0  0.87794  0.90200  0.25338  1.0000
  H   H646      1.0  0.99269  0.95878  0.37228  1.0000
  H   H647      1.0  0.08686  0.87685  0.28685  1.0000
  H   H648      1.0  0.11702  0.97873  0.21421  1.0000
  H   H649      1.0  0.34175  0.83325  0.39789  1.0000
  C   C538      1.0  0.35996  0.82492  0.31211  1.0000
  C   C539      1.0  0.42857  0.02584  0.28595  1.0000
  H   H650      1.0  0.12980  0.84764  0.24968  1.0000
  H   H651      1.0  0.53453  0.00226  0.26477  1.0000
  N   N35       1.0  0.08599  0.83771  0.33757  1.0000
  N   N36       1.0  0.46146  0.04724  0.31584  1.0000
  C   C540      1.0  0.53231  0.06091  0.28050  1.0000
  S   S148      1.0  0.72814  0.84099  0.25432  1.0000
  C   C541      1.0  0.90619  0.81587  0.28915  1.0000
  H   H652      1.0  0.13191  0.02440  0.25111  1.0000
  Fe  Fe74      1.0  0.62984  0.85787  0.21921  1.0000
  C   C542      1.0  0.93845  0.02493  0.25611  1.0000
  S   S149      1.0  0.66514  0.90354  0.22011  1.0000
  H   H653      1.0  0.52680  0.01687  0.35533  1.0000
  H   H654      1.0  0.50318  0.04821  0.39092  1.0000
  H   H655      1.0  0.43046  0.02118  0.39226  1.0000
  H   H656      1.0  0.34669  0.96827  0.20599  1.0000
  C   C543      1.0  0.06701  0.99161  0.22611  1.0000
  C   C544      1.0  0.44604  0.98381  0.23252  1.0000
  C   C545      1.0  0.87927  0.97281  0.36763  1.0000
  N   N37       1.0  0.02078  0.06284  0.28639  1.0000
  S   S150      1.0  0.68166  0.88755  0.34670  1.0000
  C   C546      1.0  0.00395  0.83176  0.33765  1.0000
  H   H657      1.0  0.74649  0.03919  0.24530  1.0000
  C   C547      1.0  0.37155  0.95455  0.37047  1.0000
  C   C548      1.0  0.25856  0.92318  0.38848  1.0000
  H   H658      1.0  0.67909  0.01359  0.33369  1.0000
  H   H659      1.0  0.57862  0.04555  0.26930  1.0000
  C   C549      1.0  0.36924  0.98404  0.22834  1.0000
  Fe  Fe75      1.0  0.64840  0.84278  0.33650  1.0000
  H   H660      1.0  0.84467  0.90054  0.41072  1.0000
  H   H661      1.0  0.56398  0.92680  0.42675  1.0000
  H   H662      1.0  0.68633  0.99672  0.21123  1.0000
  C   C550      1.0  0.98199  0.82403  0.28902  1.0000
  C   C551      1.0  0.36576  0.81904  0.36678  1.0000
  C   C552      1.0  0.48132  0.03280  0.36569  1.0000
  H   H663      1.0  0.76320  0.94225  0.29430  1.0000
  H   H664      1.0  0.76549  0.98120  0.35559  1.0000
  H   H665      1.0  0.02386  0.82269  0.25109  1.0000
  C   C553      1.0  0.93131  0.99887  0.23411  1.0000
  C   C554      1.0  0.94205  0.93343  0.32050  1.0000
  C   C555      1.0  0.41755  0.93233  0.35002  1.0000
  H   H666      1.0  0.39754  0.97521  0.37197  1.0000
  C   C556      1.0  0.34972  0.02505  0.28228  1.0000
  H   H667      1.0  0.25750  0.96732  0.40586  1.0000
  S   S151      1.0  0.10680  0.99475  0.39420  1.0000
  H   H668      1.0  0.02073  0.04431  0.36767  1.0000
  H   H669      1.0  0.15884  0.85636  0.38579  1.0000
  C   C557      1.0  0.09739  0.85072  0.38785  1.0000
  C   C558      1.0  0.94494  0.83103  0.38634  1.0000
  H   H670      1.0  0.27881  0.88008  0.36729  1.0000
  C   C559      1.0  0.05688  0.05900  0.33487  1.0000
  H   H671      1.0  0.00347  0.87976  0.19058  1.0000
  H   H672      1.0  0.82459  0.82261  0.42314  1.0000
  H   H673      1.0  0.35615  0.06218  0.36338  1.0000
  H   H674      1.0  0.07999  0.83594  0.42546  1.0000
  H   H675      1.0  0.95617  0.83570  0.42568  1.0000
  H   H676      1.0  0.97360  0.90588  0.43212  1.0000
  S   S152      1.0  0.62603  0.03303  0.44235  1.0000
  C   C560      1.0  0.67588  0.96300  0.49498  1.0000
  S   S153      1.0  0.56004  0.05037  0.59629  1.0000
  C   C561      1.0  0.62381  0.91916  0.54784  1.0000
  H   H677      1.0  0.88231  0.00449  0.57396  1.0000
  C   C562      1.0  0.67032  0.94440  0.54343  1.0000
  H   H678      1.0  0.99967  0.88462  0.51853  1.0000
  C   C563      1.0  0.94190  0.88224  0.51176  1.0000
  C   C564      1.0  0.82715  0.84596  0.64637  1.0000
  C   C565      1.0  0.58599  0.91315  0.50598  1.0000
  H   H679      1.0  0.41302  0.93005  0.49277  1.0000
  C   C566      1.0  0.59283  0.93181  0.45913  1.0000
  H   H680      1.0  0.81128  0.97140  0.52875  1.0000
  S   S154      1.0  0.99280  0.95759  0.49767  1.0000
  C   C567      1.0  0.37147  0.89291  0.58312  1.0000
  H   H681      1.0  0.83112  0.95703  0.59273  1.0000
  H   H682      1.0  0.34500  0.88671  0.48475  1.0000
  C   C568      1.0  0.68733  0.97909  0.60725  1.0000
  Fe  Fe76      1.0  0.98645  0.99689  0.44329  1.0000
  C   C569      1.0  0.29523  0.89407  0.51525  1.0000
  C   C570      1.0  0.70122  0.92992  0.63421  1.0000
  H   H683      1.0  0.72028  0.90854  0.62173  1.0000
  C   C571      1.0  0.85547  0.89132  0.44956  1.0000
  H   H684      1.0  0.71038  0.98259  0.48823  1.0000
  H   H685      1.0  0.63407  0.84798  0.53078  1.0000
  Fe  Fe77      1.0  0.11547  0.95719  0.45280  1.0000
  H   H686      1.0  0.78563  0.86340  0.65399  1.0000
  C   C572      1.0  0.92794  0.89421  0.46173  1.0000
  C   C573      1.0  0.11761  0.92777  0.63358  1.0000
  H   H687      1.0  0.16026  0.90827  0.56002  1.0000
  H   H688      1.0  0.39881  0.90415  0.61177  1.0000
  C   C574      1.0  0.79692  0.87614  0.48699  1.0000
  S   S155      1.0  0.01794  0.02639  0.50148  1.0000
  H   H689      1.0  0.81617  0.93368  0.54172  1.0000
  H   H690      1.0  0.90717  0.89768  0.63244  1.0000
  H   H691      1.0  0.77874  0.03935  0.58834  1.0000
  C   C575      1.0  0.86972  0.01483  0.61186  1.0000
  H   H692      1.0  0.76245  0.85233  0.56388  1.0000
  Fe  Fe78      1.0  0.03395  0.98666  0.55251  1.0000
  H   H693      1.0  0.12423  0.01484  0.62482  1.0000
  H   H694      1.0  0.55164  0.89379  0.50933  1.0000
  C   C576      1.0  0.48795  0.82604  0.63808  1.0000
  H   H695      1.0  0.74115  0.87354  0.47646  1.0000
  S   S156      1.0  0.15870  0.98302  0.51304  1.0000
  H   H696      1.0  0.39200  0.94878  0.55393  1.0000
  H   H697      1.0  0.26043  0.90677  0.49110  1.0000
  H   H698      1.0  0.61610  0.90359  0.58284  1.0000
  H   H699      1.0  0.73430  0.93589  0.66525  1.0000
  H   H700      1.0  0.99845  0.88173  0.60804  1.0000
  H   H701      1.0  0.70093  0.99707  0.57483  1.0000
  H   H702      1.0  0.26231  0.01665  0.58145  1.0000
  Fe  Fe79      1.0  0.13904  0.02083  0.45777  1.0000
  N   N38       1.0  0.71276  0.95139  0.58610  1.0000
  H   H703      1.0  0.36590  0.05093  0.45687  1.0000
  C   C577      1.0  0.44529  0.82760  0.55187  1.0000
  C   C578      1.0  0.88263  0.86752  0.55191  1.0000
  C   C579      1.0  0.79636  0.95349  0.56136  1.0000
  C   C580      1.0  0.51905  0.83690  0.52387  1.0000
  C   C581      1.0  0.93809  0.87725  0.63059  1.0000
  C   C582      1.0  0.36543  0.93628  0.52627  1.0000
  S   S157      1.0  0.37145  0.82643  0.51551  1.0000
  C   C583      1.0  0.56121  0.83623  0.61020  1.0000
  C   C584      1.0  0.17712  0.91785  0.59385  1.0000
  H   H704      1.0  0.00383  0.83662  0.56685  1.0000
  C   C585      1.0  0.63725  0.95675  0.45375  1.0000
  H   H705      1.0  0.53048  0.84185  0.47970  1.0000
  H   H706      1.0  0.41922  0.88485  0.55230  1.0000
  S   S158      1.0  0.62960  0.84641  0.64709  1.0000
  H   H707      1.0  0.32825  0.95078  0.50661  1.0000
  N   N39       1.0  0.32031  0.91110  0.55638  1.0000
  H   H708      1.0  0.96098  0.82095  0.63464  1.0000
  S   S159      1.0  0.98384  0.98340  0.64274  1.0000
  H   H709      1.0  0.62398  0.97867  0.62385  1.0000
  C   C586      1.0  0.57758  0.84048  0.55281  1.0000
  H   H710      1.0  0.71521  0.98452  0.64142  1.0000
  C   C587      1.0  0.24454  0.01533  0.62598  1.0000
  C   C588      1.0  0.81002  0.86418  0.53729  1.0000
  H   H711      1.0  0.05838  0.92596  0.62950  1.0000
  C   C589      1.0  0.43004  0.82157  0.60897  1.0000
  C   C590      1.0  0.94791  0.83077  0.59556  1.0000
  C   C591      1.0  0.91060  0.00808  0.65317  1.0000
  H   H712      1.0  0.35909  0.01723  0.63653  1.0000
  N   N40       1.0  0.89804  0.85560  0.60527  1.0000
  H   H713      1.0  0.26119  0.87466  0.53533  1.0000
  C   C592      1.0  0.81110  0.03458  0.61992  1.0000
  H   H714      1.0  0.63987  0.92826  0.65615  1.0000
  H   H715      1.0  0.32768  0.93797  0.64955  1.0000
  Fe  Fe80      1.0  0.61152  0.06381  0.50760  1.0000
  C   C593      1.0  0.25545  0.92072  0.59816  1.0000
  H   H716      1.0  0.33902  0.87395  0.60681  1.0000
  C   C594      1.0  0.16653  0.01431  0.65037  1.0000
  C   C595      1.0  0.79461  0.04808  0.66886  1.0000
  C   C596      1.0  0.29976  0.01548  0.65844  1.0000
  H   H717      1.0  0.79766  0.82744  0.63372  1.0000
  H   H718      1.0  0.42415  0.06145  0.53447  1.0000
  C   C597      1.0  0.26985  0.93459  0.64381  1.0000
  C   C598      1.0  0.33185  0.06048  0.49150  1.0000
  S   S160      1.0  0.21565  0.05961  0.43603  1.0000
  H   H719      1.0  0.94217  0.87011  0.67357  1.0000
  H   H720      1.0  0.47545  0.82174  0.68211  1.0000
  C   C599      1.0  0.13376  0.94045  0.67866  1.0000
  C   C600      1.0  0.20968  0.94385  0.68375  1.0000
