data_image0
_chemical_formula_structural       SFeS2FeS2FeS2FeSFeS3H2CH4C3H2C2HC6H4CH2C6H4NH3C2FeHSHSHC2H2SHCHCSHCHCH3CHC5H2CFeH2CHSCS2H5CHCH4C2H3CH2CFeC2NC9HC3H4C2SNHC2FeH3SHC2NCFeS2FeS2FeS3FeSHFeS2FeSHCSH3C2SC2H2C2SHCHFeSHSHFeS2FeS2FeSFeS3FeS2FeS2FeSFeS3FeSHFeS2FeSFeS2H2NHCHCHC6H4C6H4C6H5C6H4C6H4C2HFeCHC6H4C6H4C4FeC6H2C3HC2HCH3C5HCH2CNC9H13SNC9H14C2H3NCH6CH5CH2C3HSCH4FeC3FeCHCHCHNC9H14NC9H13NC9H15SC2HC3NH5CH4C3H2NH2CH3CH4CH2C4HNH5CHCHC3H9CH3SH2CHCSFeCHC2H2C3H3NCNCH3CHC4HC2NFeS2FeS2FeCFeS3C2H4NH3CH3C7H10C3HCH3CH2CNHC5H5CHCHCHCH2CHC2HCH5C2HC3HSHCHSCHCHSC3HFe2SNC2HFeS2FeS2FeSFeS3FeS2FeS2FeSFeS3FeS2FeS2Fe2S3HCH2CFeS2FeS2FeS2Fe2S3HSCSH7C7H8C6H4C6H4C6H4C6H4C6HCH2C2NC3HCH2C6H4C6H4CHCHC2H2C2H3C3H3C5H3NC5H11NC4SC2HCH4CH3CSH2C2NC9H14NC9H15SHC2H2CNCH3N2C2H5C4HC2H2CH6CH2NCHCH5C2H2C2H2C4HC2HCHCNHCHCHSHCHNHC5H3SHC2H2CSCHCSHC3FeH2CHCHCFeH2C2HC3H8CH3C2HC3HCSC2SH2CH2C2H5CHCHSH2C2H2Fe2S3CHNSHC2FeCHFeHSNH2CHSC2H2CH3FeHC3H2CH3CHC4NCH3CHSHFeSC3H4C2H2CH3CHSHCHC3H2CSCNH3S2H5C2FeHC3HCH3C5SC2HFeHCH2SHCHCH2CHCH3SH2FeHSH2CH2C3H2CHCH3CH2C2H2CH7CSH3FeHSFeSHC3H2CH3SFeS2FeS2FeSFeS3FeS2FeS2FeSFeS3FeS2FeS2FeSFeS3FeS2FeS2FeSFeHS2FeHSFeS2FeH2CS2C2SC4H3C6H4C6H4C6H4C5H2C6H4C6H6SHCH2CHC6H4C5H3C6H4C6H4C4HC2HFeN2C9H13CH2NC2HCSCHCH4FeHFeH3NCHCHNC9H14CHNC9HCH16CH3C2H2C2HC3H2SHCH2C2H7CH3NCH4CH3CH2CHCHCH2CNC3HC2H2CH2CH3CHCHCHCHC2NCHCH5CHCH2C2HC2NHC2HCH4SNH3CHSCHCH4CHCH3CFeHCH4CH2C3HNSCHCHCHC2H4C2H2CH2CHCH3CHC3HSH6SC2HSC2HCHCH2CFeS2FeSFeSFeS3FeS2FeS2FeSFeS3FeS2FeS2FeSFeS3FeS2FeS2FeSFeS3FeS2FeS2FeSFeS3FeS2FeS2FeSFeS3HCH3CHS2C3HC2HC2HCHC3H3C6H5CH3CH4C6H4C6H4C6H4C6H4C6H5C4H2C6H4C6H4C6H4C6H4C6H4CH2CH2CSH4FeCNC2H2CH2CH3C2H2NC9H16CHCHCH2CHCHN2H3C2H4CH2C3HC2SH2NHCHCHCNC9H14NC8H8SH2C3FeH4FeC2H2C2H4SCFeNC2SHCHCHNC2HSHC3H4CH2SCHNCHC2NH2CH2CH3NC2H5CH5C3H3C2H2C2HCHCH2CHC6H2CH2CH3CHCH7C5H3CHNCH4C2H2CH2CHC2HCHC2H3CH2C2SH3CH5C3HC2NH3C3H5C2HC2H3CHC2H2C4HFeHC3FeSCFeS2FeSFeS3FeS2FeS2FeSFeS3FeS2FeS2FeSFeS3FeS2FeS2FeSFeS3FeS2FeS2FeSFeS3FeS2FeS2FeSFeS4FeS2FeS2FeSFeS2C6H4C6H4C3H2C6H4C6H4C6H4C6H4C2HC3H3C6H4C6H4C6H4C6H4C6H4C6H5CHC2HCH2SC2H2NC9H14NC9H14C4H3NC9H19FeC3HCHCHFeNC9H14NC9H14NC3H11CH3CHCFeCHC2H4CH5CHCH2CH3C3NCH2C3H4N2C6HCHC2H3CHNH2SH2CHC2H5C7HCHCH3CHSC2HNHN2H8CH3CH3C3H2CHC3H2C2HSH5CHCHC3H2CHC2H3CHCNH2C2H2CH2FeCH3C3HNH4CH4CSH2C3H7SC2H3CH5SH3SH4CSH2CSH2SCFeS2NHC5HC2H2C2H7CH2C2H2FeH2C5H2FeSHFeS2FeSFeS3H2NCHCH2SC2SC6H4C2HC4H2C2HCHCHCH4CH3SH3NHCH2CH3C2HCHCH2CH4CHC2H2C3H2CFeHC2NH2CH2SC2H2CSCHCH2CFeS2FeS2Fe2S3H2SHFeSHCFeS2FeS2FeSFeS3FeS2FeS2FeSFeS3FeS2FeS2FeSFeS3FeS2FeS2FeSFeS3FeSFeS2FeSFeSCSFeS2FeS2FeS3C6H4C6H4C6H4C6H4C6H4C6H4C6H4C6H4C6H5C3HSH2C7H4C6H4C6H4C7H6C5HC3HSH2NHC3H7FeHS2CH2CHCHCHC2H5NC9H13NC9H14NC9H14NC9H14NC9H14NC9H15CH2SH6CH6CHCH4CH2C2HCHCHNCHC3H5CH2CSH4FeSFeH3C5H6NH4C2H3C2HNCH5CH4NCHSC2NH4C2HNH3C3FeHSC2HC2HCH4C3H3CH2CHNHCHCH2C2HCH3CHCNCH2C4H3CHNCHC2H4C2H2C
_chemical_formula_sum              "S384 Fe192 H1728 C1440 N96"
_cell_length_a       117.721
_cell_length_b       116.277
_cell_length_c       31.4163
_cell_angle_alpha    76.7102
_cell_angle_beta     77.0804
_cell_angle_gamma    101.762

_space_group_name_H-M_alt    "P 1"
_space_group_IT_number       1

loop_
  _space_group_symop_operation_xyz
  'x, y, z'

loop_
  _atom_site_type_symbol
  _atom_site_label
  _atom_site_symmetry_multiplicity
  _atom_site_fract_x
  _atom_site_fract_y
  _atom_site_fract_z
  _atom_site_occupancy
  S   S1        1.0  0.12867  0.48045  0.29591  1.0000
  Fe  Fe1       1.0  0.11640  0.48877  0.25970  1.0000
  S   S2        1.0  0.09921  0.47807  0.24756  1.0000
  S   S3        1.0  0.12614  0.47916  0.77856  1.0000
  Fe  Fe2       1.0  0.06596  0.45870  0.05895  1.0000
  S   S4        1.0  0.06826  0.47762  0.01508  1.0000
  S   S5        1.0  0.08167  0.45818  0.09175  1.0000
  Fe  Fe3       1.0  0.04221  0.44823  0.03205  1.0000
  S   S6        1.0  0.04391  0.46688  0.98696  1.0000
  S   S7        1.0  0.02367  0.43363  0.05059  1.0000
  Fe  Fe4       1.0  0.06389  0.46869  0.96264  1.0000
  S   S8        1.0  0.07363  0.47915  0.88841  1.0000
  Fe  Fe5       1.0  0.04833  0.47366  0.04392  1.0000
  S   S9        1.0  0.03979  0.48669  0.07260  1.0000
  S   S10       1.0  0.06230  0.44955  0.00447  1.0000
  S   S11       1.0  0.04594  0.45522  0.09084  1.0000
  H   H1        1.0  0.05827  0.47852  0.10988  1.0000
  H   H2        1.0  0.08072  0.50814  0.27757  1.0000
  C   C1        1.0  0.01230  0.42893  0.02336  1.0000
  H   H3        1.0  0.08744  0.43962  0.19398  1.0000
  H   H4        1.0  0.11147  0.49627  0.76426  1.0000
  H   H5        1.0  0.01368  0.45762  0.02867  1.0000
  H   H6        1.0  0.02250  0.40640  0.97975  1.0000
  C   C2        1.0  0.01484  0.43085  0.97611  1.0000
  C   C3        1.0  0.01644  0.40071  0.05283  1.0000
  C   C4        1.0  0.05587  0.48561  0.12406  1.0000
  H   H7        1.0  0.12745  0.48133  0.68714  1.0000
  H   H8        1.0  0.02387  0.43578  0.95443  1.0000
  C   C5        1.0  0.04668  0.49067  0.11322  1.0000
  C   C6        1.0  0.13334  0.49610  0.44981  1.0000
  H   H9        1.0  0.17851  0.49479  0.11318  1.0000
  C   C7        1.0  0.11191  0.47968  0.81065  1.0000
  C   C8        1.0  0.10551  0.47029  0.85116  1.0000
  C   C9        1.0  0.09393  0.47022  0.87628  1.0000
  C   C10       1.0  0.08856  0.47939  0.86039  1.0000
  C   C11       1.0  0.09498  0.48877  0.81990  1.0000
  C   C12       1.0  0.10666  0.48902  0.79543  1.0000
  H   H10       1.0  0.10950  0.46303  0.86316  1.0000
  H   H11       1.0  0.08906  0.46291  0.90728  1.0000
  H   H12       1.0  0.09086  0.49586  0.80728  1.0000
  H   H13       1.0  0.01679  0.45417  0.15001  1.0000
  C   C13       1.0  0.11718  0.45106  0.18943  1.0000
  H   H14       1.0  0.13976  0.46659  0.70590  1.0000
  H   H15       1.0  0.09957  0.44633  0.24107  1.0000
  C   C14       1.0  0.09452  0.47411  0.20092  1.0000
  C   C15       1.0  0.10269  0.47538  0.15899  1.0000
  C   C16       1.0  0.09856  0.47096  0.12520  1.0000
  C   C17       1.0  0.08618  0.46560  0.13183  1.0000
  C   C18       1.0  0.07797  0.46487  0.17284  1.0000
  C   C19       1.0  0.08213  0.46898  0.20712  1.0000
  H   H16       1.0  0.11221  0.47944  0.15289  1.0000
  H   H17       1.0  0.10506  0.47141  0.09407  1.0000
  H   H18       1.0  0.06845  0.46067  0.17901  1.0000
  H   H19       1.0  0.07566  0.46801  0.23907  1.0000
  N   N1        1.0  0.12509  0.45514  0.21680  1.0000
  H   H20       1.0  0.13081  0.43852  0.22671  1.0000
  H   H21       1.0  0.11375  0.44289  0.28191  1.0000
  H   H22       1.0  0.12081  0.48123  0.64115  1.0000
  C   C20       1.0  0.10252  0.44320  0.13544  1.0000
  C   C21       1.0  0.05012  0.50430  0.15963  1.0000
  Fe  Fe6       1.0  0.12884  0.49472  0.33467  1.0000
  H   H23       1.0  0.11783  0.48855  0.50907  1.0000
  S   S12       1.0  0.15932  0.49084  0.19502  1.0000
  H   H24       1.0  0.02650  0.50648  0.04142  1.0000
  S   S13       1.0  0.15608  0.49554  0.68061  1.0000
  H   H25       1.0  0.02442  0.40663  0.05613  1.0000
  C   C22       1.0  0.11500  0.44777  0.11676  1.0000
  C   C23       1.0  0.17976  0.50314  0.12332  1.0000
  H   H26       1.0  0.12397  0.47380  0.20026  1.0000
  H   H27       1.0  0.11176  0.45824  0.26949  1.0000
  S   S14       1.0  0.12512  0.49089  0.41293  1.0000
  H   H28       1.0  0.02373  0.46471  0.20193  1.0000
  C   C24       1.0  0.09722  0.44264  0.18043  1.0000
  H   H29       1.0  0.13612  0.47111  0.16114  1.0000
  C   C25       1.0  0.14563  0.50251  0.43439  1.0000
  S   S15       1.0  0.13155  0.50241  0.20289  1.0000
  H   H30       1.0  0.15028  0.47763  0.50046  1.0000
  C   C26       1.0  0.14250  0.47177  0.52822  1.0000
  H   H31       1.0  0.06979  0.48662  0.15875  1.0000
  C   C27       1.0  0.01561  0.46200  0.05518  1.0000
  H   H32       1.0  0.13185  0.45538  0.12683  1.0000
  H   H33       1.0  0.01899  0.48379  0.91446  1.0000
  H   H34       1.0  0.11933  0.44871  0.69418  1.0000
  C   C28       1.0  0.13323  0.46411  0.51893  1.0000
  H   H35       1.0  0.12854  0.49522  0.56268  1.0000
  C   C29       1.0  0.00709  0.39365  0.09151  1.0000
  C   C30       1.0  0.13475  0.44865  0.21551  1.0000
  C   C31       1.0  0.13340  0.49725  0.52722  1.0000
  C   C32       1.0  0.01423  0.46249  0.15186  1.0000
  C   C33       1.0  0.01056  0.47720  0.91849  1.0000
  H   H36       1.0  0.08964  0.49251  0.02575  1.0000
  H   H37       1.0  0.09686  0.44054  0.11450  1.0000
  C   C34       1.0  0.01600  0.47967  0.18346  1.0000
  Fe  Fe7       1.0  0.13878  0.49658  0.72653  1.0000
  H   H38       1.0  0.09391  0.49632  0.13382  1.0000
  H   H39       1.0  0.08494  0.49072  0.08476  1.0000
  C   C35       1.0  0.00770  0.46755  0.12290  1.0000
  H   H40       1.0  0.00808  0.42728  0.92044  1.0000
  S   S16       1.0  0.15431  0.50734  0.54983  1.0000
  C   C36       1.0  0.15178  0.50599  0.46531  1.0000
  S   S17       1.0  0.11520  0.50178  0.30304  1.0000
  S   S18       1.0  0.14495  0.50847  0.28155  1.0000
  H   H41       1.0  0.11872  0.45980  0.72542  1.0000
  H   H42       1.0  0.10056  0.49202  0.05696  1.0000
  H   H43       1.0  0.11053  0.45970  0.68436  1.0000
  H   H44       1.0  0.12474  0.45546  0.28565  1.0000
  H   H45       1.0  0.13733  0.47178  0.21600  1.0000
  C   C37       1.0  0.10437  0.44657  0.20715  1.0000
  H   H46       1.0  0.11578  0.45108  0.54664  1.0000
  C   C38       1.0  0.00823  0.50879  0.22638  1.0000
  H   H47       1.0  0.11902  0.44849  0.08132  1.0000
  H   H48       1.0  0.14868  0.47909  0.57738  1.0000
  H   H49       1.0  0.13688  0.48683  0.62950  1.0000
  H   H50       1.0  0.11371  0.45187  0.62445  1.0000
  C   C39       1.0  0.09261  0.49555  0.05351  1.0000
  C   C40       1.0  0.11850  0.45278  0.26554  1.0000
  H   H51       1.0  0.14118  0.45120  0.18092  1.0000
  H   H52       1.0  0.14227  0.45657  0.67071  1.0000
  H   H53       1.0  0.14910  0.47282  0.64890  1.0000
  C   C41       1.0  0.13086  0.46851  0.19760  1.0000
  H   H54       1.0  0.14041  0.45097  0.23804  1.0000
  H   H55       1.0  0.13385  0.46398  0.48407  1.0000
  C   C42       1.0  0.01534  0.40056  0.00974  1.0000
  Fe  Fe8       1.0  0.14383  0.49499  0.24048  1.0000
  C   C43       1.0  0.12225  0.45169  0.14317  1.0000
  C   C44       1.0  0.06234  0.49011  0.15203  1.0000
  N   N2        1.0  0.12989  0.46713  0.65541  1.0000
  C   C45       1.0  0.12873  0.47967  0.65315  1.0000
  C   C46       1.0  0.11914  0.45839  0.69113  1.0000
  C   C47       1.0  0.14072  0.46569  0.67071  1.0000
  C   C48       1.0  0.13117  0.46541  0.60946  1.0000
  C   C49       1.0  0.12195  0.45750  0.59896  1.0000
  C   C50       1.0  0.14151  0.47248  0.57266  1.0000
  C   C51       1.0  0.12302  0.45693  0.55425  1.0000
  C   C52       1.0  0.00583  0.42592  0.95690  1.0000
  C   C53       1.0  0.17173  0.50361  0.16301  1.0000
  H   H56       1.0  0.00451  0.39406  0.97053  1.0000
  C   C54       1.0  0.05984  0.49987  0.16790  1.0000
  C   C55       1.0  0.12731  0.49349  0.49653  1.0000
  C   C56       1.0  0.04343  0.49956  0.13296  1.0000
  H   H57       1.0  0.01969  0.48457  0.20493  1.0000
  H   H58       1.0  0.03600  0.50307  0.12635  1.0000
  H   H59       1.0  0.01711  0.46152  0.94039  1.0000
  H   H60       1.0  0.02143  0.45709  0.07133  1.0000
  C   C57       1.0  0.09975  0.50556  0.12165  1.0000
  C   C58       1.0  0.01828  0.46847  0.18173  1.0000
  S   S19       1.0  0.13359  0.50805  0.66954  1.0000
  N   N3        1.0  0.09566  0.50911  0.04423  1.0000
  H   H61       1.0  0.10406  0.50341  0.18561  1.0000
  C   C59       1.0  0.00946  0.46467  0.93340  1.0000
  C   C60       1.0  0.14577  0.50335  0.51204  1.0000
  Fe  Fe9       1.0  0.15132  0.50802  0.62441  1.0000
  H   H62       1.0  0.00792  0.39403  0.12488  1.0000
  H   H63       1.0  0.15045  0.50464  0.39872  1.0000
  H   H64       1.0  0.02113  0.47167  0.03799  1.0000
  S   S20       1.0  0.07018  0.50823  0.18926  1.0000
  H   H65       1.0  0.00831  0.49387  0.15539  1.0000
  C   C61       1.0  0.00535  0.47889  0.12618  1.0000
  C   C62       1.0  0.00488  0.39337  0.00502  1.0000
  N   N4        1.0  0.00439  0.46155  0.08891  1.0000
  C   C63       1.0  0.00957  0.48488  0.15570  1.0000
  Fe  Fe10      1.0  0.21475  0.54047  0.00557  1.0000
  S   S21       1.0  0.22115  0.52753  0.96841  1.0000
  S   S22       1.0  0.20218  0.53791  0.07544  1.0000
  Fe  Fe11      1.0  0.22777  0.56289  0.92372  1.0000
  S   S23       1.0  0.23474  0.55173  0.87939  1.0000
  S   S24       1.0  0.23021  0.58334  0.89840  1.0000
  Fe  Fe12      1.0  0.21614  0.53823  0.90843  1.0000
  S   S25       1.0  0.20130  0.53006  0.87780  1.0000
  S   S26       1.0  0.20904  0.55042  0.94773  1.0000
  S   S27       1.0  0.23313  0.55396  0.98434  1.0000
  Fe  Fe13      1.0  0.24734  0.63215  0.01185  1.0000
  S   S28       1.0  0.24739  0.65005  0.96500  1.0000
  H   H66       1.0  0.22246  0.65430  0.24586  1.0000
  Fe  Fe14      1.0  0.22941  0.63494  0.09242  1.0000
  S   S29       1.0  0.22800  0.65279  0.05109  1.0000
  S   S30       1.0  0.22042  0.62546  0.16772  1.0000
  Fe  Fe15      1.0  0.22698  0.64325  0.99562  1.0000
  S   S31       1.0  0.21070  0.64133  0.96510  1.0000
  H   H67       1.0  0.23833  0.66684  0.26152  1.0000
  C   C64       1.0  0.11254  0.52165  0.14029  1.0000
  S   S32       1.0  0.22723  0.62523  0.03986  1.0000
  H   H68       1.0  0.01235  0.53908  0.09670  1.0000
  H   H69       1.0  0.09592  0.57950  0.88513  1.0000
  H   H70       1.0  0.05189  0.53605  0.91591  1.0000
  C   C65       1.0  0.02330  0.51354  0.05368  1.0000
  C   C66       1.0  0.13900  0.60951  0.20365  1.0000
  S   S33       1.0  0.13201  0.53444  0.22081  1.0000
  C   C67       1.0  0.00583  0.51878  0.19940  1.0000
  C   C68       1.0  0.18927  0.51353  0.09608  1.0000
  H   H71       1.0  0.07810  0.53957  0.25371  1.0000
  H   H72       1.0  0.08323  0.56168  0.94735  1.0000
  C   C69       1.0  0.09669  0.53019  0.23249  1.0000
  C   C70       1.0  0.10138  0.51335  0.07742  1.0000
  S   S34       1.0  0.18394  0.51675  0.71011  1.0000
  H   H73       1.0  0.12710  0.62051  0.29005  1.0000
  C   C71       1.0  0.10812  0.52575  0.06748  1.0000
  H   H74       1.0  0.11773  0.53686  0.34920  1.0000
  Fe  Fe16      1.0  0.14446  0.52374  0.68599  1.0000
  S   S35       1.0  0.13935  0.54134  0.68310  1.0000
  H   H75       1.0  0.15159  0.54985  0.93228  1.0000
  S   S36       1.0  0.16193  0.52475  0.63723  1.0000
  H   H76       1.0  0.04454  0.53226  0.97525  1.0000
  Fe  Fe17      1.0  0.15618  0.60421  0.32574  1.0000
  S   S37       1.0  0.13855  0.60098  0.37921  1.0000
  S   S38       1.0  0.16665  0.62235  0.27300  1.0000
  Fe  Fe18      1.0  0.15430  0.57726  0.34581  1.0000
  S   S39       1.0  0.13685  0.57189  0.40125  1.0000
  S   S40       1.0  0.16323  0.56387  0.32043  1.0000
  Fe  Fe19      1.0  0.13139  0.58546  0.35123  1.0000
  S   S41       1.0  0.11307  0.58228  0.33442  1.0000
  Fe  Fe20      1.0  0.14565  0.58774  0.42480  1.0000
  S   S42       1.0  0.14413  0.58401  0.50251  1.0000
  S   S43       1.0  0.14850  0.58994  0.29527  1.0000
  S   S44       1.0  0.16361  0.59186  0.37192  1.0000
  Fe  Fe21      1.0  0.17630  0.60826  0.79892  1.0000
  S   S45       1.0  0.16169  0.59321  0.85385  1.0000
  S   S46       1.0  0.19375  0.61676  0.81641  1.0000
  Fe  Fe22      1.0  0.16341  0.60362  0.72308  1.0000
  S   S47       1.0  0.14811  0.58865  0.77481  1.0000
  S   S48       1.0  0.16409  0.60884  0.64614  1.0000
  Fe  Fe23      1.0  0.14858  0.60060  0.82127  1.0000
  S   S49       1.0  0.13119  0.60131  0.86793  1.0000
  Fe  Fe24      1.0  0.16249  0.58262  0.80289  1.0000
  S   S50       1.0  0.16077  0.56252  0.82445  1.0000
  S   S51       1.0  0.16299  0.61651  0.76810  1.0000
  S   S52       1.0  0.17798  0.59678  0.74924  1.0000
  Fe  Fe25      1.0  0.07104  0.52760  0.15498  1.0000
  S   S53       1.0  0.05891  0.53787  0.18527  1.0000
  H   H77       1.0  0.17070  0.54746  0.88830  1.0000
  Fe  Fe26      1.0  0.08307  0.54824  0.06760  1.0000
  S   S54       1.0  0.07167  0.56021  0.09149  1.0000
  S   S55       1.0  0.09664  0.55023  0.00063  1.0000
  Fe  Fe27      1.0  0.07590  0.55372  0.15905  1.0000
  S   S56       1.0  0.08083  0.56486  0.20767  1.0000
  Fe  Fe28      1.0  0.05578  0.54303  0.11566  1.0000
  S   S57       1.0  0.08805  0.54280  0.13289  1.0000
  S   S58       1.0  0.06711  0.53179  0.08748  1.0000
  H   H78       1.0  0.06921  0.52693  0.30343  1.0000
  H   H79       1.0  0.19763  0.62195  0.06221  1.0000
  N   N5        1.0  0.08780  0.52678  0.27799  1.0000
  H   H80       1.0  0.11647  0.61134  0.19780  1.0000
  C   C72       1.0  0.11822  0.61152  0.23107  1.0000
  H   H81       1.0  0.12881  0.61385  0.71977  1.0000
  C   C73       1.0  0.08757  0.54140  0.32740  1.0000
  H   H82       1.0  0.19529  0.51317  0.06516  1.0000
  C   C74       1.0  0.12188  0.58710  0.90582  1.0000
  C   C75       1.0  0.11217  0.58686  0.94169  1.0000
  C   C76       1.0  0.10453  0.57562  0.97184  1.0000
  C   C77       1.0  0.10644  0.56455  0.96566  1.0000
  C   C78       1.0  0.11606  0.56480  0.92949  1.0000
  C   C79       1.0  0.12384  0.57602  0.89999  1.0000
  H   H83       1.0  0.11061  0.59540  0.94637  1.0000
  H   H84       1.0  0.09711  0.57554  0.99947  1.0000
  H   H85       1.0  0.11760  0.55628  0.92447  1.0000
  H   H86       1.0  0.13132  0.57611  0.87262  1.0000
  C   C80       1.0  0.14993  0.59112  0.54165  1.0000
  C   C81       1.0  0.15734  0.60318  0.52817  1.0000
  C   C82       1.0  0.16150  0.60838  0.56044  1.0000
  C   C83       1.0  0.15845  0.60169  0.60689  1.0000
  C   C84       1.0  0.15114  0.58961  0.62033  1.0000
  C   C85       1.0  0.14692  0.58440  0.58814  1.0000
  H   H87       1.0  0.15980  0.60856  0.49285  1.0000
  H   H88       1.0  0.16715  0.61772  0.54923  1.0000
  H   H89       1.0  0.14876  0.58429  0.65563  1.0000
  H   H90       1.0  0.14129  0.57505  0.59941  1.0000
  C   C86       1.0  0.10507  0.57705  0.29688  1.0000
  C   C87       1.0  0.09356  0.57895  0.30045  1.0000
  C   C88       1.0  0.08658  0.57523  0.27266  1.0000
  C   C89       1.0  0.09076  0.56933  0.24056  1.0000
  C   C90       1.0  0.10235  0.56735  0.23644  1.0000
  C   C91       1.0  0.10951  0.57127  0.26433  1.0000
  H   H91       1.0  0.08995  0.58337  0.32515  1.0000
  H   H92       1.0  0.07773  0.57687  0.27643  1.0000
  H   H93       1.0  0.10583  0.56288  0.21178  1.0000
  H   H94       1.0  0.11837  0.56973  0.26099  1.0000
  H   H95       1.0  0.20756  0.52493  0.72206  1.0000
  C   C92       1.0  0.14473  0.54731  0.72325  1.0000
  C   C93       1.0  0.15145  0.55956  0.71064  1.0000
  C   C94       1.0  0.15635  0.56423  0.74188  1.0000
  C   C95       1.0  0.15460  0.55663  0.78573  1.0000
  C   C96       1.0  0.14782  0.54438  0.79848  1.0000
  C   C97       1.0  0.14281  0.53975  0.76731  1.0000
  H   H96       1.0  0.15321  0.56531  0.67623  1.0000
  H   H97       1.0  0.16172  0.57366  0.73157  1.0000
  H   H98       1.0  0.14643  0.53849  0.83238  1.0000
  H   H99       1.0  0.13744  0.53033  0.77744  1.0000
  C   C98       1.0  0.14109  0.54318  0.24568  1.0000
  C   C99       1.0  0.13710  0.55215  0.26312  1.0000
  C   C100      1.0  0.14381  0.55846  0.28644  1.0000
  C   C101      1.0  0.15475  0.55611  0.29107  1.0000
  C   C102      1.0  0.15890  0.54739  0.27244  1.0000
  C   C103      1.0  0.15207  0.54092  0.24986  1.0000
  H   H100      1.0  0.12859  0.55386  0.26016  1.0000
  H   H101      1.0  0.14032  0.56491  0.30171  1.0000
  H   H102      1.0  0.16730  0.54546  0.27613  1.0000
  H   H103      1.0  0.15534  0.53419  0.23563  1.0000
  C   C104      1.0  0.14664  0.53424  0.09574  1.0000
  C   C105      1.0  0.05845  0.55017  0.99391  1.0000
  H   H104      1.0  0.08877  0.55394  0.36834  1.0000
  Fe  Fe29      1.0  0.16508  0.51236  0.69784  1.0000
  C   C106      1.0  0.01543  0.53186  0.08523  1.0000
  H   H105      1.0  0.01280  0.52746  0.18500  1.0000
  C   C107      1.0  0.20616  0.63412  0.92430  1.0000
  C   C108      1.0  0.19404  0.63215  0.92268  1.0000
  C   C109      1.0  0.19006  0.62688  0.89029  1.0000
  C   C110      1.0  0.19820  0.62365  0.85813  1.0000
  C   C111      1.0  0.21032  0.62564  0.85976  1.0000
  C   C112      1.0  0.21423  0.63065  0.89280  1.0000
  H   H106      1.0  0.18768  0.63485  0.94644  1.0000
  H   H107      1.0  0.18073  0.62551  0.88973  1.0000
  H   H108      1.0  0.21678  0.62330  0.83511  1.0000
  H   H109      1.0  0.22359  0.63212  0.89308  1.0000
  C   C113      1.0  0.18164  0.62337  0.24376  1.0000
  C   C114      1.0  0.18842  0.61654  0.26465  1.0000
  C   C115      1.0  0.20036  0.61746  0.24103  1.0000
  C   C116      1.0  0.20555  0.62505  0.19610  1.0000
  C   C117      1.0  0.19879  0.63190  0.17500  1.0000
  C   C118      1.0  0.18689  0.63113  0.19898  1.0000
  H   H110      1.0  0.18453  0.61066  0.29928  1.0000
  H   H111      1.0  0.20555  0.61217  0.25763  1.0000
  H   H112      1.0  0.20271  0.63776  0.14030  1.0000
  H   H113      1.0  0.18170  0.63647  0.18266  1.0000
  C   C119      1.0  0.15432  0.54258  0.99810  1.0000
  C   C120      1.0  0.06839  0.53670  0.96151  1.0000
  C   C121      1.0  0.13500  0.62947  0.19822  1.0000
  C   C122      1.0  0.03107  0.52170  0.06883  1.0000
  Fe  Fe30      1.0  0.13137  0.51465  0.24834  1.0000
  C   C123      1.0  0.18857  0.51964  0.75830  1.0000
  C   C124      1.0  0.20101  0.52397  0.75378  1.0000
  C   C125      1.0  0.20508  0.52722  0.78965  1.0000
  C   C126      1.0  0.19678  0.52602  0.83110  1.0000
  C   C127      1.0  0.18435  0.52154  0.83586  1.0000
  C   C128      1.0  0.18027  0.51836  0.79991  1.0000
  H   H114      1.0  0.10489  0.52452  0.98362  1.0000
  H   H115      1.0  0.21466  0.53055  0.78535  1.0000
  C   C129      1.0  0.17345  0.51444  0.17585  1.0000
  C   C130      1.0  0.22800  0.66214  0.15478  1.0000
  C   C131      1.0  0.09299  0.53329  0.30755  1.0000
  H   H116      1.0  0.16568  0.53792  0.12648  1.0000
  C   C132      1.0  0.18309  0.52468  0.14934  1.0000
  C   C133      1.0  0.19093  0.52434  0.10909  1.0000
  H   H117      1.0  0.16132  0.51072  0.45285  1.0000
  C   C134      1.0  0.14164  0.59189  0.17552  1.0000
  H   H118      1.0  0.25246  0.65331  0.17617  1.0000
  H   H119      1.0  0.18440  0.53297  0.15987  1.0000
  H   H120      1.0  0.17781  0.52052  0.86766  1.0000
  C   C135      1.0  0.02718  0.53087  0.08530  1.0000
  C   C136      1.0  0.23750  0.59287  0.92621  1.0000
  C   C137      1.0  0.23683  0.60505  0.91846  1.0000
  C   C138      1.0  0.24256  0.61282  0.94021  1.0000
  C   C139      1.0  0.15754  0.54617  0.95032  1.0000
  H   H121      1.0  0.16798  0.51897  0.07609  1.0000
  C   C140      1.0  0.24424  0.58861  0.95484  1.0000
  H   H122      1.0  0.23172  0.60846  0.89607  1.0000
  H   H123      1.0  0.14453  0.53082  0.13362  1.0000
  C   C141      1.0  0.15925  0.60762  0.16976  1.0000
  N   N6        1.0  0.14823  0.54302  0.50631  1.0000
  C   C142      1.0  0.16087  0.54211  0.49353  1.0000
  C   C143      1.0  0.14837  0.55616  0.49470  1.0000
  C   C144      1.0  0.14334  0.53781  0.55668  1.0000
  C   C145      1.0  0.14113  0.53675  0.48073  1.0000
  C   C146      1.0  0.14514  0.54009  0.43234  1.0000
  C   C147      1.0  0.13014  0.52732  0.50245  1.0000
  C   C148      1.0  0.13885  0.53404  0.40744  1.0000
  C   C149      1.0  0.12382  0.52147  0.47708  1.0000
  C   C150      1.0  0.12826  0.52469  0.42979  1.0000
  H   H124      1.0  0.16584  0.54728  0.45747  1.0000
  H   H125      1.0  0.16623  0.54581  0.51477  1.0000
  H   H126      1.0  0.16107  0.53237  0.49794  1.0000
  H   H127      1.0  0.15288  0.56104  0.45800  1.0000
  H   H128      1.0  0.15323  0.56119  0.51439  1.0000
  H   H129      1.0  0.13900  0.55727  0.50230  1.0000
  H   H130      1.0  0.13410  0.53886  0.56930  1.0000
  H   H131      1.0  0.14312  0.52793  0.56764  1.0000
  H   H132      1.0  0.14896  0.54257  0.57500  1.0000
  H   H133      1.0  0.15328  0.54733  0.41331  1.0000
  H   H134      1.0  0.12636  0.52409  0.53901  1.0000
  H   H135      1.0  0.14232  0.53650  0.37065  1.0000
  H   H136      1.0  0.17710  0.54000  0.07524  1.0000
  S   S59       1.0  0.24976  0.64013  0.06899  1.0000
  N   N7        1.0  0.18677  0.55546  0.69382  1.0000
  C   C151      1.0  0.17654  0.54421  0.71426  1.0000
  C   C152      1.0  0.19754  0.55211  0.67107  1.0000
  C   C153      1.0  0.18950  0.56008  0.73181  1.0000
  C   C154      1.0  0.18362  0.56444  0.65974  1.0000
  C   C155      1.0  0.18430  0.57671  0.66100  1.0000
  C   C156      1.0  0.17974  0.56097  0.62372  1.0000
  C   C157      1.0  0.18109  0.58486  0.62850  1.0000
  C   C158      1.0  0.17653  0.56920  0.59150  1.0000
  C   C159      1.0  0.17723  0.58113  0.59385  1.0000
  H   H137      1.0  0.17536  0.53868  0.69031  1.0000
  H   H138      1.0  0.17771  0.53801  0.74449  1.0000
  H   H139      1.0  0.16794  0.54645  0.72594  1.0000
  H   H140      1.0  0.19579  0.54741  0.64515  1.0000
  H   H141      1.0  0.20036  0.54560  0.69593  1.0000
  H   H142      1.0  0.20535  0.56036  0.65375  1.0000
  H   H143      1.0  0.19759  0.56811  0.71943  1.0000
  H   H144      1.0  0.18165  0.56265  0.75057  1.0000
  H   H145      1.0  0.19149  0.55296  0.75746  1.0000
  H   H146      1.0  0.18705  0.58020  0.68717  1.0000
  H   H147      1.0  0.17905  0.55181  0.62058  1.0000
  H   H148      1.0  0.18143  0.59412  0.63054  1.0000
  H   H149      1.0  0.17336  0.56631  0.56481  1.0000
  H   H150      1.0  0.17467  0.58748  0.56901  1.0000
  C   C160      1.0  0.10920  0.53797  0.34367  1.0000
  C   C161      1.0  0.10371  0.54593  0.36224  1.0000
  H   H151      1.0  0.16744  0.51488  0.20655  1.0000
  H   H152      1.0  0.10798  0.55108  0.38188  1.0000
  H   H153      1.0  0.14416  0.63439  0.19811  1.0000
  N   N8        1.0  0.23655  0.65995  0.18207  1.0000
  C   C162      1.0  0.15884  0.52032  0.08761  1.0000
  H   H154      1.0  0.23270  0.66779  0.11897  1.0000
  H   H155      1.0  0.13937  0.52855  0.08610  1.0000
  H   H156      1.0  0.11564  0.51408  0.49428  1.0000
  H   H157      1.0  0.14575  0.54368  0.01529  1.0000
  H   H158      1.0  0.10515  0.52755  0.23431  1.0000
  H   H159      1.0  0.22254  0.65337  0.15253  1.0000
  C   C163      1.0  0.08494  0.51332  0.29849  1.0000
  H   H160      1.0  0.22447  0.64215  0.22171  1.0000
  H   H161      1.0  0.22159  0.66689  0.17012  1.0000
  H   H162      1.0  0.07287  0.52459  0.24837  1.0000
  H   H163      1.0  0.24188  0.62217  0.93435  1.0000
  H   H164      1.0  0.14604  0.54389  0.08804  1.0000
  C   C164      1.0  0.15416  0.59665  0.16208  1.0000
  H   H165      1.0  0.11691  0.52476  0.16408  1.0000
  H   H166      1.0  0.17948  0.53331  0.01101  1.0000
  C   C165      1.0  0.16834  0.54491  0.92528  1.0000
  C   C166      1.0  0.17308  0.53684  0.99537  1.0000
  C   C167      1.0  0.24938  0.60858  0.96850  1.0000
  H   H167      1.0  0.23537  0.64807  0.24778  1.0000
  S   S60       1.0  0.14809  0.51242  0.74714  1.0000
  C   C168      1.0  0.25025  0.59647  0.97553  1.0000
  H   H168      1.0  0.09924  0.54028  0.21620  1.0000
  H   H169      1.0  0.07666  0.54023  0.97117  1.0000
  H   H170      1.0  0.06276  0.52848  0.99028  1.0000
  H   H171      1.0  0.14237  0.61984  0.27021  1.0000
  Fe  Fe31      1.0  0.24859  0.65783  0.02512  1.0000
  C   C169      1.0  0.08457  0.57740  0.84086  1.0000
  C   C170      1.0  0.05022  0.54004  0.94496  1.0000
  C   C171      1.0  0.24540  0.65442  0.15835  1.0000
  Fe  Fe32      1.0  0.23934  0.54203  0.94224  1.0000
  C   C172      1.0  0.07650  0.52963  0.27076  1.0000
  H   H172      1.0  0.12451  0.59394  0.20565  1.0000
  C   C173      1.0  0.06655  0.56024  0.87171  1.0000
  H   H173      1.0  0.24505  0.57935  0.96035  1.0000
  C   C174      1.0  0.08038  0.56385  0.91680  1.0000
  H   H174      1.0  0.11287  0.51293  0.99456  1.0000
  N   N9        1.0  0.19352  0.58539  0.92145  1.0000
  C   C175      1.0  0.20299  0.59139  0.87727  1.0000
  C   C176      1.0  0.18680  0.57343  0.91860  1.0000
  C   C177      1.0  0.18487  0.59295  0.92698  1.0000
  C   C178      1.0  0.19916  0.58433  0.95939  1.0000
  C   C179      1.0  0.19814  0.57288  0.99047  1.0000
  C   C180      1.0  0.20595  0.59501  0.96618  1.0000
  C   C181      1.0  0.20397  0.57224  0.02488  1.0000
  C   C182      1.0  0.21159  0.59426  0.00104  1.0000
  C   C183      1.0  0.21074  0.58289  0.02994  1.0000
  H   H175      1.0  0.19907  0.59266  0.84790  1.0000
  H   H176      1.0  0.20826  0.60065  0.87531  1.0000
  H   H177      1.0  0.20956  0.58588  0.87140  1.0000
  H   H178      1.0  0.19291  0.56743  0.91265  1.0000
  H   H179      1.0  0.18271  0.57465  0.88962  1.0000
  H   H180      1.0  0.17923  0.56848  0.95001  1.0000
  H   H181      1.0  0.18926  0.60224  0.92798  1.0000
  H   H182      1.0  0.18090  0.59447  0.89783  1.0000
  H   H183      1.0  0.17733  0.58858  0.95887  1.0000
  H   H184      1.0  0.19323  0.56426  0.98811  1.0000
  H   H185      1.0  0.20723  0.60405  0.94382  1.0000
  H   H186      1.0  0.20354  0.56340  0.04692  1.0000
  H   H187      1.0  0.21700  0.60255  0.00461  1.0000
  H   H188      1.0  0.21554  0.58233  0.05570  1.0000
  N   N10       1.0  0.18800  0.58700  0.18653  1.0000
  C   C184      1.0  0.18002  0.59142  0.21909  1.0000
  C   C185      1.0  0.18344  0.57341  0.19978  1.0000
  C   C186      1.0  0.20039  0.58994  0.19189  1.0000
  C   C187      1.0  0.18822  0.59316  0.13932  1.0000
  C   C188      1.0  0.19324  0.60604  0.12050  1.0000
  C   C189      1.0  0.18343  0.58675  0.11097  1.0000
  C   C190      1.0  0.19354  0.61211  0.07616  1.0000
  C   C191      1.0  0.18372  0.59294  0.06668  1.0000
  C   C192      1.0  0.18879  0.60558  0.04930  1.0000
  H   H189      1.0  0.17046  0.58875  0.21832  1.0000
  H   H190      1.0  0.18009  0.58750  0.25493  1.0000
  H   H191      1.0  0.18280  0.60155  0.21163  1.0000
  H   H192      1.0  0.17384  0.57043  0.19975  1.0000
  H   H193      1.0  0.18354  0.56912  0.23529  1.0000
  H   H194      1.0  0.18909  0.56940  0.17703  1.0000
  H   H195      1.0  0.20398  0.59982  0.18855  1.0000
  H   H196      1.0  0.20067  0.58489  0.22623  1.0000
  H   H197      1.0  0.20688  0.58756  0.16584  1.0000
  H   H198      1.0  0.19706  0.61155  0.13982  1.0000
  H   H199      1.0  0.17949  0.57695  0.12206  1.0000
  H   H200      1.0  0.18020  0.58788  0.04533  1.0000
  H   H201      1.0  0.18923  0.61037  0.01471  1.0000
  N   N11       1.0  0.11639  0.56439  0.76115  1.0000
  C   C193      1.0  0.10328  0.55901  0.78443  1.0000
  C   C194      1.0  0.11942  0.55960  0.72123  1.0000
  C   C195      1.0  0.12330  0.55999  0.79267  1.0000
  C   C196      1.0  0.11926  0.57796  0.74875  1.0000
  C   C197      1.0  0.12443  0.58558  0.70299  1.0000
  C   C198      1.0  0.11718  0.58397  0.78318  1.0000
  C   C199      1.0  0.12784  0.59837  0.69292  1.0000
  C   C200      1.0  0.12036  0.59677  0.77257  1.0000
  C   C201      1.0  0.12586  0.60395  0.72763  1.0000
  H   H202      1.0  0.09777  0.56257  0.76263  1.0000
  H   H203      1.0  0.10075  0.54882  0.79242  1.0000
  H   H204      1.0  0.10054  0.56112  0.81738  1.0000
  H   H205      1.0  0.11411  0.56202  0.69695  1.0000
  H   H206      1.0  0.11757  0.54941  0.73150  1.0000
  H   H207      1.0  0.12921  0.56319  0.70240  1.0000
  H   H208      1.0  0.12063  0.56194  0.82595  1.0000
  H   H209      1.0  0.12215  0.54991  0.80028  1.0000
  H   H210      1.0  0.13313  0.56453  0.77753  1.0000
  H   H211      1.0  0.12626  0.58194  0.67428  1.0000
  H   H212      1.0  0.11348  0.57883  0.81879  1.0000
  H   H213      1.0  0.13236  0.60399  0.65802  1.0000
  H   H214      1.0  0.11902  0.60117  0.79953  1.0000
  H   H215      1.0  0.05239  0.54247  0.02343  1.0000
  H   H216      1.0  0.07155  0.57314  0.80469  1.0000
  S   S61       1.0  0.03661  0.54141  0.10545  1.0000
  C   C202      1.0  0.13412  0.59819  0.19591  1.0000
  C   C203      1.0  0.10393  0.53171  0.31688  1.0000
  H   H217      1.0  0.07941  0.54347  0.32153  1.0000
  C   C204      1.0  0.24314  0.67169  0.18661  1.0000
  C   C205      1.0  0.08776  0.57407  0.88113  1.0000
  C   C206      1.0  0.16781  0.54084  0.08855  1.0000
  N   N12       1.0  0.06171  0.54609  0.95247  1.0000
  H   H218      1.0  0.12360  0.51975  0.41052  1.0000
  H   H219      1.0  0.09025  0.58543  0.81347  1.0000
  H   H220      1.0  0.09299  0.52554  0.20925  1.0000
  H   H221      1.0  0.11452  0.60211  0.25510  1.0000
  H   H222      1.0  0.04457  0.54653  0.93902  1.0000
  C   C207      1.0  0.07403  0.57047  0.83605  1.0000
  H   H223      1.0  0.05847  0.55537  0.86585  1.0000
  H   H224      1.0  0.07125  0.53353  0.93096  1.0000
  H   H225      1.0  0.05366  0.55747  0.98857  1.0000
  H   H226      1.0  0.06642  0.55374  0.00511  1.0000
  C   C208      1.0  0.25007  0.68144  0.14711  1.0000
  C   C209      1.0  0.09286  0.54753  0.35454  1.0000
  C   C210      1.0  0.06947  0.55669  0.91354  1.0000
  H   H227      1.0  0.11863  0.53931  0.09019  1.0000
  H   H228      1.0  0.16900  0.61127  0.16001  1.0000
  N   N13       1.0  0.13133  0.61638  0.22562  1.0000
  H   H229      1.0  0.24094  0.64520  0.15664  1.0000
  H   H230      1.0  0.12880  0.63464  0.21203  1.0000
  C   C211      1.0  0.17612  0.54034  0.94777  1.0000
  H   H231      1.0  0.13034  0.60599  0.29292  1.0000
  H   H232      1.0  0.15993  0.59176  0.14609  1.0000
  H   H233      1.0  0.16818  0.55074  0.07742  1.0000
  C   C212      1.0  0.13286  0.61569  0.27158  1.0000
  H   H234      1.0  0.13768  0.58321  0.17038  1.0000
  H   H235      1.0  0.15623  0.62214  0.19729  1.0000
  H   H236      1.0  0.13502  0.63031  0.16216  1.0000
  H   H237      1.0  0.11272  0.61712  0.24594  1.0000
  C   C213      1.0  0.15182  0.61390  0.19066  1.0000
  H   H238      1.0  0.10894  0.53254  0.03626  1.0000
  H   H239      1.0  0.18451  0.53934  0.92813  1.0000
  C   C214      1.0  0.16198  0.53764  0.02212  1.0000
  C   C215      1.0  0.22944  0.65079  0.22646  1.0000
  C   C216      1.0  0.11366  0.52977  0.09841  1.0000
  C   C217      1.0  0.24331  0.67368  0.22954  1.0000
  H   H240      1.0  0.08627  0.52315  0.03630  1.0000
  N   N14       1.0  0.15878  0.53338  0.07258  1.0000
  H   H241      1.0  0.25042  0.68059  0.11333  1.0000
  H   H242      1.0  0.10867  0.52579  0.30272  1.0000
  H   H243      1.0  0.04010  0.52086  0.06763  1.0000
  H   H244      1.0  0.25014  0.66009  0.12253  1.0000
  H   H245      1.0  0.17069  0.51501  0.80431  1.0000
  C   C218      1.0  0.08438  0.51298  0.04674  1.0000
  H   H246      1.0  0.15266  0.51446  0.07417  1.0000
  C   C219      1.0  0.01145  0.51434  0.05464  1.0000
  H   H247      1.0  0.25027  0.68601  0.26529  1.0000
  C   C220      1.0  0.25017  0.68470  0.23227  1.0000
  C   C221      1.0  0.10377  0.51451  0.99679  1.0000
  C   C222      1.0  0.00762  0.52366  0.07035  1.0000
  H   H248      1.0  0.15596  0.51658  0.12548  1.0000
  H   H249      1.0  0.04803  0.51175  0.17230  1.0000
  H   H250      1.0  0.10009  0.51043  0.97221  1.0000
  H   H251      1.0  0.25417  0.58410  0.86531  1.0000
  H   H252      1.0  0.09313  0.51022  0.30122  1.0000
  H   H253      1.0  0.07856  0.51039  0.33339  1.0000
  H   H254      1.0  0.01700  0.50973  0.23287  1.0000
  H   H255      1.0  0.07926  0.50935  0.02466  1.0000
  H   H256      1.0  0.07828  0.50960  0.08223  1.0000
  C   C223      1.0  0.10542  0.50962  0.15218  1.0000
  H   H257      1.0  0.48879  0.05291  0.18540  1.0000
  H   H258      1.0  0.47679  0.05071  0.86448  1.0000
  H   H259      1.0  0.50346  0.02402  0.83205  1.0000
  S   S62       1.0  0.48853  0.02009  0.03226  1.0000
  H   H260      1.0  0.50075  0.06215  0.23117  1.0000
  H   H261      1.0  0.47326  0.01380  0.96800  1.0000
  C   C224      1.0  0.47916  0.03251  0.88501  1.0000
  H   H262      1.0  0.50211  0.01074  0.89864  1.0000
  C   C225      1.0  0.50152  0.04321  0.16167  1.0000
  S   S63       1.0  0.49167  0.03491  0.13626  1.0000
  Fe  Fe33      1.0  0.49521  0.02150  0.09401  1.0000
  C   C226      1.0  0.48656  0.02451  0.87700  1.0000
  H   H263      1.0  0.48640  0.02178  0.31195  1.0000
  C   C227      1.0  0.49725  0.02943  0.83978  1.0000
  C   C228      1.0  0.49749  0.05121  0.18543  1.0000
  H   H264      1.0  0.47098  0.02973  0.91284  1.0000
  H   H265      1.0  0.50260  0.04439  0.94225  1.0000
  C   C229      1.0  0.48721  0.02046  0.27752  1.0000
  C   C230      1.0  0.50035  0.04157  0.81247  1.0000
  C   C231      1.0  0.48236  0.04464  0.85732  1.0000
  H   H266      1.0  0.49556  0.05867  0.80067  1.0000
  H   H267      1.0  0.47804  0.01909  0.27223  1.0000
  H   H268      1.0  0.49284  0.02916  0.25160  1.0000
  N   N15       1.0  0.48354  0.01163  0.90558  1.0000
  C   C232      1.0  0.49290  0.04914  0.82112  1.0000
  N   N16       1.0  0.49241  0.01005  0.27252  1.0000
  C   C233      1.0  0.49362  0.00972  0.92498  1.0000
  H   H269      1.0  0.50119  0.06386  0.89322  1.0000
  H   H270      1.0  0.49582  0.01656  0.94347  1.0000
  H   H271      1.0  0.49941  0.01685  0.19966  1.0000
  C   C234      1.0  0.47656  0.41439  0.87716  1.0000
  H   H272      1.0  0.49825  0.44187  0.83611  1.0000
  C   C235      1.0  0.48848  0.42241  0.85996  1.0000
  C   C236      1.0  0.46640  0.41899  0.88292  1.0000
  C   C237      1.0  0.40273  0.48321  0.05846  1.0000
  C   C238      1.0  0.46776  0.43159  0.87182  1.0000
  H   H273      1.0  0.49496  0.47612  0.12214  1.0000
  C   C239      1.0  0.41480  0.49900  0.98937  1.0000
  C   C240      1.0  0.49520  0.47921  0.01196  1.0000
  N   N17       1.0  0.49948  0.41792  0.85379  1.0000
  Fe  Fe34      1.0  0.44449  0.47939  0.01676  1.0000
  S   S64       1.0  0.44850  0.49662  0.96022  1.0000
  S   S65       1.0  0.43520  0.47722  0.09079  1.0000
  Fe  Fe35      1.0  0.45591  0.46590  0.95193  1.0000
  S   S66       1.0  0.46049  0.48230  0.88982  1.0000
  S   S67       1.0  0.45970  0.44731  0.95369  1.0000
  Fe  Fe36      1.0  0.46640  0.49296  0.93616  1.0000
  C   C241      1.0  0.49688  0.40432  0.86823  1.0000
  Fe  Fe37      1.0  0.44194  0.48447  0.91974  1.0000
  S   S68       1.0  0.42665  0.48995  0.89390  1.0000
  S   S69       1.0  0.46298  0.47655  0.99562  1.0000
  S   S70       1.0  0.43685  0.46722  0.97828  1.0000
  C   C242      1.0  0.48952  0.43520  0.84876  1.0000
  C   C243      1.0  0.45398  0.45645  0.10906  1.0000
  H   H274      1.0  0.48026  0.44947  0.84767  1.0000
  H   H275      1.0  0.38390  0.49277  0.97151  1.0000
  H   H276      1.0  0.39084  0.47541  0.00202  1.0000
  H   H277      1.0  0.45987  0.43512  0.87773  1.0000
  N   N18       1.0  0.40258  0.49061  0.01328  1.0000
  H   H278      1.0  0.49932  0.32360  0.53068  1.0000
  H   H279      1.0  0.46537  0.50031  0.00910  1.0000
  H   H280      1.0  0.40871  0.49912  0.86044  1.0000
  C   C244      1.0  0.40001  0.48193  0.98632  1.0000
  H   H281      1.0  0.49161  0.40008  0.84780  1.0000
  H   H282      1.0  0.45712  0.44347  0.07190  1.0000
  H   H283      1.0  0.40085  0.48680  0.95035  1.0000
  C   C245      1.0  0.38476  0.49804  0.99533  1.0000
  C   C246      1.0  0.47337  0.44387  0.96025  1.0000
  C   C247      1.0  0.48391  0.45313  0.95220  1.0000
  C   C248      1.0  0.49467  0.45011  0.95682  1.0000
  C   C249      1.0  0.49508  0.43780  0.96911  1.0000
  C   C250      1.0  0.48457  0.42852  0.97666  1.0000
  C   C251      1.0  0.47378  0.43155  0.97233  1.0000
  H   H284      1.0  0.48376  0.46263  0.94199  1.0000
  H   H285      1.0  0.40666  0.47633  0.98376  1.0000
  H   H286      1.0  0.48467  0.41901  0.98659  1.0000
  H   H287      1.0  0.46568  0.42431  0.97845  1.0000
  H   H288      1.0  0.47516  0.47989  0.11513  1.0000
  H   H289      1.0  0.50105  0.41936  0.78315  1.0000
  H   H290      1.0  0.40582  0.48893  0.07963  1.0000
  H   H291      1.0  0.39356  0.47713  0.07838  1.0000
  H   H292      1.0  0.42180  0.49385  0.98628  1.0000
  H   H293      1.0  0.50200  0.41971  0.91781  1.0000
  C   C252      1.0  0.42648  0.49667  0.83750  1.0000
  C   C253      1.0  0.43608  0.49825  0.79933  1.0000
  C   C254      1.0  0.47394  0.50431  0.01356  1.0000
  H   H294      1.0  0.45738  0.41276  0.89696  1.0000
  C   C255      1.0  0.47381  0.45609  0.06761  1.0000
  H   H295      1.0  0.44397  0.49527  0.80377  1.0000
  H   H296      1.0  0.43582  0.50146  0.03796  1.0000
  H   H297      1.0  0.49188  0.40038  0.90513  1.0000
  C   C256      1.0  0.39373  0.49796  0.01907  1.0000
  H   H298      1.0  0.40908  0.47732  0.05509  1.0000
  H   H299      1.0  0.47890  0.45190  0.04558  1.0000
  C   C257      1.0  0.47178  0.47171  0.10602  1.0000
  N   N19       1.0  0.49271  0.47214  0.06025  1.0000
  H   H300      1.0  0.44421  0.45288  0.11931  1.0000
  C   C258      1.0  0.41718  0.49613  0.16281  1.0000
  C   C259      1.0  0.42274  0.48722  0.15094  1.0000
  C   C260      1.0  0.42926  0.48897  0.10560  1.0000
  C   C261      1.0  0.43061  0.49988  0.07263  1.0000
  C   C262      1.0  0.47457  0.50445  0.05731  1.0000
  H   H301      1.0  0.41177  0.49451  0.19744  1.0000
  H   H302      1.0  0.42169  0.47880  0.17672  1.0000
  H   H303      1.0  0.47481  0.40453  0.88703  1.0000
  H   H304      1.0  0.45347  0.47099  0.14023  1.0000
  H   H305      1.0  0.49818  0.45714  0.03838  1.0000
  C   C263      1.0  0.47929  0.43968  0.85478  1.0000
  H   H306      1.0  0.49021  0.48640  0.00887  1.0000
  C   C264      1.0  0.41626  0.50053  0.83118  1.0000
  H   H307      1.0  0.49429  0.48907  0.07911  1.0000
  C   C265      1.0  0.47950  0.46648  0.07919  1.0000
  H   H308      1.0  0.44263  0.50436  0.72574  1.0000
  C   C266      1.0  0.43530  0.50342  0.75517  1.0000
  H   H309      1.0  0.49672  0.45617  0.09745  1.0000
  H   H310      1.0  0.39103  0.50586  0.47431  1.0000
  C   C267      1.0  0.45923  0.46668  0.12082  1.0000
  H   H311      1.0  0.46654  0.50035  0.08598  1.0000
  C   C268      1.0  0.46125  0.45115  0.08251  1.0000
  C   C269      1.0  0.49949  0.46263  0.06243  1.0000
  H   H312      1.0  0.49222  0.47323  0.99130  1.0000
  C   C270      1.0  0.49754  0.48066  0.08477  1.0000
  H   H313      1.0  0.44051  0.50614  0.18387  1.0000
  H   H314      1.0  0.45577  0.50600  0.15838  1.0000
  H   H315      1.0  0.41529  0.50415  0.95416  1.0000
  H   H316      1.0  0.41744  0.50581  0.00738  1.0000
  H   H317      1.0  0.40092  0.50641  0.06649  1.0000
  C   C271      1.0  0.39414  0.50565  0.04826  1.0000
  C   C272      1.0  0.37646  0.50500  0.00208  1.0000
  H   H318      1.0  0.36960  0.50484  0.98399  1.0000
  C   C273      1.0  0.41805  0.50675  0.12915  1.0000
  C   C274      1.0  0.41558  0.50591  0.78720  1.0000
  C   C275      1.0  0.42503  0.50722  0.74893  1.0000
  H   H319      1.0  0.50276  0.45736  0.95050  1.0000
  S   S71       1.0  0.48356  0.50760  0.92257  1.0000
  H   H320      1.0  0.40757  0.50864  0.78282  1.0000
  C   C276      1.0  0.42492  0.50866  0.08427  1.0000
  H   H321      1.0  0.44610  0.50851  0.12353  1.0000
  S   S72       1.0  0.48618  0.50893  0.11967  1.0000
  C   C277      1.0  0.48432  0.50910  0.97634  1.0000
  H   H322      1.0  0.26180  0.55592  0.98951  1.0000
  C   C278      1.0  0.31356  0.58638  0.06745  1.0000
  H   H323      1.0  0.44224  0.56766  0.71837  1.0000
  S   S73       1.0  0.46297  0.55953  0.95000  1.0000
  C   C279      1.0  0.45694  0.58823  0.05268  1.0000
  C   C280      1.0  0.42938  0.53216  0.47794  1.0000
  C   C281      1.0  0.27086  0.54535  0.95271  1.0000
  H   H324      1.0  0.31360  0.58852  0.98066  1.0000
  Fe  Fe38      1.0  0.38614  0.52959  0.70919  1.0000
  Fe  Fe39      1.0  0.43847  0.74167  0.13789  1.0000
  S   S74       1.0  0.44373  0.72395  0.13113  1.0000
  N   N20       1.0  0.31325  0.59752  0.03361  1.0000
  C   C282      1.0  0.30062  0.59825  0.03814  1.0000
  C   C283      1.0  0.44919  0.58361  0.09692  1.0000
  H   H325      1.0  0.30363  0.61786  0.03364  1.0000
  Fe  Fe40      1.0  0.32439  0.56334  0.98416  1.0000
  S   S75       1.0  0.33816  0.57997  0.93263  1.0000
  S   S76       1.0  0.30425  0.56322  0.99436  1.0000
  Fe  Fe41      1.0  0.34463  0.55465  0.01996  1.0000
  S   S77       1.0  0.35923  0.57078  0.97127  1.0000
  S   S78       1.0  0.35188  0.54041  0.06018  1.0000
  Fe  Fe42      1.0  0.34660  0.58197  0.98909  1.0000
  S   S79       1.0  0.35267  0.60086  0.99883  1.0000
  Fe  Fe43      1.0  0.34960  0.56711  0.91965  1.0000
  S   S80       1.0  0.36210  0.56915  0.85032  1.0000
  S   S81       1.0  0.33238  0.56608  0.04179  1.0000
  S   S82       1.0  0.33547  0.55031  0.96725  1.0000
  Fe  Fe44      1.0  0.43388  0.64513  0.04320  1.0000
  S   S83       1.0  0.42606  0.62537  0.08028  1.0000
  S   S84       1.0  0.44856  0.65156  0.97677  1.0000
  Fe  Fe45      1.0  0.41935  0.65368  0.11625  1.0000
  S   S85       1.0  0.40995  0.63400  0.15937  1.0000
  S   S86       1.0  0.41446  0.66941  0.14404  1.0000
  Fe  Fe46      1.0  0.42831  0.63065  0.14257  1.0000
  S   S87       1.0  0.43305  0.61582  0.19058  1.0000
  Fe  Fe47      1.0  0.40810  0.62964  0.09444  1.0000
  S   S88       1.0  0.39420  0.61260  0.09538  1.0000
  S   S89       1.0  0.43789  0.65036  0.10418  1.0000
  S   S90       1.0  0.41589  0.64952  0.05234  1.0000
  Fe  Fe48      1.0  0.46870  0.60484  0.36470  1.0000
  S   S91       1.0  0.47172  0.58950  0.33586  1.0000
  S   S92       1.0  0.46708  0.62227  0.31873  1.0000
  Fe  Fe49      1.0  0.46787  0.59033  0.46235  1.0000
  S   S93       1.0  0.47093  0.57391  0.43938  1.0000
  S   S94       1.0  0.46014  0.59032  0.53637  1.0000
  Fe  Fe50      1.0  0.48470  0.58762  0.37736  1.0000
  Fe  Fe51      1.0  0.45780  0.57725  0.39926  1.0000
  S   S95       1.0  0.44268  0.56178  0.40079  1.0000
  S   S96       1.0  0.48278  0.60403  0.40271  1.0000
  S   S97       1.0  0.45375  0.59266  0.42541  1.0000
  H   H326      1.0  0.45882  0.55333  0.59536  1.0000
  C   C284      1.0  0.43420  0.54455  0.71774  1.0000
  H   H327      1.0  0.39922  0.53823  0.96289  1.0000
  H   H328      1.0  0.29334  0.57920  0.04016  1.0000
  C   C285      1.0  0.28528  0.60984  0.04026  1.0000
  Fe  Fe52      1.0  0.41669  0.54652  0.22662  1.0000
  S   S98       1.0  0.43317  0.56202  0.21099  1.0000
  S   S99       1.0  0.39982  0.54510  0.27966  1.0000
  Fe  Fe53      1.0  0.46173  0.60055  0.85224  1.0000
  S   S100      1.0  0.47482  0.58914  0.83967  1.0000
  S   S101      1.0  0.46921  0.61968  0.85542  1.0000
  Fe  Fe54      1.0  0.44050  0.58081  0.85506  1.0000
  S   S102      1.0  0.45165  0.56774  0.84448  1.0000
  S   S103      1.0  0.42065  0.57375  0.86354  1.0000
  Fe  Fe55      1.0  0.46034  0.57415  0.89466  1.0000
  Fe  Fe56      1.0  0.46502  0.58387  0.78987  1.0000
  S   S104      1.0  0.47485  0.58067  0.72363  1.0000
  S   S105      1.0  0.44788  0.58580  0.91031  1.0000
  S   S106      1.0  0.45328  0.59668  0.79764  1.0000
  H   H329      1.0  0.45117  0.53067  0.63058  1.0000
  S   S107      1.0  0.39160  0.54684  0.65122  1.0000
  C   C286      1.0  0.48073  0.58607  0.19610  1.0000
  S   S108      1.0  0.41881  0.56877  0.66970  1.0000
  H   H330      1.0  0.43337  0.55119  0.68751  1.0000
  H   H331      1.0  0.46290  0.56875  0.17997  1.0000
  H   H332      1.0  0.42850  0.53867  0.81675  1.0000
  H   H333      1.0  0.41532  0.58807  0.92671  1.0000
  H   H334      1.0  0.32266  0.61683  0.01297  1.0000
  H   H335      1.0  0.42564  0.54251  0.74501  1.0000
  H   H336      1.0  0.31239  0.70337  0.98523  1.0000
  C   C287      1.0  0.38863  0.74522  0.14276  1.0000
  C   C288      1.0  0.41890  0.57308  0.81009  1.0000
  C   C289      1.0  0.41089  0.56292  0.80649  1.0000
  C   C290      1.0  0.41035  0.56180  0.76343  1.0000
  C   C291      1.0  0.41792  0.57078  0.72389  1.0000
  C   C292      1.0  0.42550  0.58123  0.72760  1.0000
  C   C293      1.0  0.42602  0.58235  0.77063  1.0000
  H   H337      1.0  0.40543  0.55569  0.83677  1.0000
  H   H338      1.0  0.40413  0.55396  0.76103  1.0000
  H   H339      1.0  0.43128  0.58829  0.69715  1.0000
  H   H340      1.0  0.43195  0.59041  0.77307  1.0000
  H   H341      1.0  0.33034  0.60710  0.03976  1.0000
  H   H342      1.0  0.31724  0.60961  0.07420  1.0000
  H   H343      1.0  0.48059  0.58226  0.56163  1.0000
  H   H344      1.0  0.39304  0.51588  0.53533  1.0000
  C   C294      1.0  0.46482  0.58802  0.58725  1.0000
  C   C295      1.0  0.45777  0.59013  0.62578  1.0000
  C   C296      1.0  0.46094  0.58834  0.66712  1.0000
  C   C297      1.0  0.47111  0.58415  0.67091  1.0000
  C   C298      1.0  0.47814  0.58197  0.63247  1.0000
  C   C299      1.0  0.47505  0.58393  0.59086  1.0000
  H   H345      1.0  0.44979  0.59322  0.62360  1.0000
  H   H346      1.0  0.45542  0.59007  0.69620  1.0000
  H   H347      1.0  0.48603  0.57875  0.63485  1.0000
  H   H348      1.0  0.30833  0.58574  0.10251  1.0000
  C   C300      1.0  0.44002  0.56220  0.34786  1.0000
  C   C301      1.0  0.44570  0.57242  0.30970  1.0000
  C   C302      1.0  0.44365  0.57238  0.26746  1.0000
  C   C303      1.0  0.43577  0.56218  0.26356  1.0000
  C   C304      1.0  0.42979  0.55213  0.30202  1.0000
  C   C305      1.0  0.43197  0.55212  0.34402  1.0000
  H   H349      1.0  0.45154  0.58041  0.31272  1.0000
  H   H350      1.0  0.44795  0.58034  0.23825  1.0000
  H   H351      1.0  0.42361  0.54424  0.29956  1.0000
  H   H352      1.0  0.42746  0.54423  0.37350  1.0000
  C   C306      1.0  0.45313  0.64208  0.94346  1.0000
  C   C307      1.0  0.44670  0.62982  0.95129  1.0000
  C   C308      1.0  0.45130  0.62270  0.92411  1.0000
  C   C309      1.0  0.46227  0.62790  0.88928  1.0000
  C   C310      1.0  0.46848  0.64011  0.88169  1.0000
  C   C311      1.0  0.46394  0.64714  0.90837  1.0000
  H   H353      1.0  0.43831  0.62585  0.97828  1.0000
  H   H354      1.0  0.44654  0.61321  0.93044  1.0000
  H   H355      1.0  0.47694  0.64419  0.85492  1.0000
  H   H356      1.0  0.46893  0.65658  0.90191  1.0000
  C   C312      1.0  0.44291  0.61794  0.22449  1.0000
  C   C313      1.0  0.44310  0.60768  0.25786  1.0000
  C   C314      1.0  0.45056  0.60893  0.28660  1.0000
  C   C315      1.0  0.45798  0.62044  0.28188  1.0000
  C   C316      1.0  0.45805  0.63067  0.24765  1.0000
  C   C317      1.0  0.45050  0.62944  0.21902  1.0000
  H   H357      1.0  0.43735  0.59872  0.26188  1.0000
  H   H358      1.0  0.45051  0.60102  0.31277  1.0000
  H   H359      1.0  0.46382  0.63958  0.24383  1.0000
  H   H360      1.0  0.45042  0.63738  0.19332  1.0000
  C   C318      1.0  0.36352  0.55680  0.82719  1.0000
  C   C319      1.0  0.35497  0.54534  0.84465  1.0000
  C   C320      1.0  0.35665  0.53571  0.82568  1.0000
  C   C321      1.0  0.36686  0.53747  0.78920  1.0000
  C   C322      1.0  0.37542  0.54892  0.77206  1.0000
  C   C323      1.0  0.37371  0.55854  0.79075  1.0000
  H   H361      1.0  0.34704  0.54391  0.87250  1.0000
  C   C324      1.0  0.44319  0.56049  0.74661  1.0000
  H   H362      1.0  0.38334  0.55040  0.74417  1.0000
  H   H363      1.0  0.38039  0.56735  0.77702  1.0000
  C   C325      1.0  0.35911  0.54371  0.10132  1.0000
  C   C326      1.0  0.35814  0.55372  0.11817  1.0000
  N   N21       1.0  0.44486  0.54954  0.73215  1.0000
  C   C327      1.0  0.36983  0.54765  0.17060  1.0000
  C   C328      1.0  0.37119  0.53792  0.15252  1.0000
  C   C329      1.0  0.36573  0.53589  0.11837  1.0000
  H   H364      1.0  0.35306  0.55980  0.10527  1.0000
  C   C330      1.0  0.27789  0.67861  0.07523  1.0000
  H   H365      1.0  0.37612  0.53173  0.16580  1.0000
  H   H366      1.0  0.36648  0.52810  0.10569  1.0000
  C   C331      1.0  0.36471  0.60417  0.02335  1.0000
  C   C332      1.0  0.37005  0.61640  0.02077  1.0000
  C   C333      1.0  0.37933  0.61924  0.04149  1.0000
  C   C334      1.0  0.38318  0.60983  0.06575  1.0000
  C   C335      1.0  0.37796  0.59763  0.06765  1.0000
  C   C336      1.0  0.36887  0.59483  0.04625  1.0000
  H   H367      1.0  0.36692  0.62370  0.00300  1.0000
  H   H368      1.0  0.38325  0.62866  0.03972  1.0000
  H   H369      1.0  0.38084  0.59025  0.08614  1.0000
  H   H370      1.0  0.36485  0.58538  0.04857  1.0000
  C   C337      1.0  0.43513  0.70917  0.13240  1.0000
  C   C338      1.0  0.44074  0.70218  0.10745  1.0000
  C   C339      1.0  0.43452  0.69019  0.10949  1.0000
  C   C340      1.0  0.42266  0.68481  0.13767  1.0000
  C   C341      1.0  0.41713  0.69171  0.16322  1.0000
  C   C342      1.0  0.42323  0.70381  0.16028  1.0000
  H   H371      1.0  0.44997  0.70613  0.08605  1.0000
  H   H372      1.0  0.43896  0.68509  0.08947  1.0000
  H   H373      1.0  0.40809  0.68759  0.18611  1.0000
  H   H374      1.0  0.41889  0.70887  0.18073  1.0000
  C   C343      1.0  0.46298  0.60074  0.03501  1.0000
  H   H375      1.0  0.47599  0.52909  0.91211  1.0000
  C   C344      1.0  0.27947  0.58839  0.04482  1.0000
  H   H376      1.0  0.48358  0.56203  0.36981  1.0000
  C   C345      1.0  0.32112  0.60826  0.04058  1.0000
  C   C346      1.0  0.29140  0.58784  0.04118  1.0000
  H   H377      1.0  0.32298  0.58632  0.06798  1.0000
  H   H378      1.0  0.30986  0.57774  0.05969  1.0000
  C   C347      1.0  0.31859  0.59683  0.98720  1.0000
  C   C348      1.0  0.27023  0.55365  0.97861  1.0000
  H   H379      1.0  0.46877  0.60366  0.00037  1.0000
  H   H380      1.0  0.31848  0.60493  0.96055  1.0000
  H   H381      1.0  0.32817  0.59642  0.98206  1.0000
  C   C349      1.0  0.43704  0.52601  0.84809  1.0000
  C   C350      1.0  0.44749  0.59146  0.12380  1.0000
  C   C351      1.0  0.27642  0.59936  0.04448  1.0000
  H   H382      1.0  0.28781  0.71427  0.03484  1.0000
  H   H383      1.0  0.27693  0.61051  0.92294  1.0000
  H   H384      1.0  0.47250  0.55146  0.81624  1.0000
  C   C352      1.0  0.28049  0.55890  0.99103  1.0000
  C   C353      1.0  0.29161  0.55610  0.97753  1.0000
  C   C354      1.0  0.29230  0.54794  0.95111  1.0000
  C   C355      1.0  0.28200  0.54259  0.93896  1.0000
  C   C356      1.0  0.29723  0.60937  0.03709  1.0000
  H   H385      1.0  0.27974  0.56515  0.01147  1.0000
  H   H386      1.0  0.30072  0.54563  0.94033  1.0000
  H   H387      1.0  0.28267  0.53623  0.91882  1.0000
  N   N22       1.0  0.46774  0.62229  0.04442  1.0000
  C   C357      1.0  0.47464  0.62634  0.99532  1.0000
  C   C358      1.0  0.45884  0.62962  0.05027  1.0000
  C   C359      1.0  0.47636  0.62518  0.07081  1.0000
  C   C360      1.0  0.46140  0.60901  0.06157  1.0000
  C   C361      1.0  0.45356  0.60394  0.10666  1.0000
  H   H388      1.0  0.46867  0.62418  0.97372  1.0000
  H   H389      1.0  0.47877  0.63645  0.98256  1.0000
  H   H390      1.0  0.48221  0.62201  0.98860  1.0000
  H   H391      1.0  0.45157  0.62687  0.03445  1.0000
  H   H392      1.0  0.46308  0.63964  0.03388  1.0000
  H   H393      1.0  0.45442  0.62859  0.08662  1.0000
  H   H394      1.0  0.48297  0.61955  0.06859  1.0000
  H   H395      1.0  0.48158  0.63503  0.05799  1.0000
  H   H396      1.0  0.47169  0.62338  0.10756  1.0000
  H   H397      1.0  0.28281  0.61838  0.03918  1.0000
  H   H398      1.0  0.45203  0.60960  0.12912  1.0000
  N   N23       1.0  0.37951  0.69117  0.12817  1.0000
  C   C362      1.0  0.37183  0.67877  0.15628  1.0000
  C   C363      1.0  0.37401  0.69590  0.09194  1.0000
  C   C364      1.0  0.39146  0.68979  0.10536  1.0000
  C   C365      1.0  0.38024  0.69947  0.15750  1.0000
  S   S109      1.0  0.40952  0.51710  0.13963  1.0000
  C   C366      1.0  0.25692  0.69238  0.15024  1.0000
  C   C367      1.0  0.27605  0.69769  0.03148  1.0000
  H   H399      1.0  0.43890  0.51808  0.59687  1.0000
  C   C368      1.0  0.31355  0.72965  0.97416  1.0000
  H   H400      1.0  0.36235  0.67879  0.17142  1.0000
  H   H401      1.0  0.37138  0.67212  0.13583  1.0000
  H   H402      1.0  0.37547  0.67509  0.18487  1.0000
  H   H403      1.0  0.45107  0.56467  0.75703  1.0000
  C   C369      1.0  0.47896  0.55568  0.83294  1.0000
  H   H404      1.0  0.38884  0.75339  0.26579  1.0000
  H   H405      1.0  0.39590  0.68569  0.13058  1.0000
  H   H406      1.0  0.47957  0.61690  0.22575  1.0000
  C   C370      1.0  0.38498  0.53479  0.88095  1.0000
  S   S110      1.0  0.25825  0.53860  0.93498  1.0000
  H   H407      1.0  0.44706  0.52061  0.48543  1.0000
  H   H408      1.0  0.36769  0.51199  0.38580  1.0000
  C   C371      1.0  0.37925  0.59588  0.87360  1.0000
  C   C372      1.0  0.37912  0.60288  0.90407  1.0000
  N   N24       1.0  0.44089  0.66839  0.22871  1.0000
  C   C373      1.0  0.43121  0.67471  0.23678  1.0000
  C   C374      1.0  0.45119  0.67473  0.24230  1.0000
  C   C375      1.0  0.44522  0.66989  0.17909  1.0000
  C   C376      1.0  0.43599  0.65517  0.25388  1.0000
  C   C377      1.0  0.42652  0.64774  0.24303  1.0000
  C   C378      1.0  0.44040  0.64928  0.28927  1.0000
  C   C379      1.0  0.42193  0.63519  0.26552  1.0000
  C   C380      1.0  0.43565  0.63674  0.31181  1.0000
  C   C381      1.0  0.42649  0.62970  0.29978  1.0000
  H   H409      1.0  0.42768  0.67378  0.27370  1.0000
  H   H410      1.0  0.43451  0.68468  0.21796  1.0000
  H   H411      1.0  0.42338  0.67092  0.22515  1.0000
  H   H412      1.0  0.44847  0.67447  0.27888  1.0000
  H   H413      1.0  0.45469  0.68462  0.22242  1.0000
  H   H414      1.0  0.45892  0.67058  0.23614  1.0000
  H   H415      1.0  0.43770  0.66697  0.16462  1.0000
  H   H416      1.0  0.44975  0.67966  0.15921  1.0000
  H   H417      1.0  0.45177  0.66441  0.17190  1.0000
  H   H418      1.0  0.42266  0.65157  0.21665  1.0000
  H   H419      1.0  0.44767  0.65406  0.29974  1.0000
  H   H420      1.0  0.41496  0.62962  0.25569  1.0000
  H   H421      1.0  0.43947  0.63236  0.33752  1.0000
  H   H422      1.0  0.42316  0.61990  0.31612  1.0000
  N   N25       1.0  0.40211  0.58390  0.19060  1.0000
  C   C382      1.0  0.39036  0.58475  0.18187  1.0000
  C   C383      1.0  0.41107  0.59586  0.16544  1.0000
  C   C384      1.0  0.40587  0.57432  0.17132  1.0000
  C   C385      1.0  0.40160  0.58087  0.23958  1.0000
  C   C386      1.0  0.41210  0.57967  0.25335  1.0000
  C   C387      1.0  0.39080  0.57881  0.27485  1.0000
  C   C388      1.0  0.41174  0.57627  0.29941  1.0000
  C   C389      1.0  0.39059  0.57557  0.32083  1.0000
  C   C390      1.0  0.40099  0.57416  0.33311  1.0000
  H   H423      1.0  0.38727  0.59227  0.19319  1.0000
  H   H424      1.0  0.39105  0.58684  0.14485  1.0000
  H   H425      1.0  0.38321  0.57593  0.19862  1.0000
  H   H426      1.0  0.40894  0.60324  0.18042  1.0000
  H   H427      1.0  0.41121  0.59874  0.12894  1.0000
  H   H428      1.0  0.42044  0.59565  0.16576  1.0000
  H   H429      1.0  0.40590  0.57596  0.13496  1.0000
  H   H430      1.0  0.41510  0.57376  0.17270  1.0000
  H   H431      1.0  0.39955  0.56516  0.19053  1.0000
  H   H432      1.0  0.42067  0.58119  0.22853  1.0000
  H   H433      1.0  0.38238  0.57958  0.26776  1.0000
  H   H434      1.0  0.41984  0.57515  0.30893  1.0000
  H   H435      1.0  0.38229  0.57412  0.34709  1.0000
  H   H436      1.0  0.40073  0.57141  0.36878  1.0000
  H   H437      1.0  0.37122  0.60608  0.91489  1.0000
  S   S111      1.0  0.30306  0.70629  0.09410  1.0000
  H   H438      1.0  0.28478  0.59248  0.78315  1.0000
  C   C391      1.0  0.40155  0.75415  0.40382  1.0000
  C   C392      1.0  0.45598  0.53494  0.76738  1.0000
  H   H439      1.0  0.38960  0.52461  0.83351  1.0000
  H   H440      1.0  0.46205  0.52777  0.07578  1.0000
  C   C393      1.0  0.29093  0.69827  0.07553  1.0000
  N   N26       1.0  0.36044  0.52784  0.37516  1.0000
  C   C394      1.0  0.47425  0.56275  0.97752  1.0000
  H   H441      1.0  0.43685  0.59587  0.52716  1.0000
  H   H442      1.0  0.41889  0.62078  0.86861  1.0000
  H   H443      1.0  0.45458  0.56110  0.66392  1.0000
  N   N27       1.0  0.45252  0.52404  0.14676  1.0000
  N   N28       1.0  0.48380  0.54648  0.85937  1.0000
  C   C395      1.0  0.49007  0.56198  0.33950  1.0000
  C   C396      1.0  0.41579  0.61812  0.90659  1.0000
  H   H444      1.0  0.42384  0.62097  0.91867  1.0000
  H   H445      1.0  0.40952  0.62366  0.91634  1.0000
  H   H446      1.0  0.43472  0.53591  0.70877  1.0000
  H   H447      1.0  0.48421  0.53713  0.80736  1.0000
  H   H448      1.0  0.40887  0.57200  0.59474  1.0000
  C   C397      1.0  0.48554  0.50974  0.06400  1.0000
  C   C398      1.0  0.26669  0.56738  0.86806  1.0000
  C   C399      1.0  0.45559  0.55374  0.69153  1.0000
  C   C400      1.0  0.44906  0.53503  0.60001  1.0000
  H   H449      1.0  0.45699  0.54613  0.67695  1.0000
  C   C401      1.0  0.48886  0.59146  0.21782  1.0000
  C   C402      1.0  0.47228  0.59253  0.18464  1.0000
  H   H450      1.0  0.47746  0.58239  0.95616  1.0000
  H   H451      1.0  0.44449  0.57391  0.11042  1.0000
  C   C403      1.0  0.41926  0.59821  0.91415  1.0000
  H   H452      1.0  0.41357  0.60305  0.99127  1.0000
  H   H453      1.0  0.26689  0.60071  0.87633  1.0000
  H   H454      1.0  0.42678  0.60040  0.92949  1.0000
  H   H455      1.0  0.27188  0.70265  0.00867  1.0000
  H   H456      1.0  0.36188  0.54712  0.96192  1.0000
  H   H457      1.0  0.32596  0.74623  0.89413  1.0000
  C   C404      1.0  0.47988  0.57476  0.97556  1.0000
  H   H458      1.0  0.48104  0.54365  0.34187  1.0000
  H   H459      1.0  0.46564  0.58907  0.16873  1.0000
  N   N29       1.0  0.40993  0.60476  0.92579  1.0000
  C   C405      1.0  0.40583  0.60174  0.97636  1.0000
  H   H460      1.0  0.40695  0.59124  0.86291  1.0000
  C   C406      1.0  0.26134  0.58529  0.83368  1.0000
  H   H461      1.0  0.31299  0.72196  0.00371  1.0000
  H   H462      1.0  0.36437  0.54088  0.91583  1.0000
  H   H463      1.0  0.37025  0.51724  0.03813  1.0000
  H   H464      1.0  0.40032  0.60770  0.98827  1.0000
  H   H465      1.0  0.42359  0.60081  0.87668  1.0000
  C   C407      1.0  0.43771  0.51605  0.50831  1.0000
  C   C408      1.0  0.46636  0.52359  0.24553  1.0000
  H   H466      1.0  0.43495  0.55846  0.77539  1.0000
  H   H467      1.0  0.29795  0.68513  0.98509  1.0000
  C   C409      1.0  0.36338  0.55560  0.15306  1.0000
  C   C410      1.0  0.36725  0.54151  0.94662  1.0000
  H   H468      1.0  0.36430  0.53217  0.97121  1.0000
  H   H469      1.0  0.29325  0.60335  0.94912  1.0000
  C   C411      1.0  0.37658  0.74573  0.15111  1.0000
  C   C412      1.0  0.39177  0.75878  0.39868  1.0000
  C   C413      1.0  0.39946  0.60153  0.90779  1.0000
  C   C414      1.0  0.39939  0.59459  0.87589  1.0000
  H   H470      1.0  0.40025  0.59205  0.99193  1.0000
  C   C415      1.0  0.44202  0.52785  0.58028  1.0000
  C   C416      1.0  0.36479  0.53243  0.41052  1.0000
  H   H471      1.0  0.37706  0.55485  0.99232  1.0000
  C   C417      1.0  0.47332  0.53695  0.89347  1.0000
  H   H472      1.0  0.36456  0.69619  0.10588  1.0000
  C   C418      1.0  0.44594  0.54007  0.77051  1.0000
  N   N30       1.0  0.38047  0.54697  0.93629  1.0000
  H   H473      1.0  0.42005  0.57140  0.39506  1.0000
  C   C419      1.0  0.48636  0.55505  0.02535  1.0000
  H   H474      1.0  0.42569  0.51693  0.05819  1.0000
  C   C420      1.0  0.46101  0.53120  0.26676  1.0000
  H   H475      1.0  0.36931  0.55219  0.37640  1.0000
  S   S112      1.0  0.49116  0.53946  0.14557  1.0000
  H   H476      1.0  0.38944  0.58640  0.83533  1.0000
  C   C421      1.0  0.48869  0.57688  0.99876  1.0000
  H   H477      1.0  0.44127  0.55105  0.49224  1.0000
  N   N31       1.0  0.48077  0.57393  0.18884  1.0000
  H   H478      1.0  0.26038  0.56561  0.90256  1.0000
  C   C422      1.0  0.38906  0.60574  0.92083  1.0000
  C   C423      1.0  0.38938  0.59179  0.85937  1.0000
  C   C424      1.0  0.43649  0.53534  0.81213  1.0000
  C   C425      1.0  0.30746  0.70436  0.95998  1.0000
  C   C426      1.0  0.29915  0.69383  0.96040  1.0000
  H   H479      1.0  0.36230  0.56316  0.16677  1.0000
  H   H480      1.0  0.33002  0.71762  0.95533  1.0000
  H   H481      1.0  0.39063  0.68354  0.08346  1.0000
  S   S113      1.0  0.26073  0.67678  0.02432  1.0000
  H   H482      1.0  0.44710  0.51357  0.87110  1.0000
  C   C427      1.0  0.48866  0.55156  0.32367  1.0000
  C   C428      1.0  0.49533  0.51445  0.98294  1.0000
  H   H483      1.0  0.37874  0.56529  0.91211  1.0000
  H   H484      1.0  0.38850  0.61131  0.94404  1.0000
  C   C429      1.0  0.38726  0.53888  0.91832  1.0000
  S   S114      1.0  0.42704  0.74465  0.20095  1.0000
  C   C430      1.0  0.46350  0.52123  0.20697  1.0000
  H   H485      1.0  0.37356  0.74687  0.01704  1.0000
  C   C431      1.0  0.38401  0.55902  0.90128  1.0000
  S   S115      1.0  0.39829  0.75362  0.16679  1.0000
  H   H486      1.0  0.28505  0.68647  0.93307  1.0000
  C   C432      1.0  0.29186  0.69458  0.93116  1.0000
  C   C433      1.0  0.39668  0.53539  0.93519  1.0000
  C   C434      1.0  0.41076  0.75512  0.36545  1.0000
  Fe  Fe57      1.0  0.40886  0.55008  0.67043  1.0000
  H   H487      1.0  0.28823  0.57845  0.80677  1.0000
  H   H488      1.0  0.49339  0.56527  0.15602  1.0000
  C   C435      1.0  0.36490  0.52406  0.45113  1.0000
  H   H489      1.0  0.37148  0.59360  0.86094  1.0000
  C   C436      1.0  0.38008  0.75534  0.99498  1.0000
  H   H490      1.0  0.37368  0.69013  0.06822  1.0000
  C   C437      1.0  0.48859  0.60258  0.22733  1.0000
  Fe  Fe58      1.0  0.39917  0.52517  0.30148  1.0000
  H   H491      1.0  0.39768  0.69874  0.08277  1.0000
  H   H492      1.0  0.36518  0.51669  0.33123  1.0000
  C   C438      1.0  0.30893  0.71599  0.92926  1.0000
  C   C439      1.0  0.29299  0.70584  0.90077  1.0000
  H   H493      1.0  0.40500  0.55110  0.43502  1.0000
  C   C440      1.0  0.47258  0.57005  0.16192  1.0000
  C   C441      1.0  0.45516  0.52649  0.18830  1.0000
  C   C442      1.0  0.36958  0.70182  0.18119  1.0000
  H   H494      1.0  0.45335  0.56312  0.52804  1.0000
  H   H495      1.0  0.46354  0.53784  0.73705  1.0000
  H   H496      1.0  0.34679  0.51186  0.42241  1.0000
  H   H497      1.0  0.40596  0.51888  0.86409  1.0000
  H   H498      1.0  0.28713  0.70637  0.87861  1.0000
  H   H499      1.0  0.46393  0.55777  0.69998  1.0000
  H   H500      1.0  0.33286  0.72201  0.89439  1.0000
  H   H501      1.0  0.26432  0.59513  0.81357  1.0000
  C   C443      1.0  0.44693  0.52110  0.84372  1.0000
  H   H502      1.0  0.46869  0.54073  0.91966  1.0000
  H   H503      1.0  0.47318  0.56107  0.15604  1.0000
  H   H504      1.0  0.44150  0.58785  0.15831  1.0000
  C   C444      1.0  0.28522  0.70437  0.04619  1.0000
  C   C445      1.0  0.30140  0.71643  0.89955  1.0000
  H   H505      1.0  0.38774  0.72521  0.07895  1.0000
  C   C446      1.0  0.41952  0.51875  0.55348  1.0000
  C   C447      1.0  0.47751  0.55293  0.00247  1.0000
  C   C448      1.0  0.40074  0.52430  0.87941  1.0000
  H   H506      1.0  0.41047  0.52575  0.92912  1.0000
  C   C449      1.0  0.38460  0.73094  0.09901  1.0000
  S   S116      1.0  0.37566  0.54977  0.21634  1.0000
  C   C450      1.0  0.28886  0.59882  0.92830  1.0000
  C   C451      1.0  0.27722  0.58694  0.87398  1.0000
  S   S117      1.0  0.36229  0.72209  0.08808  1.0000
  H   H507      1.0  0.38134  0.72138  0.23562  1.0000
  H   H508      1.0  0.41837  0.75148  0.36940  1.0000
  C   C452      1.0  0.49225  0.55178  0.88279  1.0000
  H   H509      1.0  0.46738  0.56375  0.25264  1.0000
  H   H510      1.0  0.35500  0.54366  0.34416  1.0000
  C   C453      1.0  0.49197  0.56703  0.02361  1.0000
  C   C454      1.0  0.27398  0.59712  0.88631  1.0000
  H   H511      1.0  0.30168  0.72484  0.87554  1.0000
  H   H512      1.0  0.29119  0.68034  0.11298  1.0000
  H   H513      1.0  0.40287  0.54114  0.37436  1.0000
  H   H514      1.0  0.48901  0.54743  0.04354  1.0000
  H   H515      1.0  0.44555  0.53957  0.12514  1.0000
  C   C455      1.0  0.44996  0.53435  0.21051  1.0000
  H   H516      1.0  0.28940  0.57522  0.88281  1.0000
  C   C456      1.0  0.40198  0.54121  0.44379  1.0000
  H   H517      1.0  0.34997  0.52690  0.83910  1.0000
  S   S118      1.0  0.40713  0.54381  0.17465  1.0000
  H   H518      1.0  0.27390  0.56277  0.87240  1.0000
  H   H519      1.0  0.31048  0.74106  0.89640  1.0000
  C   C457      1.0  0.39157  0.52755  0.86213  1.0000
  C   C458      1.0  0.28701  0.68530  0.09018  1.0000
  H   H520      1.0  0.40197  0.73747  0.10962  1.0000
  H   H521      1.0  0.46335  0.53304  0.29651  1.0000
  Fe  Fe59      1.0  0.39007  0.54033  0.22960  1.0000
  Fe  Fe60      1.0  0.39973  0.53604  0.60738  1.0000
  S   S119      1.0  0.40055  0.54201  0.53154  1.0000
  S   S120      1.0  0.41759  0.54086  0.62253  1.0000
  S   S121      1.0  0.40304  0.53348  0.73078  1.0000
  C   C459      1.0  0.36896  0.54515  0.40612  1.0000
  H   H522      1.0  0.27524  0.66869  0.08671  1.0000
  N   N32       1.0  0.27153  0.58072  0.84477  1.0000
  S   S122      1.0  0.32871  0.72495  0.14340  1.0000
  H   H523      1.0  0.42595  0.59328  0.35026  1.0000
  C   C460      1.0  0.37246  0.73124  0.10825  1.0000
  C   C461      1.0  0.40075  0.53557  0.40922  1.0000
  Fe  Fe61      1.0  0.31846  0.72346  0.08984  1.0000
  C   C462      1.0  0.42609  0.59677  0.45484  1.0000
  H   H524      1.0  0.43040  0.56952  0.57439  1.0000
  Fe  Fe62      1.0  0.34570  0.72888  0.08659  1.0000
  H   H525      1.0  0.43839  0.50949  0.53893  1.0000
  S   S123      1.0  0.33569  0.72609  0.03555  1.0000
  N   N33       1.0  0.31766  0.72703  0.93014  1.0000
  H   H526      1.0  0.26718  0.59982  0.04693  1.0000
  H   H527      1.0  0.38246  0.55816  0.86843  1.0000
  C   C463      1.0  0.38275  0.54920  0.97875  1.0000
  H   H528      1.0  0.43911  0.57536  0.51577  1.0000
  S   S124      1.0  0.34887  0.74920  0.06584  1.0000
  C   C464      1.0  0.44291  0.52938  0.13374  1.0000
  C   C465      1.0  0.39270  0.73796  0.11607  1.0000
  H   H529      1.0  0.44104  0.52724  0.10279  1.0000
  H   H530      1.0  0.31981  0.73796  0.97626  1.0000
  C   C466      1.0  0.42971  0.57164  0.53875  1.0000
  H   H531      1.0  0.42574  0.56268  0.53388  1.0000
  H   H532      1.0  0.42824  0.60427  0.46905  1.0000
  H   H533      1.0  0.38457  0.75801  0.42849  1.0000
  Fe  Fe63      1.0  0.40572  0.52381  0.20225  1.0000
  H   H534      1.0  0.47338  0.54366  0.00317  1.0000
  C   C467      1.0  0.47686  0.56455  0.23382  1.0000
  C   C468      1.0  0.27233  0.68472  0.04529  1.0000
  C   C469      1.0  0.45321  0.54770  0.58079  1.0000
  H   H535      1.0  0.27673  0.57814  0.77806  1.0000
  H   H536      1.0  0.41780  0.56558  0.47638  1.0000
  C   C470      1.0  0.42144  0.57852  0.41188  1.0000
  H   H537      1.0  0.42733  0.58782  0.58327  1.0000
  H   H538      1.0  0.39231  0.55435  0.97287  1.0000
  H   H539      1.0  0.42166  0.59760  0.54597  1.0000
  C   C471      1.0  0.42484  0.59081  0.38664  1.0000
  H   H540      1.0  0.43001  0.60947  0.38819  1.0000
  C   C472      1.0  0.28651  0.58298  0.89029  1.0000
  C   C473      1.0  0.42303  0.58427  0.48127  1.0000
  C   C474      1.0  0.39923  0.53420  0.48953  1.0000
  C   C475      1.0  0.40328  0.52819  0.91589  1.0000
  N   N34       1.0  0.42249  0.58056  0.53023  1.0000
  C   C476      1.0  0.42727  0.59098  0.54701  1.0000
  H   H541      1.0  0.40394  0.58097  0.55149  1.0000
  H   H542      1.0  0.35052  0.75029  0.20407  1.0000
  H   H543      1.0  0.48254  0.56687  0.25608  1.0000
  C   C477      1.0  0.28073  0.58254  0.80127  1.0000
  H   H544      1.0  0.40194  0.74971  0.43762  1.0000
  S   S125      1.0  0.38788  0.52011  0.25511  1.0000
  H   H545      1.0  0.43803  0.53682  0.45055  1.0000
  Fe  Fe64      1.0  0.33162  0.74560  0.12055  1.0000
  S   S126      1.0  0.39277  0.51816  0.66420  1.0000
  C   C478      1.0  0.42707  0.59992  0.40813  1.0000
  C   C479      1.0  0.40974  0.57468  0.55755  1.0000
  C   C480      1.0  0.42039  0.57526  0.45854  1.0000
  H   H546      1.0  0.40587  0.56617  0.54931  1.0000
  H   H547      1.0  0.36915  0.75868  0.94943  1.0000
  H   H548      1.0  0.44867  0.54248  0.26599  1.0000
  H   H549      1.0  0.39378  0.56367  0.89391  1.0000
  C   C481      1.0  0.45283  0.53657  0.24931  1.0000
  C   C482      1.0  0.44317  0.54613  0.52218  1.0000
  H   H550      1.0  0.29907  0.58540  0.92991  1.0000
  H   H551      1.0  0.35776  0.53399  0.30848  1.0000
  C   C483      1.0  0.36851  0.73879  0.13383  1.0000
  H   H552      1.0  0.30439  0.73122  0.97915  1.0000
  H   H553      1.0  0.46704  0.53939  0.10195  1.0000
  H   H554      1.0  0.39993  0.70446  0.14619  1.0000
  C   C484      1.0  0.39133  0.70538  0.16367  1.0000
  H   H555      1.0  0.44361  0.53888  0.19881  1.0000
  S   S127      1.0  0.31990  0.74396  0.07168  1.0000
  H   H556      1.0  0.36084  0.69793  0.17736  1.0000
  C   C485      1.0  0.45017  0.55323  0.54234  1.0000
  H   H557      1.0  0.45825  0.58208  0.03177  1.0000
  C   C486      1.0  0.50001  0.57217  0.31680  1.0000
  C   C487      1.0  0.37000  0.70957  0.20921  1.0000
  C   C488      1.0  0.39163  0.71300  0.19224  1.0000
  H   H558      1.0  0.47499  0.57681  0.12764  1.0000
  H   H559      1.0  0.40021  0.71760  0.19581  1.0000
  C   C489      1.0  0.39415  0.51575  0.46559  1.0000
  S   S128      1.0  0.42829  0.74940  0.09040  1.0000
  C   C490      1.0  0.34992  0.75874  0.21215  1.0000
  N   N35       1.0  0.43151  0.52527  0.52019  1.0000
  H   H560      1.0  0.36178  0.71152  0.22572  1.0000
  H   H561      1.0  0.42359  0.52608  0.46390  1.0000
  H   H562      1.0  0.25690  0.58013  0.81330  1.0000
  S   S129      1.0  0.36887  0.52526  0.76596  1.0000
  S   S130      1.0  0.39483  0.51527  0.37750  1.0000
  H   H563      1.0  0.35913  0.73898  0.14158  1.0000
  H   H564      1.0  0.37765  0.52554  0.34428  1.0000
  H   H565      1.0  0.37608  0.54372  0.50624  1.0000
  H   H566      1.0  0.37617  0.55883  0.43649  1.0000
  H   H567      1.0  0.43419  0.52564  0.16132  1.0000
  C   C491      1.0  0.38100  0.71512  0.21481  1.0000
  C   C492      1.0  0.36801  0.52016  0.35850  1.0000
  Fe  Fe65      1.0  0.41030  0.52377  0.68177  1.0000
  H   H568      1.0  0.37921  0.70543  0.07131  1.0000
  C   C493      1.0  0.39680  0.52279  0.41987  1.0000
  C   C494      1.0  0.31904  0.73823  0.89310  1.0000
  C   C495      1.0  0.27974  0.60291  0.91319  1.0000
  H   H569      1.0  0.37829  0.53744  0.86504  1.0000
  C   C496      1.0  0.29218  0.58882  0.91719  1.0000
  H   H570      1.0  0.47390  0.56016  0.85554  1.0000
  H   H571      1.0  0.42961  0.52229  0.87906  1.0000
  H   H572      1.0  0.38046  0.54046  0.00640  1.0000
  C   C497      1.0  0.47191  0.60353  0.19522  1.0000
  C   C498      1.0  0.37281  0.54064  0.47998  1.0000
  C   C499      1.0  0.36881  0.52814  0.48527  1.0000
  C   C500      1.0  0.43889  0.53315  0.54057  1.0000
  C   C501      1.0  0.39535  0.52141  0.50026  1.0000
  S   S131      1.0  0.25723  0.61841  0.99390  1.0000
  C   C502      1.0  0.45638  0.52556  0.80353  1.0000
  C   C503      1.0  0.49009  0.54070  0.82725  1.0000
  H   H573      1.0  0.32202  0.73685  0.85886  1.0000
  Fe  Fe66      1.0  0.41781  0.75322  0.15170  1.0000
  H   H574      1.0  0.41443  0.52536  0.56208  1.0000
  C   C504      1.0  0.38577  0.51250  0.05497  1.0000
  H   H575      1.0  0.33676  0.73320  0.92357  1.0000
  H   H576      1.0  0.26165  0.56244  0.84863  1.0000
  S   S132      1.0  0.42407  0.51312  0.69299  1.0000
  H   H577      1.0  0.27256  0.58031  0.04726  1.0000
  C   C505      1.0  0.34772  0.52025  0.39495  1.0000
  H   H578      1.0  0.46651  0.53308  0.87747  1.0000
  C   C506      1.0  0.48005  0.60855  0.21647  1.0000
  H   H579      1.0  0.46505  0.60804  0.18824  1.0000
  H   H580      1.0  0.47294  0.51964  0.25862  1.0000
  C   C507      1.0  0.32982  0.72483  0.92562  1.0000
  H   H581      1.0  0.47108  0.52519  0.11362  1.0000
  C   C508      1.0  0.46364  0.52934  0.10789  1.0000
  H   H582      1.0  0.43278  0.51042  0.49041  1.0000
  H   H583      1.0  0.47749  0.55535  0.23043  1.0000
  H   H584      1.0  0.46391  0.52146  0.80001  1.0000
  S   S133      1.0  0.41680  0.52688  0.25050  1.0000
  H   H585      1.0  0.42019  0.51307  0.58606  1.0000
  H   H586      1.0  0.41384  0.51250  0.53968  1.0000
  Fe  Fe67      1.0  0.33742  0.74629  0.01955  1.0000
  H   H587      1.0  0.46812  0.51546  0.19122  1.0000
  S   S134      1.0  0.49452  0.53833  0.26476  1.0000
  H   H588      1.0  0.42460  0.53922  0.48419  1.0000
  H   H589      1.0  0.34182  0.52554  0.40986  1.0000
  C   C509      1.0  0.49592  0.51488  0.02676  1.0000
  H   H590      1.0  0.37339  0.75132  0.17185  1.0000
  H   H591      1.0  0.38615  0.51805  0.07837  1.0000
  C   C510      1.0  0.37686  0.51208  0.03226  1.0000
  C   C511      1.0  0.37292  0.54912  0.44047  1.0000
  C   C512      1.0  0.49317  0.57405  0.16431  1.0000
  H   H592      1.0  0.26246  0.70245  0.19490  1.0000
  H   H593      1.0  0.49545  0.53440  0.91361  1.0000
  C   C513      1.0  0.36089  0.53774  0.33478  1.0000
  H   H594      1.0  0.36902  0.52157  0.51566  1.0000
  C   C514      1.0  0.44856  0.51061  0.15363  1.0000
  H   H595      1.0  0.37032  0.54357  0.31722  1.0000
  H   H596      1.0  0.48629  0.56293  0.80526  1.0000
  H   H597      1.0  0.34398  0.51706  0.36879  1.0000
  C   C515      1.0  0.50353  0.56909  0.90245  1.0000
  H   H598      1.0  0.36213  0.51426  0.45659  1.0000
  H   H599      1.0  0.26233  0.69958  0.11946  1.0000
  C   C516      1.0  0.49692  0.55144  0.28406  1.0000
  C   C517      1.0  0.49751  0.54411  0.90983  1.0000
  H   H600      1.0  0.49191  0.57106  0.86044  1.0000
  H   H601      1.0  0.49969  0.57524  0.18464  1.0000
  C   C518      1.0  0.49555  0.56450  0.87957  1.0000
  H   H602      1.0  0.49843  0.54739  0.80266  1.0000
  H   H603      1.0  0.49279  0.53272  0.84523  1.0000
  H   H604      1.0  0.36237  0.75779  0.25322  1.0000
  H   H605      1.0  0.39247  0.75400  0.03441  1.0000
  H   H606      1.0  0.49526  0.58693  0.22922  1.0000
  H   H607      1.0  0.49467  0.60628  0.24524  1.0000
  H   H608      1.0  0.49309  0.58618  0.99699  1.0000
  C   C519      1.0  0.25701  0.69399  0.19271  1.0000
  S   S135      1.0  0.34414  0.75593  0.94366  1.0000
  H   H609      1.0  0.50345  0.51798  0.95449  1.0000
  H   H610      1.0  0.25556  0.59312  0.99707  1.0000
  H   H611      1.0  0.49677  0.58150  0.13142  1.0000
  Fe  Fe68      1.0  0.49934  0.52532  0.12329  1.0000
  H   H612      1.0  0.41298  0.75580  0.01216  1.0000
  S   S136      1.0  0.50206  0.58516  0.33704  1.0000
  Fe  Fe69      1.0  0.50307  0.53929  0.19181  1.0000
  S   S137      1.0  0.50321  0.56987  0.05166  1.0000
  H   H613      1.0  0.42058  0.93231  0.91600  1.0000
  C   C520      1.0  0.40141  0.85774  0.30085  1.0000
  C   C521      1.0  0.39421  0.80900  0.94061  1.0000
  C   C522      1.0  0.50052  0.91611  0.87935  1.0000
  H   H614      1.0  0.48168  0.82676  0.21226  1.0000
  H   H615      1.0  0.46189  0.78637  0.13281  1.0000
  C   C523      1.0  0.49866  0.95346  0.07368  1.0000
  H   H616      1.0  0.43755  0.77112  0.40909  1.0000
  H   H617      1.0  0.46609  0.80900  0.02439  1.0000
  H   H618      1.0  0.36071  0.84174  0.46889  1.0000
  S   S138      1.0  0.44423  0.78378  0.01782  1.0000
  Fe  Fe70      1.0  0.42076  0.89673  0.04663  1.0000
  S   S139      1.0  0.42282  0.91194  0.98355  1.0000
  S   S140      1.0  0.40284  0.89057  0.10150  1.0000
  Fe  Fe71      1.0  0.44576  0.89486  0.01182  1.0000
  S   S141      1.0  0.44954  0.90942  0.94608  1.0000
  S   S142      1.0  0.46085  0.88643  0.02180  1.0000
  Fe  Fe72      1.0  0.44134  0.92032  0.98977  1.0000
  S   S143      1.0  0.45253  0.94079  0.96933  1.0000
  Fe  Fe73      1.0  0.43090  0.89993  0.94500  1.0000
  S   S144      1.0  0.42665  0.89833  0.87775  1.0000
  S   S145      1.0  0.43847  0.90597  0.05566  1.0000
  S   S146      1.0  0.42787  0.88448  0.00781  1.0000
  Fe  Fe74      1.0  0.39667  0.81062  0.30708  1.0000
  S   S147      1.0  0.38325  0.79454  0.36077  1.0000
  S   S148      1.0  0.41618  0.81065  0.28820  1.0000
  Fe  Fe75      1.0  0.37800  0.82397  0.29183  1.0000
  S   S149      1.0  0.36309  0.80873  0.34593  1.0000
  S   S150      1.0  0.37313  0.84082  0.25698  1.0000
  Fe  Fe76      1.0  0.37641  0.80890  0.38884  1.0000
  S   S151      1.0  0.37239  0.80822  0.46588  1.0000
  Fe  Fe77      1.0  0.37148  0.79593  0.31218  1.0000
  S   S152      1.0  0.36448  0.77867  0.28951  1.0000
  S   S153      1.0  0.39043  0.82487  0.33620  1.0000
  S   S154      1.0  0.38573  0.81131  0.25709  1.0000
  Fe  Fe78      1.0  0.38063  0.82130  0.78830  1.0000
  S   S155      1.0  0.38339  0.83826  0.73038  1.0000
  S   S156      1.0  0.36461  0.81343  0.85180  1.0000
  Fe  Fe79      1.0  0.40690  0.82172  0.75976  1.0000
  S   S157      1.0  0.41154  0.83834  0.69994  1.0000
  S   S158      1.0  0.42086  0.81355  0.78368  1.0000
  Fe  Fe80      1.0  0.40032  0.84583  0.74936  1.0000
  S   S159      1.0  0.40661  0.86516  0.75735  1.0000
  Fe  Fe81      1.0  0.39438  0.82911  0.68555  1.0000
  S   S160      1.0  0.39674  0.82940  0.60887  1.0000
  S   S161      1.0  0.39663  0.82956  0.80895  1.0000
  S   S162      1.0  0.39066  0.81181  0.74358  1.0000
  Fe  Fe82      1.0  0.47759  0.81894  0.36178  1.0000
  S   S163      1.0  0.47554  0.83710  0.32481  1.0000
  S   S164      1.0  0.47674  0.80261  0.33111  1.0000
  Fe  Fe83      1.0  0.47862  0.82720  0.45011  1.0000
  S   S165      1.0  0.47602  0.84537  0.41857  1.0000
  S   S166      1.0  0.47755  0.82149  0.52668  1.0000
  Fe  Fe84      1.0  0.46246  0.83521  0.39159  1.0000
  S   S167      1.0  0.44395  0.83812  0.40136  1.0000
  Fe  Fe85      1.0  0.48954  0.84566  0.35473  1.0000
  H   H619      1.0  0.48540  0.89931  0.21987  1.0000
  S   S168      1.0  0.46379  0.81679  0.42740  1.0000
  S   S169      1.0  0.49293  0.82770  0.38747  1.0000
  Fe  Fe86      1.0  0.49068  0.83369  0.82796  1.0000
  H   H620      1.0  0.44645  0.79859  0.08675  1.0000
  S   S170      1.0  0.49258  0.81542  0.86455  1.0000
  Fe  Fe87      1.0  0.47382  0.84953  0.81945  1.0000
  S   S171      1.0  0.48779  0.86483  0.76396  1.0000
  S   S172      1.0  0.45537  0.85211  0.84250  1.0000
  Fe  Fe88      1.0  0.49231  0.84985  0.73399  1.0000
  H   H621      1.0  0.48512  0.80688  0.20673  1.0000
  H   H622      1.0  0.41952  0.85769  0.30316  1.0000
  C   C524      1.0  0.37806  0.79413  0.02641  1.0000
  S   S173      1.0  0.47737  0.83485  0.78696  1.0000
  S   S174      1.0  0.48567  0.84698  0.86564  1.0000
  C   C525      1.0  0.48205  0.83046  0.56249  1.0000
  C   C526      1.0  0.48884  0.84275  0.54513  1.0000
  S   S175      1.0  0.49541  0.85231  0.65687  1.0000
  C   C527      1.0  0.48992  0.84361  0.62182  1.0000
  C   C528      1.0  0.48287  0.83140  0.63936  1.0000
  C   C529      1.0  0.47902  0.82490  0.60990  1.0000
  C   C530      1.0  0.37760  0.76195  0.95682  1.0000
  H   H623      1.0  0.43301  0.77318  0.46394  1.0000
  H   H624      1.0  0.48056  0.82686  0.67546  1.0000
  H   H625      1.0  0.47391  0.81537  0.62380  1.0000
  C   C531      1.0  0.42979  0.82396  0.80354  1.0000
  C   C532      1.0  0.42841  0.83583  0.79874  1.0000
  C   C533      1.0  0.43586  0.84425  0.81311  1.0000
  C   C534      1.0  0.44499  0.84098  0.83094  1.0000
  C   C535      1.0  0.44626  0.82905  0.83655  1.0000
  C   C536      1.0  0.43863  0.82053  0.82304  1.0000
  H   H626      1.0  0.42185  0.83872  0.78278  1.0000
  H   H627      1.0  0.43486  0.85347  0.80875  1.0000
  H   H628      1.0  0.45313  0.82640  0.85132  1.0000
  H   H629      1.0  0.43974  0.81137  0.82694  1.0000
  C   C537      1.0  0.42381  0.81837  0.31960  1.0000
  C   C538      1.0  0.43644  0.82200  0.30616  1.0000
  C   C539      1.0  0.44264  0.82808  0.33127  1.0000
  C   C540      1.0  0.43625  0.83061  0.36965  1.0000
  C   C541      1.0  0.42362  0.82682  0.38351  1.0000
  C   C542      1.0  0.41742  0.82060  0.35873  1.0000
  H   H630      1.0  0.44142  0.82018  0.27616  1.0000
  H   H631      1.0  0.45236  0.83095  0.32035  1.0000
  H   H632      1.0  0.41863  0.82849  0.41381  1.0000
  H   H633      1.0  0.40771  0.81723  0.37084  1.0000
  C   C543      1.0  0.37948  0.81409  0.50498  1.0000
  C   C544      1.0  0.39110  0.82220  0.49100  1.0000
  C   C545      1.0  0.39608  0.82685  0.52288  1.0000
  C   C546      1.0  0.38975  0.82330  0.56982  1.0000
  C   C547      1.0  0.37820  0.81504  0.58384  1.0000
  C   C548      1.0  0.37313  0.81058  0.55179  1.0000
  H   H634      1.0  0.39624  0.82496  0.45545  1.0000
  H   H635      1.0  0.40491  0.83335  0.51086  1.0000
  H   H636      1.0  0.37309  0.81215  0.61945  1.0000
  H   H637      1.0  0.36415  0.80432  0.56351  1.0000
  C   C549      1.0  0.45724  0.95223  0.99684  1.0000
  C   C550      1.0  0.45026  0.95265  0.03864  1.0000
  C   C551      1.0  0.45392  0.96239  0.05708  1.0000
  C   C552      1.0  0.39703  0.77686  0.93699  1.0000
  C   C553      1.0  0.38378  0.80048  0.94249  1.0000
  H   H638      1.0  0.44184  0.94565  0.05630  1.0000
  H   H639      1.0  0.44822  0.96267  0.08883  1.0000
  C   C554      1.0  0.42123  0.88801  0.84732  1.0000
  C   C555      1.0  0.41901  0.89331  0.80625  1.0000
  C   C556      1.0  0.41457  0.88609  0.78020  1.0000
  C   C557      1.0  0.41227  0.87329  0.79394  1.0000
  C   C558      1.0  0.41459  0.86778  0.83495  1.0000
  C   C559      1.0  0.41901  0.87512  0.86165  1.0000
  H   H640      1.0  0.42063  0.90316  0.79441  1.0000
  H   H641      1.0  0.41290  0.89053  0.74881  1.0000
  H   H642      1.0  0.41300  0.85793  0.84610  1.0000
  H   H643      1.0  0.42070  0.87082  0.89315  1.0000
  C   C560      1.0  0.39550  0.87631  0.14385  1.0000
  C   C561      1.0  0.40086  0.86660  0.15342  1.0000
  C   C562      1.0  0.39428  0.85555  0.18834  1.0000
  C   C563      1.0  0.38231  0.85422  0.21321  1.0000
  C   C564      1.0  0.37712  0.86394  0.20327  1.0000
  C   C565      1.0  0.38364  0.87486  0.16923  1.0000
  H   H644      1.0  0.41004  0.86763  0.13413  1.0000
  H   H645      1.0  0.39839  0.84809  0.19573  1.0000
  H   H646      1.0  0.36792  0.86304  0.22204  1.0000
  H   H647      1.0  0.37942  0.88225  0.16230  1.0000
  H   H648      1.0  0.46532  0.84643  0.61105  1.0000
  H   H649      1.0  0.44152  0.92238  0.86821  1.0000
  S   S176      1.0  0.50398  0.99967  0.02139  1.0000
  H   H650      1.0  0.39128  0.80438  0.05311  1.0000
  C   C566      1.0  0.49506  0.90018  0.84398  1.0000
  H   H651      1.0  0.40818  0.77562  0.19779  1.0000
  H   H652      1.0  0.48656  0.99034  0.30257  1.0000
  C   C567      1.0  0.46483  0.97172  0.03511  1.0000
  H   H653      1.0  0.50014  0.90842  0.02869  1.0000
  C   C568      1.0  0.48552  0.91044  0.07908  1.0000
  C   C569      1.0  0.49048  0.90604  0.04327  1.0000
  C   C570      1.0  0.48290  0.89854  0.02604  1.0000
  C   C571      1.0  0.47033  0.89576  0.04353  1.0000
  C   C572      1.0  0.46538  0.90039  0.07858  1.0000
  C   C573      1.0  0.47296  0.90776  0.09619  1.0000
  H   H654      1.0  0.49935  0.80193  0.68050  1.0000
  H   H655      1.0  0.48679  0.89502  0.99880  1.0000
  H   H656      1.0  0.45571  0.89791  0.09344  1.0000
  H   H657      1.0  0.46906  0.91116  0.12379  1.0000
  C   C574      1.0  0.46239  0.77970  0.26344  1.0000
  C   C575      1.0  0.46948  0.78542  0.28763  1.0000
  C   C576      1.0  0.46759  0.79599  0.29958  1.0000
  C   C577      1.0  0.45853  0.80085  0.28638  1.0000
  C   C578      1.0  0.45140  0.79509  0.26240  1.0000
  H   H658      1.0  0.47647  0.78157  0.29736  1.0000
  H   H659      1.0  0.45702  0.80904  0.29469  1.0000
  H   H660      1.0  0.44437  0.79893  0.25287  1.0000
  C   C579      1.0  0.45795  0.79231  0.97646  1.0000
  C   C580      1.0  0.45807  0.80328  0.94603  1.0000
  C   C581      1.0  0.46873  0.81045  0.91228  1.0000
  C   C582      1.0  0.47932  0.80662  0.90817  1.0000
  C   C583      1.0  0.47926  0.79568  0.93879  1.0000
  C   C584      1.0  0.46859  0.78856  0.97317  1.0000
  H   H661      1.0  0.44989  0.80628  0.94851  1.0000
  H   H662      1.0  0.46869  0.81889  0.88904  1.0000
  H   H663      1.0  0.48745  0.79268  0.93574  1.0000
  H   H664      1.0  0.46857  0.78009  0.99643  1.0000
  C   C585      1.0  0.35983  0.79743  0.87857  1.0000
  C   C586      1.0  0.36313  0.78919  0.85528  1.0000
  C   C587      1.0  0.35846  0.77648  0.87613  1.0000
  C   C588      1.0  0.35070  0.77191  0.92079  1.0000
  C   C589      1.0  0.34785  0.78014  0.94497  1.0000
  C   C590      1.0  0.35229  0.79288  0.92367  1.0000
  H   H665      1.0  0.36887  0.79259  0.82050  1.0000
  H   H666      1.0  0.36066  0.77017  0.85717  1.0000
  H   H667      1.0  0.34177  0.77671  0.97922  1.0000
  H   H668      1.0  0.34966  0.79920  0.94184  1.0000
  C   C591      1.0  0.34204  0.76506  0.19623  1.0000
  C   C592      1.0  0.34139  0.77598  0.20795  1.0000
  C   C593      1.0  0.34837  0.78046  0.23512  1.0000
  C   C594      1.0  0.35599  0.77396  0.25216  1.0000
  H   H669      1.0  0.50277  0.81631  0.53899  1.0000
  C   C595      1.0  0.42772  0.78610  0.36465  1.0000
  C   C596      1.0  0.39490  0.84909  0.39596  1.0000
  H   H670      1.0  0.34755  0.78876  0.24406  1.0000
  Fe  Fe89      1.0  0.44056  0.76335  0.18125  1.0000
  N   N36       1.0  0.41145  0.77422  0.98622  1.0000
  N   N37       1.0  0.37510  0.84398  0.90277  1.0000
  C   C597      1.0  0.36182  0.83881  0.92260  1.0000
  C   C598      1.0  0.37756  0.84797  0.85238  1.0000
  C   C599      1.0  0.38109  0.83410  0.91413  1.0000
  C   C600      1.0  0.37952  0.85399  0.92186  1.0000
  C   C601      1.0  0.38597  0.86612  0.89416  1.0000
  C   C602      1.0  0.37771  0.85165  0.96966  1.0000
  C   C603      1.0  0.39040  0.87519  0.91334  1.0000
  C   C604      1.0  0.38222  0.86080  0.98842  1.0000
  C   C605      1.0  0.38861  0.87253  0.96027  1.0000
  H   H671      1.0  0.35702  0.84608  0.91616  1.0000
  H   H672      1.0  0.35820  0.83154  0.90752  1.0000
  H   H673      1.0  0.35918  0.83446  0.95999  1.0000
  H   H674      1.0  0.37402  0.84028  0.83909  1.0000
  H   H675      1.0  0.38744  0.85135  0.83498  1.0000
  H   H676      1.0  0.37321  0.85532  0.84115  1.0000
  H   H677      1.0  0.37893  0.82986  0.95145  1.0000
  H   H678      1.0  0.38792  0.86882  0.85744  1.0000
  H   H679      1.0  0.37291  0.84267  0.99293  1.0000
  H   H680      1.0  0.39550  0.88432  0.89152  1.0000
  H   H681      1.0  0.38084  0.85880  0.02500  1.0000
  H   H682      1.0  0.39225  0.87956  0.97484  1.0000
  H   H683      1.0  0.47208  0.86579  0.88639  1.0000
  C   C606      1.0  0.48024  0.81130  0.18534  1.0000
  H   H684      1.0  0.42606  0.78606  0.49976  1.0000
  H   H685      1.0  0.36652  0.83926  0.35142  1.0000
  N   N38       1.0  0.42924  0.78602  0.41040  1.0000
  C   C607      1.0  0.41020  0.76067  0.32173  1.0000
  C   C608      1.0  0.43039  0.77369  0.43188  1.0000
  H   H686      1.0  0.49980  0.97013  0.12438  1.0000
  C   C609      1.0  0.41914  0.78880  0.44028  1.0000
  S   S177      1.0  0.50213  0.86484  0.32342  1.0000
  C   C610      1.0  0.38566  0.85066  0.37447  1.0000
  H   H687      1.0  0.38408  0.77772  0.89799  1.0000
  C   C611      1.0  0.35687  0.78644  0.07091  1.0000
  H   H688      1.0  0.41079  0.76239  0.23118  1.0000
  H   H689      1.0  0.40416  0.76729  0.05993  1.0000
  H   H690      1.0  0.44305  0.98559  0.83881  1.0000
  H   H691      1.0  0.49013  0.00458  0.84963  1.0000
  Fe  Fe90      1.0  0.50013  0.86139  0.80823  1.0000
  H   H692      1.0  0.40381  0.78276  0.03539  1.0000
  Fe  Fe91      1.0  0.44156  0.76752  0.07815  1.0000
  H   H693      1.0  0.36494  0.78406  0.14308  1.0000
  H   H694      1.0  0.42808  0.79542  0.34430  1.0000
  H   H695      1.0  0.47338  0.93795  0.02593  1.0000
  N   N39       1.0  0.39891  0.77061  0.26959  1.0000
  C   C612      1.0  0.35669  0.76307  0.24016  1.0000
  H   H696      1.0  0.41942  0.76256  0.95168  1.0000
  C   C613      1.0  0.37180  0.78995  0.11071  1.0000
  H   H697      1.0  0.40486  0.81689  0.97923  1.0000
  N   N40       1.0  0.43698  0.82443  0.54271  1.0000
  C   C614      1.0  0.44791  0.83503  0.52278  1.0000
  C   C615      1.0  0.43827  0.81515  0.51790  1.0000
  C   C616      1.0  0.42646  0.82890  0.53472  1.0000
  C   C617      1.0  0.43573  0.81885  0.59146  1.0000
  C   C618      1.0  0.42507  0.81710  0.62689  1.0000
  C   C619      1.0  0.44522  0.81446  0.60452  1.0000
  C   C620      1.0  0.42405  0.81124  0.67226  1.0000
  C   C621      1.0  0.44413  0.80868  0.65002  1.0000
  C   C622      1.0  0.43354  0.80703  0.68381  1.0000
  H   H698      1.0  0.45646  0.83230  0.52226  1.0000
  H   H699      1.0  0.44880  0.83977  0.48659  1.0000
  H   H700      1.0  0.44759  0.84193  0.54206  1.0000
  H   H701      1.0  0.44667  0.81222  0.51839  1.0000
  H   H702      1.0  0.43869  0.81876  0.48139  1.0000
  H   H703      1.0  0.43047  0.80684  0.53323  1.0000
  H   H704      1.0  0.41799  0.82129  0.54648  1.0000
  H   H705      1.0  0.42492  0.83597  0.55236  1.0000
  H   H706      1.0  0.42778  0.83321  0.49772  1.0000
  H   H707      1.0  0.41732  0.82006  0.62056  1.0000
  H   H708      1.0  0.45351  0.81529  0.57945  1.0000
  H   H709      1.0  0.41581  0.80989  0.69877  1.0000
  H   H710      1.0  0.45148  0.80533  0.65900  1.0000
  H   H711      1.0  0.43265  0.80246  0.71911  1.0000
  C   C623      1.0  0.47560  0.80552  0.15602  1.0000
  H   H712      1.0  0.36348  0.76701  0.10836  1.0000
  N   N41       1.0  0.48277  0.88116  0.21121  1.0000
  C   C624      1.0  0.48415  0.87608  0.25712  1.0000
  C   C625      1.0  0.49490  0.88449  0.17774  1.0000
  C   C626      1.0  0.47886  0.89249  0.21112  1.0000
  C   C627      1.0  0.47385  0.87257  0.19863  1.0000
  C   C628      1.0  0.46613  0.86132  0.23000  1.0000
  C   C629      1.0  0.47222  0.87565  0.15439  1.0000
  C   C630      1.0  0.45735  0.85379  0.21752  1.0000
  C   C631      1.0  0.46342  0.86805  0.14231  1.0000
  C   C632      1.0  0.45597  0.85716  0.17387  1.0000
  H   H713      1.0  0.48701  0.86745  0.25962  1.0000
  C   C633      1.0  0.41890  0.78834  0.48610  1.0000
  H   H714      1.0  0.47566  0.87425  0.28476  1.0000
  H   H715      1.0  0.49799  0.87618  0.17508  1.0000
  H   H716      1.0  0.50186  0.89053  0.18757  1.0000
  H   H717      1.0  0.49513  0.88977  0.14308  1.0000
  H   H718      1.0  0.46980  0.89047  0.23583  1.0000
  H   H719      1.0  0.41792  0.77753  0.23346  1.0000
  H   H720      1.0  0.47820  0.89718  0.17710  1.0000
  H   H721      1.0  0.46657  0.85819  0.26459  1.0000
  H   H722      1.0  0.47756  0.88413  0.12897  1.0000
  H   H723      1.0  0.45142  0.84538  0.24213  1.0000
  H   H724      1.0  0.46224  0.87076  0.10847  1.0000
  H   H725      1.0  0.44900  0.85141  0.16464  1.0000
  H   H726      1.0  0.43322  0.87459  0.72841  1.0000
  H   H727      1.0  0.36918  0.82886  0.39752  1.0000
  H   H728      1.0  0.45207  0.93737  0.84699  1.0000
  H   H729      1.0  0.35336  0.78144  0.04829  1.0000
  C   C634      1.0  0.46373  0.86624  0.70201  1.0000
  H   H730      1.0  0.47046  0.99837  0.96556  1.0000
  H   H731      1.0  0.46780  0.94580  0.09211  1.0000
  H   H732      1.0  0.47133  0.90031  0.92939  1.0000
  C   C635      1.0  0.40696  0.85164  0.37033  1.0000
  C   C636      1.0  0.48303  0.89621  0.87309  1.0000
  H   H733      1.0  0.37320  0.83531  0.46255  1.0000
  H   H734      1.0  0.44856  0.79359  0.38106  1.0000
  C   C637      1.0  0.39982  0.77034  0.97586  1.0000
  C   C638      1.0  0.43717  0.95477  0.88432  1.0000
  H   H735      1.0  0.35600  0.83443  0.40691  1.0000
  C   C639      1.0  0.48878  0.91253  0.90822  1.0000
  C   C640      1.0  0.37593  0.79299  0.98460  1.0000
  C   C641      1.0  0.37035  0.77343  0.07680  1.0000
  H   H736      1.0  0.44620  0.79786  0.14482  1.0000
  H   H737      1.0  0.44809  0.81224  0.10408  1.0000
  S   S178      1.0  0.43027  0.77169  0.13640  1.0000
  H   H738      1.0  0.33533  0.78099  0.19628  1.0000
  C   C642      1.0  0.45318  0.78440  0.25105  1.0000
  H   H739      1.0  0.35036  0.78184  0.10532  1.0000
  H   H740      1.0  0.39112  0.83770  0.90033  1.0000
  C   C643      1.0  0.38805  0.76288  0.26348  1.0000
  C   C644      1.0  0.38605  0.77268  0.92789  1.0000
  H   H741      1.0  0.45389  0.83732  0.73867  1.0000
  H   H742      1.0  0.47946  0.81497  0.03940  1.0000
  H   H743      1.0  0.37139  0.79957  0.10805  1.0000
  H   H744      1.0  0.37819  0.82650  0.89950  1.0000
  H   H745      1.0  0.38065  0.78893  0.11561  1.0000
  H   H746      1.0  0.38902  0.78320  0.28920  1.0000
  H   H747      1.0  0.36880  0.77003  0.04777  1.0000
  C   C645      1.0  0.39096  0.75949  0.00458  1.0000
  H   H748      1.0  0.47036  0.83689  0.16450  1.0000
  H   H749      1.0  0.49533  0.79912  0.61000  1.0000
  H   H750      1.0  0.49429  0.81177  0.73629  1.0000
  N   N42       1.0  0.36948  0.78621  0.07057  1.0000
  C   C646      1.0  0.42139  0.93103  0.88156  1.0000
  H   H751      1.0  0.46907  0.84412  0.70272  1.0000
  H   H752      1.0  0.36816  0.78626  0.98406  1.0000
  H   H753      1.0  0.38310  0.76739  0.35284  1.0000
  H   H754      1.0  0.46107  0.86066  0.60387  1.0000
  C   C647      1.0  0.46729  0.82253  0.13202  1.0000
  H   H755      1.0  0.48310  0.95538  0.12275  1.0000
  H   H756      1.0  0.38283  0.85640  0.30720  1.0000
  H   H757      1.0  0.41768  0.76117  0.29354  1.0000
  C   C648      1.0  0.43966  0.96722  0.88165  1.0000
  H   H758      1.0  0.37960  0.76218  0.28944  1.0000
  H   H759      1.0  0.47931  0.87310  0.92174  1.0000
  C   C649      1.0  0.40019  0.76527  0.31526  1.0000
  H   H760      1.0  0.47312  0.85856  0.62831  1.0000
  C   C650      1.0  0.41795  0.76456  0.98518  1.0000
  H   H761      1.0  0.49814  0.89540  0.81982  1.0000
  C   C651      1.0  0.40002  0.79400  0.49931  1.0000
  H   H762      1.0  0.44506  0.83426  0.65370  1.0000
  H   H763      1.0  0.36752  0.86049  0.35175  1.0000
  C   C652      1.0  0.40942  0.79083  0.51513  1.0000
  N   N43       1.0  0.46390  0.80519  0.09680  1.0000
  C   C653      1.0  0.38932  0.85514  0.32611  1.0000
  C   C654      1.0  0.45061  0.80343  0.10861  1.0000
  C   C655      1.0  0.48621  0.95226  0.09357  1.0000
  H   H764      1.0  0.42232  0.78504  0.91817  1.0000
  C   C656      1.0  0.48404  0.99879  0.30693  1.0000
  C   C657      1.0  0.48038  0.94242  0.03865  1.0000
  H   H765      1.0  0.40319  0.78518  0.91282  1.0000
  H   H766      1.0  0.49134  0.84721  0.50882  1.0000
  C   C658      1.0  0.47849  0.87428  0.88644  1.0000
  H   H767      1.0  0.45819  0.89119  0.89126  1.0000
  H   H768      1.0  0.47719  0.79668  0.15636  1.0000
  C   C659      1.0  0.50300  0.80964  0.65011  1.0000
  H   H769      1.0  0.40034  0.81469  0.90779  1.0000
  H   H770      1.0  0.48751  0.87486  0.86419  1.0000
  H   H771      1.0  0.45541  0.87512  0.89661  1.0000
  C   C660      1.0  0.46810  0.96165  0.97456  1.0000
  H   H772      1.0  0.39305  0.84579  0.43248  1.0000
  C   C661      1.0  0.49250  0.94384  0.01746  1.0000
  H   H773      1.0  0.44199  0.93229  0.90348  1.0000
  C   C662      1.0  0.46180  0.88311  0.90026  1.0000
  H   H774      1.0  0.46670  0.87881  0.82167  1.0000
  C   C663      1.0  0.44070  0.79527  0.40367  1.0000
  H   H775      1.0  0.38666  0.76666  0.22966  1.0000
  C   C664      1.0  0.47185  0.82815  0.16187  1.0000
  C   C665      1.0  0.48176  0.00321  0.87720  1.0000
  N   N44       1.0  0.47432  0.88531  0.87105  1.0000
  C   C666      1.0  0.38881  0.80291  0.02330  1.0000
  H   H776      1.0  0.42700  0.76736  0.99088  1.0000
  C   C667      1.0  0.47365  0.88664  0.82359  1.0000
  H   H777      1.0  0.48229  0.88674  0.80016  1.0000
  H   H778      1.0  0.47591  0.79361  0.08750  1.0000
  H   H779      1.0  0.39267  0.79596  0.52176  1.0000
  H   H780      1.0  0.40518  0.78909  0.27182  1.0000
  H   H781      1.0  0.37941  0.77260  0.07963  1.0000
  C   C668      1.0  0.43626  0.95063  0.84572  1.0000
  H   H782      1.0  0.44287  0.93888  0.78031  1.0000
  C   C669      1.0  0.47725  0.94676  0.07621  1.0000
  H   H783      1.0  0.43458  0.85779  0.69644  1.0000
  H   H784      1.0  0.35611  0.79601  0.06062  1.0000
  C   C670      1.0  0.48013  0.90275  0.90526  1.0000
  C   C671      1.0  0.45964  0.84017  0.70277  1.0000
  H   H785      1.0  0.47365  0.96150  0.94234  1.0000
  C   C672      1.0  0.47197  0.97114  0.99382  1.0000
  C   C673      1.0  0.44118  0.97594  0.84068  1.0000
  N   N45       1.0  0.43361  0.93736  0.84970  1.0000
  H   H786      1.0  0.43203  0.92442  0.81035  1.0000
  C   C674      1.0  0.39673  0.81020  0.98091  1.0000
  C   C675      1.0  0.44370  0.84193  0.66810  1.0000
  H   H787      1.0  0.46735  0.82225  0.04419  1.0000
  C   C676      1.0  0.46402  0.85385  0.62708  1.0000
  H   H788      1.0  0.43996  0.84780  0.64468  1.0000
  H   H789      1.0  0.42674  0.93744  0.79136  1.0000
  H   H790      1.0  0.43599  0.94839  0.91708  1.0000
  H   H791      1.0  0.39277  0.79738  0.44229  1.0000
  S   S179      1.0  0.44327  0.77708  0.22352  1.0000
  N   N46       1.0  0.45515  0.84895  0.67296  1.0000
  H   H792      1.0  0.43677  0.83770  0.70184  1.0000
  H   H793      1.0  0.41430  0.93457  0.86890  1.0000
  H   H794      1.0  0.47127  0.89525  0.80985  1.0000
  C   C677      1.0  0.43385  0.93450  0.80580  1.0000
  H   H795      1.0  0.48042  0.97808  0.97637  1.0000
  S   S180      1.0  0.46860  0.98417  0.05939  1.0000
  C   C678      1.0  0.46608  0.79298  0.09810  1.0000
  H   H796      1.0  0.44021  0.80470  0.38784  1.0000
  C   C679      1.0  0.37049  0.84385  0.45053  1.0000
  H   H797      1.0  0.46135  0.88088  0.93712  1.0000
  H   H798      1.0  0.37544  0.85124  0.46196  1.0000
  H   H799      1.0  0.46205  0.78883  0.07439  1.0000
  H   H800      1.0  0.47459  0.99759  0.30454  1.0000
  C   C680      1.0  0.43782  0.95975  0.80441  1.0000
  H   H801      1.0  0.44041  0.97007  0.91172  1.0000
  C   C681      1.0  0.44268  0.93216  0.86778  1.0000
  H   H802      1.0  0.40932  0.79031  0.55013  1.0000
  H   H803      1.0  0.41543  0.79363  0.95303  1.0000
  H   H804      1.0  0.46239  0.82728  0.11194  1.0000
  C   C682      1.0  0.46894  0.81098  0.12839  1.0000
  Fe  Fe92      1.0  0.48515  0.99934  0.05757  1.0000
  H   H805      1.0  0.49116  0.88257  0.26513  1.0000
  C   C683      1.0  0.45376  0.85919  0.69249  1.0000
  H   H806      1.0  0.47247  0.86433  0.69484  1.0000
  H   H807      1.0  0.41913  0.92093  0.88632  1.0000
  H   H808      1.0  0.47451  0.00465  0.86077  1.0000
  H   H809      1.0  0.35827  0.85643  0.40880  1.0000
  C   C684      1.0  0.50061  0.82098  0.72845  1.0000
  H   H810      1.0  0.41385  0.85016  0.38729  1.0000
  H   H811      1.0  0.42171  0.76655  0.43990  1.0000
  C   C685      1.0  0.36581  0.83711  0.38844  1.0000
  C   C686      1.0  0.46262  0.87580  0.72131  1.0000
  C   C687      1.0  0.45162  0.87875  0.73104  1.0000
  H   H812      1.0  0.47032  0.88088  0.72897  1.0000
  N   N47       1.0  0.37270  0.84752  0.40020  1.0000
  S   S181      1.0  0.49485  0.91833  0.10545  1.0000
  C   C688      1.0  0.44025  0.97221  0.80218  1.0000
  H   H813      1.0  0.38179  0.79959  0.91105  1.0000
  C   C689      1.0  0.47829  0.82252  0.18857  1.0000
  H   H814      1.0  0.44140  0.97903  0.77038  1.0000
  C   C690      1.0  0.44176  0.87225  0.72098  1.0000
  H   H815      1.0  0.45069  0.88606  0.74654  1.0000
  C   C691      1.0  0.44271  0.86257  0.70221  1.0000
  C   C692      1.0  0.36777  0.85821  0.38786  1.0000
  H   H816      1.0  0.37332  0.86651  0.39276  1.0000
  H   H817      1.0  0.40388  0.86096  0.26388  1.0000
  H   H818      1.0  0.43721  0.95752  0.77336  1.0000
  H   H819      1.0  0.45967  0.83171  0.69191  1.0000
  C   C693      1.0  0.46943  0.81322  0.04927  1.0000
  C   C694      1.0  0.41020  0.85590  0.32290  1.0000
  H   H820      1.0  0.46393  0.77151  0.25517  1.0000
  H   H821      1.0  0.44295  0.79525  0.43615  1.0000
  C   C695      1.0  0.40943  0.79216  0.42517  1.0000
  H   H822      1.0  0.49491  0.94037  0.98845  1.0000
  H   H823      1.0  0.41902  0.77973  0.36709  1.0000
  C   C696      1.0  0.50390  0.96241  0.13356  1.0000
  H   H824      1.0  0.39694  0.78765  0.23068  1.0000
  C   C697      1.0  0.39747  0.78316  0.26525  1.0000
  H   H825      1.0  0.50203  0.82193  0.76155  1.0000
  H   H826      1.0  0.43502  0.78321  0.34411  1.0000
  H   H827      1.0  0.47916  0.99340  0.89793  1.0000
  C   C698      1.0  0.49280  0.84922  0.57452  1.0000
  H   H828      1.0  0.49547  0.00050  0.22101  1.0000
  C   C699      1.0  0.40914  0.77597  0.03245  1.0000
  C   C700      1.0  0.40945  0.77157  0.23156  1.0000
  C   C701      1.0  0.41964  0.78588  0.95342  1.0000
  H   H829      1.0  0.49722  0.95482  0.16199  1.0000
  S   S182      1.0  0.48978  0.00082  0.12292  1.0000
  H   H830      1.0  0.48640  0.91715  0.93392  1.0000
  H   H831      1.0  0.40893  0.79311  0.39063  1.0000
  H   H832      1.0  0.49824  0.85864  0.56030  1.0000
  H   H833      1.0  0.48387  0.00831  0.21915  1.0000
  H   H834      1.0  0.49590  0.82792  0.71629  1.0000
  H   H835      1.0  0.41775  0.77930  0.04057  1.0000
  S   S183      1.0  0.45277  0.75997  0.12117  1.0000
  C   C702      1.0  0.49279  0.00881  0.22631  1.0000
  C   C703      1.0  0.40005  0.79471  0.45447  1.0000
  H   H836      1.0  0.48398  0.99914  0.34212  1.0000
  S   S184      1.0  0.33289  0.75990  0.16158  1.0000
  C   C704      1.0  0.50152  0.94936  0.03442  1.0000
  C   C705      1.0  0.50064  0.80792  0.60997  1.0000
  H   H837      1.0  0.42826  0.78859  0.96234  1.0000
  C   C706      1.0  0.50362  0.91002  0.84698  1.0000
  H   H838      1.0  0.50408  0.87844  0.91387  1.0000
  C   C707      1.0  0.39103  0.76420  0.35514  1.0000
  H   H839      1.0  0.49137  0.00040  0.94930  1.0000
  H   H840      1.0  0.46426  0.00872  0.93253  1.0000
  C   C708      1.0  0.47239  0.00805  0.94440  1.0000
  Fe  Fe93      1.0  0.69282  0.18754  0.97479  1.0000
  S   S185      1.0  0.67457  0.18360  0.02383  1.0000
  S   S186      1.0  0.69405  0.17623  0.92286  1.0000
  Fe  Fe94      1.0  0.70409  0.20979  0.00878  1.0000
  S   S187      1.0  0.68575  0.20716  0.05667  1.0000
  Fe  Fe95      1.0  0.68433  0.18696  0.07506  1.0000
  S   S188      1.0  0.67562  0.17811  0.15102  1.0000
  Fe  Fe96      1.0  0.67752  0.20391  0.00126  1.0000
  S   S189      1.0  0.66203  0.21121  0.98545  1.0000
  S   S190      1.0  0.70286  0.18936  0.02868  1.0000
  S   S191      1.0  0.69571  0.20810  0.95085  1.0000
  Fe  Fe97      1.0  0.58908  0.19617  0.94373  1.0000
  S   S192      1.0  0.59095  0.18737  0.01235  1.0000
  S   S193      1.0  0.59084  0.21697  0.92053  1.0000
  Fe  Fe98      1.0  0.58225  0.17084  0.92212  1.0000
  S   S194      1.0  0.58362  0.16093  0.99068  1.0000
  S   S195      1.0  0.57787  0.15553  0.88785  1.0000
  Fe  Fe99      1.0  0.57391  0.17317  0.01969  1.0000
  S   S196      1.0  0.55711  0.16833  0.07886  1.0000
  Fe  Fe100     1.0  0.60052  0.17594  0.97630  1.0000
  S   S197      1.0  0.61730  0.17027  0.98505  1.0000
  S   S198      1.0  0.57139  0.18240  0.95268  1.0000
  S   S199      1.0  0.59984  0.18543  0.90652  1.0000
  Fe  Fe101     1.0  0.64584  0.11251  0.31958  1.0000
  S   S200      1.0  0.64398  0.09421  0.36901  1.0000
  S   S201      1.0  0.66272  0.12167  0.25983  1.0000
  Fe  Fe102     1.0  0.61970  0.11120  0.35839  1.0000
  S   S202      1.0  0.61616  0.09305  0.40933  1.0000
  S   S203      1.0  0.60415  0.11941  0.35499  1.0000
  Fe  Fe103     1.0  0.63365  0.10144  0.42281  1.0000
  S   S204      1.0  0.63264  0.09852  0.49971  1.0000
  Fe  Fe104     1.0  0.62661  0.08780  0.35075  1.0000
  S   S205      1.0  0.61931  0.06931  0.33708  1.0000
  S   S206      1.0  0.63654  0.12001  0.37375  1.0000
  S   S207      1.0  0.62921  0.10569  0.29935  1.0000
  Fe  Fe105     1.0  0.65060  0.13634  0.79349  1.0000
  S   S208      1.0  0.63428  0.12159  0.84126  1.0000
  S   S209      1.0  0.65572  0.15109  0.83038  1.0000
  Fe  Fe106     1.0  0.64710  0.12553  0.71095  1.0000
  S   S210      1.0  0.63075  0.11057  0.75545  1.0000
  S   S211      1.0  0.65246  0.12732  0.63345  1.0000
  Fe  Fe107     1.0  0.62553  0.12506  0.78536  1.0000
  S   S212      1.0  0.60707  0.12798  0.79679  1.0000
  Fe  Fe108     1.0  0.64115  0.10849  0.80727  1.0000
  S   S213      1.0  0.64121  0.08990  0.84949  1.0000
  S   S214      1.0  0.64114  0.14041  0.73835  1.0000
  S   S215      1.0  0.65822  0.12274  0.76163  1.0000
  Fe  Fe109     1.0  0.53435  0.10240  0.26464  1.0000
  S   S216      1.0  0.52038  0.08574  0.31561  1.0000
  S   S217      1.0  0.52840  0.11931  0.23837  1.0000
  Fe  Fe110     1.0  0.55455  0.09072  0.26960  1.0000
  S   S218      1.0  0.54234  0.07329  0.32012  1.0000
  S   S219      1.0  0.57434  0.09217  0.24632  1.0000
  Fe  Fe111     1.0  0.52983  0.07493  0.27502  1.0000
  S   S220      1.0  0.52262  0.05745  0.25534  1.0000
  Fe  Fe112     1.0  0.53412  0.08564  0.35608  1.0000
  S   S221      1.0  0.52941  0.08185  0.43454  1.0000
  S   S222      1.0  0.54289  0.09166  0.22204  1.0000
  S   S223      1.0  0.54720  0.10295  0.30766  1.0000
  Fe  Fe113     1.0  0.54975  0.11821  0.72656  1.0000
  S   S224      1.0  0.54775  0.10042  0.77759  1.0000
  S   S225      1.0  0.55325  0.13668  0.74361  1.0000
  Fe  Fe114     1.0  0.54633  0.10522  0.65032  1.0000
  S   S226      1.0  0.54454  0.08662  0.69714  1.0000
  S   S227      1.0  0.54776  0.10951  0.57287  1.0000
  Fe  Fe115     1.0  0.53279  0.09225  0.75140  1.0000
  S   S228      1.0  0.51577  0.07955  0.80446  1.0000
  Fe  Fe116     1.0  0.55960  0.09638  0.71963  1.0000
  S   S229      1.0  0.57496  0.08898  0.73419  1.0000
  S   S230      1.0  0.53357  0.11042  0.70381  1.0000
  S   S231      1.0  0.56257  0.11460  0.66914  1.0000
  H   H841      1.0  0.52053  0.13944  0.35951  1.0000
  C   C709      1.0  0.52286  0.02381  0.29010  1.0000
  H   H842      1.0  0.53375  0.11748  0.87322  1.0000
  H   H843      1.0  0.65394  0.09193  0.63353  1.0000
  H   H844      1.0  0.60944  0.07648  0.79824  1.0000
  C   C710      1.0  0.63648  0.24242  0.99093  1.0000
  H   H845      1.0  0.69262  0.18728  0.20499  1.0000
  S   S232      1.0  0.59112  0.05437  0.98279  1.0000
  S   S233      1.0  0.58507  0.04876  0.11571  1.0000
  C   C711      1.0  0.71060  0.21714  0.17044  1.0000
  C   C712      1.0  0.60032  0.24978  0.97979  1.0000
  C   C713      1.0  0.53101  0.01850  0.17192  1.0000
  H   H846      1.0  0.66001  0.18759  0.96776  1.0000
  C   C714      1.0  0.63558  0.08066  0.71452  1.0000
  C   C715      1.0  0.52413  0.01048  0.15438  1.0000
  H   H847      1.0  0.52749  0.02541  0.18346  1.0000
  C   C716      1.0  0.57519  0.02333  0.94627  1.0000
  C   C717      1.0  0.51746  0.06628  0.84041  1.0000
  H   H848      1.0  0.70759  0.21091  0.09498  1.0000
  C   C718      1.0  0.65224  0.07496  0.73948  1.0000
  H   H849      1.0  0.56690  0.24738  0.94358  1.0000
  C   C719      1.0  0.52776  0.05027  0.85391  1.0000
  C   C720      1.0  0.52711  0.06140  0.82660  1.0000
  C   C721      1.0  0.63002  0.07802  0.68077  1.0000
  H   H850      1.0  0.64905  0.23133  0.98635  1.0000
  H   H851      1.0  0.53515  0.04646  0.84259  1.0000
  H   H852      1.0  0.53391  0.06605  0.79433  1.0000
  C   C722      1.0  0.53497  0.08956  0.47221  1.0000
  C   C723      1.0  0.53077  0.08386  0.51970  1.0000
  C   C724      1.0  0.53454  0.08974  0.55097  1.0000
  C   C725      1.0  0.54246  0.10156  0.53533  1.0000
  C   C726      1.0  0.54659  0.10729  0.48783  1.0000
  C   C727      1.0  0.54307  0.10129  0.45653  1.0000
  H   H853      1.0  0.52450  0.07481  0.53248  1.0000
  H   H854      1.0  0.53124  0.08515  0.58722  1.0000
  H   H855      1.0  0.55257  0.11649  0.47509  1.0000
  H   H856      1.0  0.54645  0.10583  0.42033  1.0000
  H   H857      1.0  0.64891  0.06555  0.73691  1.0000
  C   C728      1.0  0.51956  0.04643  0.18840  1.0000
  H   H858      1.0  0.64294  0.17284  0.82413  1.0000
  H   H859      1.0  0.73070  0.25307  0.98728  1.0000
  H   H860      1.0  0.64950  0.07634  0.08616  1.0000
  C   C729      1.0  0.61003  0.07458  0.73132  1.0000
  H   H861      1.0  0.52797  0.04430  0.19057  1.0000
  H   H862      1.0  0.53719  0.12577  0.31265  1.0000
  H   H863      1.0  0.61684  0.14822  0.10002  1.0000
  H   H864      1.0  0.66576  0.08763  0.65478  1.0000
  C   C730      1.0  0.62725  0.08049  0.88796  1.0000
  C   C731      1.0  0.61625  0.08234  0.88214  1.0000
  C   C732      1.0  0.60524  0.07427  0.91144  1.0000
  C   C733      1.0  0.60513  0.06454  0.94774  1.0000
  C   C734      1.0  0.61612  0.06283  0.95415  1.0000
  C   C735      1.0  0.62713  0.07068  0.92394  1.0000
  H   H865      1.0  0.61623  0.08987  0.85458  1.0000
  H   H866      1.0  0.59678  0.07561  0.90608  1.0000
  H   H867      1.0  0.61615  0.05535  0.98187  1.0000
  H   H868      1.0  0.63561  0.06919  0.92865  1.0000
  C   C736      1.0  0.59685  0.11614  0.78837  1.0000
  C   C737      1.0  0.59894  0.10457  0.79217  1.0000
  C   C738      1.0  0.59184  0.09594  0.77737  1.0000
  C   C739      1.0  0.58262  0.09886  0.75924  1.0000
  C   C740      1.0  0.58008  0.11013  0.75837  1.0000
  C   C741      1.0  0.58715  0.11873  0.77314  1.0000
  H   H869      1.0  0.60612  0.10237  0.80577  1.0000
  H   H870      1.0  0.59363  0.08713  0.77907  1.0000
  H   H871      1.0  0.57302  0.11253  0.74451  1.0000
  H   H872      1.0  0.58552  0.12767  0.77025  1.0000
  C   C742      1.0  0.59518  0.11139  0.32786  1.0000
  C   C743      1.0  0.58615  0.11594  0.31326  1.0000
  C   C744      1.0  0.57958  0.10995  0.28872  1.0000
  C   C745      1.0  0.58207  0.09943  0.27869  1.0000
  C   C746      1.0  0.59096  0.09480  0.29394  1.0000
  C   C747      1.0  0.59736  0.10065  0.31911  1.0000
  H   H873      1.0  0.58447  0.12427  0.31979  1.0000
  H   H874      1.0  0.57294  0.11375  0.27600  1.0000
  H   H875      1.0  0.59288  0.08663  0.28656  1.0000
  H   H876      1.0  0.60398  0.09679  0.33162  1.0000
  C   C748      1.0  0.63826  0.10687  0.53587  1.0000
  C   C749      1.0  0.63336  0.10209  0.58366  1.0000
  C   C750      1.0  0.63750  0.10818  0.61387  1.0000
  C   C751      1.0  0.64674  0.11918  0.59691  1.0000
  C   C752      1.0  0.65162  0.12398  0.54914  1.0000
  C   C753      1.0  0.64740  0.11795  0.51891  1.0000
  H   H877      1.0  0.62620  0.09364  0.59736  1.0000
  H   H878      1.0  0.63351  0.10436  0.65029  1.0000
  H   H879      1.0  0.65876  0.13248  0.53525  1.0000
  H   H880      1.0  0.65134  0.12183  0.48244  1.0000
  C   C754      1.0  0.61500  0.06433  0.29132  1.0000
  C   C755      1.0  0.61629  0.07242  0.24874  1.0000
  C   C756      1.0  0.61415  0.06783  0.21223  1.0000
  C   C757      1.0  0.61030  0.05511  0.21793  1.0000
  C   C758      1.0  0.60836  0.04710  0.26126  1.0000
  C   C759      1.0  0.61074  0.05166  0.29737  1.0000
  H   H881      1.0  0.61935  0.08218  0.24344  1.0000
  H   H882      1.0  0.61598  0.07418  0.17883  1.0000
  H   H883      1.0  0.60577  0.03730  0.26627  1.0000
  H   H884      1.0  0.60969  0.04526  0.32991  1.0000
  H   H885      1.0  0.63640  0.15585  0.05153  1.0000
  C   C760      1.0  0.53665  0.13282  0.04412  1.0000
  C   C761      1.0  0.59503  0.22950  0.94354  1.0000
  C   C762      1.0  0.59856  0.22803  0.98381  1.0000
  C   C763      1.0  0.60106  0.23805  0.00189  1.0000
  H   H886      1.0  0.59933  0.21918  0.00119  1.0000
  H   H887      1.0  0.60353  0.23667  0.03347  1.0000
  C   C764      1.0  0.57108  0.15059  0.84704  1.0000
  C   C765      1.0  0.56658  0.15824  0.81759  1.0000
  C   C766      1.0  0.56129  0.15386  0.78607  1.0000
  C   C767      1.0  0.56027  0.14174  0.78368  1.0000
  C   C768      1.0  0.56464  0.13405  0.81355  1.0000
  C   C769      1.0  0.57008  0.13847  0.84464  1.0000
  H   H888      1.0  0.56726  0.16758  0.81873  1.0000
  H   H889      1.0  0.55793  0.15991  0.76334  1.0000
  H   H890      1.0  0.56381  0.12467  0.81275  1.0000
  H   H891      1.0  0.57348  0.13241  0.86710  1.0000
  C   C770      1.0  0.54983  0.15415  0.12132  1.0000
  C   C771      1.0  0.55496  0.14421  0.12875  1.0000
  C   C772      1.0  0.54858  0.13331  0.16455  1.0000
  C   C773      1.0  0.53707  0.13238  0.19243  1.0000
  C   C774      1.0  0.53202  0.14227  0.18409  1.0000
  C   C775      1.0  0.53835  0.15304  0.14908  1.0000
  H   H892      1.0  0.56388  0.14501  0.10773  1.0000
  H   H893      1.0  0.55257  0.12571  0.17082  1.0000
  H   H894      1.0  0.52315  0.14163  0.20515  1.0000
  H   H895      1.0  0.53429  0.16062  0.14365  1.0000
  C   C776      1.0  0.68293  0.16796  0.90163  1.0000
  C   C777      1.0  0.68673  0.16234  0.86764  1.0000
  C   C778      1.0  0.67848  0.15659  0.84716  1.0000
  C   C779      1.0  0.66625  0.15646  0.85988  1.0000
  C   C780      1.0  0.66241  0.16186  0.89456  1.0000
  C   C781      1.0  0.67060  0.16739  0.91564  1.0000
  H   H896      1.0  0.69619  0.16262  0.85640  1.0000
  H   H897      1.0  0.68170  0.15261  0.82043  1.0000
  H   H898      1.0  0.65303  0.16193  0.90485  1.0000
  H   H899      1.0  0.66738  0.17140  0.94216  1.0000
  C   C782      1.0  0.67159  0.16221  0.17899  1.0000
  C   C783      1.0  0.66300  0.15764  0.22206  1.0000
  C   C784      1.0  0.65987  0.14514  0.24642  1.0000
  C   C785      1.0  0.66554  0.13716  0.22834  1.0000
  C   C786      1.0  0.67399  0.14169  0.18491  1.0000
  C   C787      1.0  0.67689  0.15415  0.16001  1.0000
  H   H900      1.0  0.65885  0.16382  0.23698  1.0000
  H   H901      1.0  0.65339  0.14176  0.27989  1.0000
  H   H902      1.0  0.67843  0.13558  0.17075  1.0000
  H   H903      1.0  0.68353  0.15757  0.12688  1.0000
  C   C788      1.0  0.64964  0.20005  0.98349  1.0000
  C   C789      1.0  0.63814  0.20214  0.99012  1.0000
  C   C790      1.0  0.62815  0.19315  0.98989  1.0000
  C   C791      1.0  0.62965  0.18201  0.98304  1.0000
  C   C792      1.0  0.64119  0.18004  0.97533  1.0000
  C   C793      1.0  0.65114  0.18906  0.97525  1.0000
  H   H904      1.0  0.63687  0.21064  0.99614  1.0000
  H   H905      1.0  0.61929  0.19477  0.99561  1.0000
  H   H906      1.0  0.64248  0.17160  0.96867  1.0000
  H   H907      1.0  0.53891  0.13712  0.07054  1.0000
  C   C794      1.0  0.72787  0.23815  0.17046  1.0000
  H   H908      1.0  0.52802  0.13463  0.03929  1.0000
  H   H909      1.0  0.55886  0.04888  0.10011  1.0000
  C   C795      1.0  0.53956  0.05068  0.07434  1.0000
  H   H910      1.0  0.57411  0.07854  0.90379  1.0000
  H   H911      1.0  0.68659  0.21211  0.19934  1.0000
  C   C796      1.0  0.51792  0.11026  0.50695  1.0000
  S   S234      1.0  0.51439  0.02285  0.05877  1.0000
  H   H912      1.0  0.53410  0.10425  0.94661  1.0000
  H   H913      1.0  0.50714  0.12680  0.38127  1.0000
  H   H914      1.0  0.51599  0.03509  0.14417  1.0000
  H   H915      1.0  0.59196  0.24264  0.88958  1.0000
  Fe  Fe117     1.0  0.58592  0.01570  0.10813  1.0000
  C   C797      1.0  0.59743  0.03005  0.91081  1.0000
  N   N48       1.0  0.52371  0.12150  0.37743  1.0000
  C   C798      1.0  0.69955  0.19513  0.20698  1.0000
  C   C799      1.0  0.71290  0.22874  0.13818  1.0000
  H   H916      1.0  0.56165  0.22526  0.96108  1.0000
  H   H917      1.0  0.63567  0.20052  0.88779  1.0000
  C   C800      1.0  0.51786  0.11030  0.46244  1.0000
  H   H918      1.0  0.51919  0.10984  0.33574  1.0000
  H   H919      1.0  0.56478  0.20616  0.97513  1.0000
  C   C801      1.0  0.54257  0.01775  0.17367  1.0000
  H   H920      1.0  0.53890  0.13993  0.85813  1.0000
  H   H921      1.0  0.54216  0.12051  0.36197  1.0000
  H   H922      1.0  0.60028  0.07245  0.73747  1.0000
  C   C802      1.0  0.71738  0.21653  0.20277  1.0000
  C   C803      1.0  0.72590  0.22692  0.20249  1.0000
  H   H923      1.0  0.71642  0.20811  0.22822  1.0000
  H   H924      1.0  0.65385  0.17479  0.10658  1.0000
  N   N49       1.0  0.61001  0.12976  0.63639  1.0000
  C   C804      1.0  0.60098  0.13502  0.66091  1.0000
  C   C805      1.0  0.60906  0.11754  0.66632  1.0000
  C   C806      1.0  0.62219  0.13795  0.62918  1.0000
  C   C807      1.0  0.60816  0.12835  0.59252  1.0000
  C   C808      1.0  0.59721  0.12884  0.58098  1.0000
  C   C809      1.0  0.61717  0.12564  0.56099  1.0000
  C   C810      1.0  0.59567  0.12717  0.53968  1.0000
  C   C811      1.0  0.61554  0.12396  0.51989  1.0000
  C   C812      1.0  0.60485  0.12483  0.50905  1.0000
  H   H925      1.0  0.59169  0.12869  0.67279  1.0000
  H   H926      1.0  0.60299  0.13666  0.69241  1.0000
  H   H927      1.0  0.60081  0.14396  0.63913  1.0000
  H   H928      1.0  0.61576  0.11318  0.65042  1.0000
  H   H929      1.0  0.59992  0.11120  0.67392  1.0000
  H   H930      1.0  0.61071  0.11816  0.69936  1.0000
  H   H931      1.0  0.62379  0.14685  0.60309  1.0000
  H   H932      1.0  0.62335  0.13998  0.66122  1.0000
  H   H933      1.0  0.62965  0.13381  0.61824  1.0000
  H   H934      1.0  0.58965  0.13042  0.60337  1.0000
  H   H935      1.0  0.62553  0.12465  0.56797  1.0000
  H   H936      1.0  0.58724  0.12760  0.53163  1.0000
  H   H937      1.0  0.62257  0.12184  0.49651  1.0000
  H   H938      1.0  0.60368  0.12355  0.47705  1.0000
  H   H939      1.0  0.53961  0.06040  0.07167  1.0000
  H   H940      1.0  0.56940  0.05242  0.04590  1.0000
  C   C813      1.0  0.64446  0.06959  0.21675  1.0000
  H   H941      1.0  0.65024  0.16656  0.04556  1.0000
  C   C814      1.0  0.62774  0.07982  0.75727  1.0000
  H   H942      1.0  0.60238  0.14533  0.96548  1.0000
  C   C815      1.0  0.56271  0.07709  0.13951  1.0000
  H   H943      1.0  0.58021  0.04011  0.26310  1.0000
  H   H944      1.0  0.55401  0.03804  0.27101  1.0000
  C   C816      1.0  0.55592  0.07047  0.90467  1.0000
  H   H945      1.0  0.54369  0.02979  0.94669  1.0000
  C   C817      1.0  0.52837  0.13195  0.43578  1.0000
  H   H946      1.0  0.73116  0.22625  0.22680  1.0000
  N   N50       1.0  0.58695  0.02039  0.94455  1.0000
  N   N51       1.0  0.56059  0.20816  0.04311  1.0000
  H   H947      1.0  0.51675  0.13010  0.32413  1.0000
  H   H948      1.0  0.51415  0.10178  0.53454  1.0000
  H   H949      1.0  0.59011  0.02765  0.99892  1.0000
  C   C818      1.0  0.51673  0.12984  0.35992  1.0000
  C   C819      1.0  0.56414  0.01433  0.97151  1.0000
  H   H950      1.0  0.56256  0.04622  0.90545  1.0000
  H   H951      1.0  0.52367  0.10265  0.38351  1.0000
  H   H952      1.0  0.50741  0.03016  0.28786  1.0000
  H   H953      1.0  0.50889  0.10545  0.39126  1.0000
  C   C820      1.0  0.56709  0.22803  0.06144  1.0000
  H   H954      1.0  0.54059  0.13580  0.34573  1.0000
  H   H955      1.0  0.54229  0.20627  0.08038  1.0000
  C   C821      1.0  0.74386  0.25497  0.02551  1.0000
  C   C822      1.0  0.55717  0.20300  0.00720  1.0000
  C   C823      1.0  0.57001  0.24776  0.00802  1.0000
  H   H956      1.0  0.62951  0.23601  0.98407  1.0000
  C   C824      1.0  0.52334  0.12092  0.51583  1.0000
  C   C825      1.0  0.55025  0.20289  0.08507  1.0000
  S   S235      1.0  0.52013  0.03007  0.92844  1.0000
  H   H957      1.0  0.58880  0.10741  0.90848  1.0000
  H   H958      1.0  0.53487  0.12278  0.05918  1.0000
  N   N52       1.0  0.56983  0.05331  0.25240  1.0000
  H   H959      1.0  0.65729  0.20934  0.87362  1.0000
  C   C826      1.0  0.54490  0.06207  0.93012  1.0000
  H   H960      1.0  0.55245  0.04943  0.30125  1.0000
  C   C827      1.0  0.57110  0.20390  0.05202  1.0000
  H   H961      1.0  0.58191  0.08540  0.11743  1.0000
  C   C828      1.0  0.56669  0.24192  0.97689  1.0000
  N   N53       1.0  0.57752  0.09509  0.48990  1.0000
  C   C829      1.0  0.58511  0.09246  0.45065  1.0000
  C   C830      1.0  0.56557  0.08590  0.50481  1.0000
  C   C831      1.0  0.57592  0.10749  0.47311  1.0000
  C   C832      1.0  0.58280  0.09469  0.52870  1.0000
  C   C833      1.0  0.59453  0.09305  0.52681  1.0000
  C   C834      1.0  0.57622  0.09619  0.56992  1.0000
  C   C835      1.0  0.59920  0.09270  0.56421  1.0000
  C   C836      1.0  0.58093  0.09573  0.60717  1.0000
  C   C837      1.0  0.59238  0.09396  0.60439  1.0000
  H   H962      1.0  0.58677  0.08326  0.46062  1.0000
  H   H963      1.0  0.58080  0.09264  0.42237  1.0000
  H   H964      1.0  0.59394  0.09953  0.43557  1.0000
  H   H965      1.0  0.56638  0.07649  0.51867  1.0000
  H   H966      1.0  0.56140  0.08586  0.47624  1.0000
  H   H967      1.0  0.55890  0.08772  0.53175  1.0000
  H   H968      1.0  0.58477  0.11459  0.46010  1.0000
  H   H969      1.0  0.57175  0.10810  0.44441  1.0000
  H   H970      1.0  0.57003  0.11007  0.50023  1.0000
  H   H971      1.0  0.60035  0.09204  0.49688  1.0000
  H   H972      1.0  0.56735  0.09776  0.57379  1.0000
  H   H973      1.0  0.60819  0.09147  0.56179  1.0000
  H   H974      1.0  0.57564  0.09669  0.63849  1.0000
  H   H975      1.0  0.59594  0.09357  0.63351  1.0000
  N   N54       1.0  0.54645  0.13768  0.00043  1.0000
  C   C838      1.0  0.55749  0.13432  0.00805  1.0000
  C   C839      1.0  0.54922  0.15128  0.98750  1.0000
  C   C840      1.0  0.54275  0.13233  0.96549  1.0000
  C   C841      1.0  0.53959  0.11940  0.97319  1.0000
  C   C842      1.0  0.54234  0.13961  0.92301  1.0000
  C   C843      1.0  0.53633  0.11413  0.94035  1.0000
  C   C844      1.0  0.53894  0.13421  0.89068  1.0000
  C   C845      1.0  0.53605  0.12153  0.89911  1.0000
  H   H976      1.0  0.56495  0.13749  0.97554  1.0000
  H   H977      1.0  0.56079  0.13853  0.03301  1.0000
  H   H978      1.0  0.55593  0.12426  0.02170  1.0000
  H   H979      1.0  0.55693  0.15559  0.95598  1.0000
  H   H980      1.0  0.55190  0.15501  0.01449  1.0000
  H   H981      1.0  0.54123  0.15448  0.98205  1.0000
  H   H982      1.0  0.53975  0.11328  0.00450  1.0000
  H   H983      1.0  0.54489  0.14951  0.91323  1.0000
  S   S236      1.0  0.55201  0.02944  0.18634  1.0000
  H   H984      1.0  0.62201  0.12931  0.25046  1.0000
  H   H985      1.0  0.55709  0.07564  0.86972  1.0000
  C   C846      1.0  0.59456  0.24129  0.92092  1.0000
  C   C847      1.0  0.51533  0.05399  0.21370  1.0000
  C   C848      1.0  0.61743  0.07508  0.68923  1.0000
  Fe  Fe118     1.0  0.58936  0.04235  0.05340  1.0000
  H   H986      1.0  0.63127  0.08157  0.78473  1.0000
  H   H987      1.0  0.64392  0.16843  0.16289  1.0000
  H   H988      1.0  0.63722  0.14764  0.20021  1.0000
  H   H989      1.0  0.54196  0.03278  0.03494  1.0000
  Fe  Fe119     1.0  0.57078  0.03093  0.14675  1.0000
  C   C849      1.0  0.64743  0.16616  0.13079  1.0000
  C   C850      1.0  0.62109  0.13352  0.21719  1.0000
  H   H990      1.0  0.62124  0.15897  0.84394  1.0000
  H   H991      1.0  0.60777  0.15907  0.91838  1.0000
  C   C851      1.0  0.64310  0.15847  0.06997  1.0000
  C   C852      1.0  0.62973  0.14418  0.18792  1.0000
  H   H992      1.0  0.65294  0.15957  0.13733  1.0000
  H   H993      1.0  0.64739  0.15083  0.07746  1.0000
  H   H994      1.0  0.60459  0.11996  0.22678  1.0000
  H   H995      1.0  0.54741  0.19266  0.09449  1.0000
  S   S237      1.0  0.61092  0.04950  0.16884  1.0000
  C   C853      1.0  0.61120  0.12826  0.20411  1.0000
  Fe  Fe120     1.0  0.59724  0.03801  0.14153  1.0000
  N   N55       1.0  0.63751  0.16122  0.11238  1.0000
  C   C854      1.0  0.62855  0.14999  0.14456  1.0000
  C   C855      1.0  0.56547  0.07212  0.92401  1.0000
  S   S238      1.0  0.57343  0.02569  0.08197  1.0000
  H   H996      1.0  0.62839  0.15892  0.90932  1.0000
  C   C856      1.0  0.57606  0.06098  0.27659  1.0000
  H   H997      1.0  0.59661  0.14645  0.91676  1.0000
  C   C857      1.0  0.56398  0.06551  0.96911  1.0000
  H   H998      1.0  0.57181  0.06713  0.98166  1.0000
  N   N56       1.0  0.55085  0.04985  0.04414  1.0000
  C   C858      1.0  0.61831  0.14438  0.13247  1.0000
  C   C859      1.0  0.60980  0.13367  0.16191  1.0000
  H   H999      1.0  0.61777  0.10418  0.96827  1.0000
  S   S239      1.0  0.60233  0.03235  0.07630  1.0000
  H   H1000     1.0  0.63806  0.17982  0.07818  1.0000
  C   C860      1.0  0.60492  0.14886  0.92763  1.0000
  C   C861      1.0  0.62560  0.14871  0.91943  1.0000
  C   C862      1.0  0.61753  0.14883  0.85579  1.0000
  H   H1001     1.0  0.62397  0.14568  0.95705  1.0000
  H   H1002     1.0  0.63348  0.14582  0.90259  1.0000
  H   H1003     1.0  0.60942  0.14681  0.84332  1.0000
  H   H1004     1.0  0.62431  0.14478  0.83810  1.0000
  C   C863      1.0  0.57448  0.07826  0.14266  1.0000
  H   H1005     1.0  0.56242  0.06392  0.06143  1.0000
  H   H1006     1.0  0.67496  0.22067  0.81800  1.0000
  S   S240      1.0  0.58243  0.02022  0.17581  1.0000
  C   C864      1.0  0.63145  0.17105  0.10069  1.0000
  H   H1007     1.0  0.58651  0.05198  0.21056  1.0000
  N   N57       1.0  0.61464  0.14392  0.90606  1.0000
  C   C865      1.0  0.61518  0.07687  0.76539  1.0000
  H   H1008     1.0  0.50878  0.04529  0.78528  1.0000
  C   C866      1.0  0.56083  0.05402  0.06348  1.0000
  C   C867      1.0  0.55275  0.05704  0.99637  1.0000
  N   N58       1.0  0.67629  0.20197  0.82984  1.0000
  H   H1009     1.0  0.62826  0.18227  0.86403  1.0000
  H   H1010     1.0  0.60202  0.12953  0.15215  1.0000
  C   C868      1.0  0.61048  0.13034  0.91959  1.0000
  H   H1011     1.0  0.62466  0.12629  0.95116  1.0000
  H   H1012     1.0  0.59513  0.12963  0.89102  1.0000
  C   C869      1.0  0.54334  0.05532  0.97502  1.0000
  H   H1013     1.0  0.53841  0.04593  0.11075  1.0000
  H   H1014     1.0  0.53129  0.04624  0.06664  1.0000
  H   H1015     1.0  0.53750  0.06075  0.91486  1.0000
  N   N59       1.0  0.70183  0.20629  0.16850  1.0000
  C   C870      1.0  0.61661  0.12266  0.94224  1.0000
  C   C871      1.0  0.60012  0.12440  0.90902  1.0000
  H   H1016     1.0  0.61338  0.07328  0.66278  1.0000
  H   H1017     1.0  0.62479  0.16872  0.08177  1.0000
  H   H1018     1.0  0.54849  0.03105  0.08131  1.0000
  H   H1019     1.0  0.68911  0.20576  0.86770  1.0000
  H   H1020     1.0  0.68283  0.19556  0.77205  1.0000
  C   C872      1.0  0.54978  0.03681  0.04608  1.0000
  H   H1021     1.0  0.55809  0.03579  0.02380  1.0000
  H   H1022     1.0  0.53470  0.04867  0.99264  1.0000
  H   H1023     1.0  0.62657  0.17292  0.13196  1.0000
  H   H1024     1.0  0.69390  0.19967  0.80076  1.0000
  H   H1025     1.0  0.68945  0.21921  0.79154  1.0000
  C   C873      1.0  0.68411  0.19545  0.80618  1.0000
  C   C874      1.0  0.61274  0.10987  0.95235  1.0000
  C   C875      1.0  0.67923  0.20200  0.87333  1.0000
  H   H1026     1.0  0.67665  0.19255  0.89674  1.0000
  H   H1027     1.0  0.68225  0.18575  0.82665  1.0000
  H   H1028     1.0  0.67457  0.20758  0.89188  1.0000
  C   C876      1.0  0.59640  0.11163  0.91896  1.0000
  C   C877      1.0  0.67955  0.21483  0.80069  1.0000
  H   H1029     1.0  0.66222  0.07701  0.73355  1.0000
  H   H1030     1.0  0.67699  0.21525  0.76843  1.0000
  C   C878      1.0  0.60271  0.10437  0.94049  1.0000
  C   C879      1.0  0.55533  0.06011  0.20871  1.0000
  H   H1031     1.0  0.59997  0.09449  0.94734  1.0000
  C   C880      1.0  0.66317  0.19636  0.83903  1.0000
  H   H1032     1.0  0.66437  0.18126  0.80826  1.0000
  C   C881      1.0  0.65453  0.20149  0.86166  1.0000
  H   H1033     1.0  0.57804  0.05532  0.30635  1.0000
  H   H1034     1.0  0.56107  0.03882  0.31544  1.0000
  C   C882      1.0  0.65859  0.18592  0.82536  1.0000
  H   H1035     1.0  0.69609  0.19676  0.24045  1.0000
  C   C883      1.0  0.55882  0.04452  0.28649  1.0000
  C   C884      1.0  0.64614  0.18093  0.83435  1.0000
  C   C885      1.0  0.64211  0.19651  0.87000  1.0000
  C   C886      1.0  0.57782  0.04605  0.23514  1.0000
  C   C887      1.0  0.57674  0.07045  0.17899  1.0000
  C   C888      1.0  0.55318  0.06798  0.17226  1.0000
  H   H1036     1.0  0.57336  0.04002  0.21741  1.0000
  H   H1037     1.0  0.57043  0.06677  0.28928  1.0000
  C   C889      1.0  0.58911  0.01888  0.98986  1.0000
  H   H1038     1.0  0.58491  0.06727  0.25446  1.0000
  H   H1039     1.0  0.54748  0.05331  0.23277  1.0000
  C   C890      1.0  0.56721  0.06124  0.21360  1.0000
  H   H1040     1.0  0.58601  0.07181  0.18018  1.0000
  H   H1041     1.0  0.54398  0.06713  0.17020  1.0000
  H   H1042     1.0  0.56095  0.08334  0.11199  1.0000
  C   C891      1.0  0.63791  0.18620  0.85666  1.0000
  H   H1043     1.0  0.52377  0.12070  0.55016  1.0000
  C   C892      1.0  0.56304  0.03728  0.92367  1.0000
  H   H1044     1.0  0.55489  0.19278  0.01789  1.0000
  H   H1045     1.0  0.51390  0.10156  0.45806  1.0000
  H   H1046     1.0  0.54911  0.20557  0.99934  1.0000
  H   H1047     1.0  0.70031  0.19503  0.12313  1.0000
  H   H1048     1.0  0.65024  0.10583  0.15704  1.0000
  H   H1049     1.0  0.65007  0.10931  0.20937  1.0000
  H   H1050     1.0  0.65447  0.09623  0.27063  1.0000
  C   C893      1.0  0.65030  0.08181  0.18864  1.0000
  C   C894      1.0  0.64744  0.23978  0.99219  1.0000
  C   C895      1.0  0.64779  0.10162  0.19447  1.0000
  C   C896      1.0  0.65137  0.08835  0.25773  1.0000
  C   C897      1.0  0.52849  0.13177  0.48037  1.0000
  H   H1051     1.0  0.63780  0.09770  0.20691  1.0000
  H   H1052     1.0  0.64147  0.08464  0.27445  1.0000
  H   H1053     1.0  0.67053  0.10523  0.20278  1.0000
  C   C898      1.0  0.73657  0.22921  0.05541  1.0000
  H   H1054     1.0  0.57322  0.24548  0.07358  1.0000
  N   N60       1.0  0.65411  0.09211  0.20725  1.0000
  C   C899      1.0  0.66735  0.09768  0.18822  1.0000
  H   H1055     1.0  0.65600  0.08135  0.26996  1.0000
  H   H1056     1.0  0.64235  0.06705  0.25351  1.0000
  H   H1057     1.0  0.52768  0.03232  0.29418  1.0000
  H   H1058     1.0  0.70784  0.19191  0.20659  1.0000
  C   C900      1.0  0.57430  0.03507  0.92356  1.0000
  C   C901      1.0  0.57025  0.24084  0.05014  1.0000
  H   H1059     1.0  0.67011  0.10179  0.15065  1.0000
  H   H1060     1.0  0.67241  0.09072  0.19595  1.0000
  C   C902      1.0  0.51111  0.02246  0.28603  1.0000
  H   H1061     1.0  0.63581  0.05104  0.22010  1.0000
  H   H1062     1.0  0.65655  0.09297  0.11742  1.0000
  C   C903      1.0  0.65218  0.08393  0.14090  1.0000
  H   H1063     1.0  0.55250  0.20525  0.11506  1.0000
  C   C904      1.0  0.64064  0.06020  0.19798  1.0000
  C   C905      1.0  0.72130  0.23908  0.13867  1.0000
  H   H1064     1.0  0.58159  0.01181  0.01717  1.0000
  C   C906      1.0  0.55239  0.02805  0.94709  1.0000
  H   H1065     1.0  0.66488  0.24584  0.00191  1.0000
  C   C907      1.0  0.69000  0.20900  0.16915  1.0000
  C   C908      1.0  0.56372  0.22174  0.03045  1.0000
  H   H1066     1.0  0.59886  0.03881  0.92030  1.0000
  H   H1067     1.0  0.73392  0.21930  0.06736  1.0000
  H   H1068     1.0  0.53275  0.14002  0.48753  1.0000
  C   C909      1.0  0.64242  0.06266  0.15112  1.0000
  H   H1069     1.0  0.69049  0.21618  0.13810  1.0000
  H   H1070     1.0  0.57889  0.20737  0.02075  1.0000
  C   C910      1.0  0.64824  0.07448  0.12259  1.0000
  C   C911      1.0  0.53645  0.12611  0.34835  1.0000
  S   S241      1.0  0.71902  0.22710  0.00643  1.0000
  H   H1071     1.0  0.66288  0.09956  0.70577  1.0000
  H   H1072     1.0  0.63900  0.05541  0.13711  1.0000
  H   H1073     1.0  0.58216  0.04272  0.90550  1.0000
  C   C912      1.0  0.59723  0.25136  0.93868  1.0000
  H   H1074     1.0  0.71554  0.20155  0.12319  1.0000
  H   H1075     1.0  0.64921  0.09624  0.74960  1.0000
  H   H1076     1.0  0.63517  0.07837  0.64719  1.0000
  H   H1077     1.0  0.64840  0.07483  0.77547  1.0000
  H   H1078     1.0  0.68298  0.20080  0.17041  1.0000
  C   C913      1.0  0.65286  0.09631  0.71371  1.0000
  C   C914      1.0  0.73096  0.23522  0.02543  1.0000
  C   C915      1.0  0.65581  0.08488  0.65980  1.0000
  H   H1079     1.0  0.65369  0.07588  0.65249  1.0000
  C   C916      1.0  0.51893  0.04407  0.89566  1.0000
  C   C917      1.0  0.73483  0.24818  0.01045  1.0000
  N   N61       1.0  0.64889  0.08412  0.70662  1.0000
  H   H1080     1.0  0.64993  0.10336  0.69151  1.0000
  H   H1081     1.0  0.70855  0.22983  0.11116  1.0000
  H   H1082     1.0  0.72312  0.24776  0.11295  1.0000
  C   C918      1.0  0.70651  0.20331  0.12565  1.0000
  C   C919      1.0  0.74567  0.23599  0.07015  1.0000
  C   C920      1.0  0.52324  0.12116  0.42526  1.0000
  H   H1083     1.0  0.51536  0.01138  0.15162  1.0000
  H   H1084     1.0  0.73472  0.24611  0.16945  1.0000
  H   H1085     1.0  0.62578  0.25496  0.99699  1.0000
  H   H1086     1.0  0.56899  0.19371  0.06261  1.0000
  H   H1087     1.0  0.57416  0.20700  0.07944  1.0000
  C   C921      1.0  0.51279  0.04117  0.16230  1.0000
  C   C922      1.0  0.56367  0.22911  0.98755  1.0000
  H   H1088     1.0  0.56754  0.22309  0.09436  1.0000
  C   C923      1.0  0.55293  0.01667  0.97171  1.0000
  C   C924      1.0  0.51863  0.10931  0.37202  1.0000
  H   H1089     1.0  0.53250  0.14058  0.40946  1.0000
  H   H1090     1.0  0.59623  0.03189  0.87596  1.0000
  H   H1091     1.0  0.74980  0.23110  0.09336  1.0000
  C   C925      1.0  0.63444  0.25333  0.99830  1.0000
  H   H1092     1.0  0.59749  0.01593  0.99112  1.0000
  C   C926      1.0  0.65638  0.24801  0.00093  1.0000
  C   C927      1.0  0.50868  0.06013  0.88239  1.0000
  H   H1093     1.0  0.60606  0.02739  0.90908  1.0000
  H   H1094     1.0  0.53777  0.01573  0.28915  1.0000
  C   C928      1.0  0.74938  0.24896  0.05585  1.0000
  C   C929      1.0  0.50944  0.04908  0.91011  1.0000
  C   C930      1.0  0.52852  0.01449  0.28744  1.0000
  C   C931      1.0  0.65445  0.25898  0.00826  1.0000
  H   H1095     1.0  0.57280  0.25771  0.99894  1.0000
  Fe  Fe121     1.0  0.50767  0.02024  0.99948  1.0000
  H   H1096     1.0  0.54462  0.00958  0.99094  1.0000
  C   C932      1.0  0.50433  0.05656  0.21125  1.0000
  C   C933      1.0  0.50471  0.01168  0.27850  1.0000
  C   C934      1.0  0.57174  0.39204  0.83962  1.0000
  Fe  Fe122     1.0  0.60405  0.28257  0.99284  1.0000
  S   S242      1.0  0.61886  0.29779  0.93854  1.0000
  C   C935      1.0  0.58814  0.44277  0.90249  1.0000
  Fe  Fe123     1.0  0.59493  0.30118  0.03861  1.0000
  S   S243      1.0  0.60900  0.31724  0.98796  1.0000
  S   S244      1.0  0.58099  0.30499  0.09242  1.0000
  Fe  Fe124     1.0  0.60472  0.30811  0.93574  1.0000
  S   S245      1.0  0.60541  0.32273  0.87309  1.0000
  Fe  Fe125     1.0  0.62195  0.30586  0.99499  1.0000
  S   S246      1.0  0.64135  0.31402  0.99379  1.0000
  S   S247      1.0  0.58955  0.29253  0.98610  1.0000
  S   S248      1.0  0.60818  0.29012  0.04988  1.0000
  Fe  Fe126     1.0  0.69763  0.38084  0.09629  1.0000
  S   S249      1.0  0.67839  0.37345  0.14380  1.0000
  S   S250      1.0  0.71525  0.37627  0.10687  1.0000
  Fe  Fe127     1.0  0.68911  0.39323  0.01770  1.0000
  S   S251      1.0  0.66978  0.38716  0.05779  1.0000
  S   S252      1.0  0.69646  0.40458  0.94417  1.0000
  Fe  Fe128     1.0  0.67618  0.39219  0.11467  1.0000
  S   S253      1.0  0.66377  0.40271  0.14473  1.0000
  Fe  Fe129     1.0  0.67270  0.36877  0.08426  1.0000
  S   S254      1.0  0.65514  0.35430  0.09508  1.0000
  S   S255      1.0  0.69563  0.39994  0.07184  1.0000
  S   S256      1.0  0.69190  0.37451  0.03925  1.0000
  Fe  Fe130     1.0  0.55548  0.35964  0.24235  1.0000
  S   S257      1.0  0.57256  0.37108  0.18860  1.0000
  S   S258      1.0  0.53661  0.35522  0.23448  1.0000
  Fe  Fe131     1.0  0.56834  0.35393  0.31684  1.0000
  S   S259      1.0  0.58644  0.36462  0.26792  1.0000
  S   S260      1.0  0.56766  0.34365  0.38920  1.0000
  Fe  Fe132     1.0  0.57681  0.37851  0.24479  1.0000
  S   S261      1.0  0.58568  0.39831  0.23415  1.0000
  Fe  Fe133     1.0  0.58063  0.35604  0.21620  1.0000
  S   S262      1.0  0.59474  0.35098  0.16699  1.0000
  S   S263      1.0  0.55899  0.36844  0.29650  1.0000
  S   S264      1.0  0.56324  0.34398  0.26703  1.0000
  Fe  Fe134     1.0  0.61241  0.41364  0.41359  1.0000
  S   S265      1.0  0.61721  0.43043  0.43672  1.0000
  S   S266      1.0  0.59313  0.40381  0.42167  1.0000
  Fe  Fe135     1.0  0.63864  0.41292  0.38083  1.0000
  S   S267      1.0  0.64559  0.42995  0.40006  1.0000
  S   S268      1.0  0.65006  0.40117  0.35387  1.0000
  Fe  Fe136     1.0  0.63032  0.42166  0.46570  1.0000
  S   S269      1.0  0.63390  0.41842  0.53602  1.0000
  Fe  Fe137     1.0  0.63178  0.43709  0.36986  1.0000
  S   S270      1.0  0.63398  0.45526  0.31936  1.0000
  S   S271      1.0  0.62420  0.40419  0.44762  1.0000
  S   S272      1.0  0.62626  0.42071  0.34551  1.0000
  Fe  Fe138     1.0  0.55161  0.35333  0.74144  1.0000
  S   S273      1.0  0.54981  0.33918  0.70319  1.0000
  S   S274      1.0  0.53781  0.35314  0.80484  1.0000
  Fe  Fe139     1.0  0.57864  0.36363  0.69406  1.0000
  S   S275      1.0  0.57928  0.35035  0.65246  1.0000
  S   S276      1.0  0.59439  0.37877  0.68999  1.0000
  Fe  Fe140     1.0  0.56207  0.35426  0.64055  1.0000
  S   S277      1.0  0.55928  0.36114  0.56997  1.0000
  Fe  Fe141     1.0  0.56714  0.33651  0.71776  1.0000
  S   S278      1.0  0.56934  0.31808  0.75158  1.0000
  S   S279      1.0  0.56232  0.36861  0.67857  1.0000
  S   S280      1.0  0.56804  0.34963  0.75945  1.0000
  Fe  Fe142     1.0  0.64389  0.41852  0.83942  1.0000
  S   S281      1.0  0.63062  0.40555  0.90384  1.0000
  S   S282      1.0  0.66421  0.42406  0.82168  1.0000
  Fe  Fe143     1.0  0.62449  0.42239  0.79112  1.0000
  S   S283      1.0  0.60964  0.41045  0.85352  1.0000
  S   S284      1.0  0.61916  0.43038  0.72711  1.0000
  Fe  Fe144     1.0  0.61986  0.41944  0.89512  1.0000
  S   S285      1.0  0.60909  0.42193  0.96063  1.0000
  Fe  Fe145     1.0  0.62157  0.39780  0.85692  1.0000
  S   S286      1.0  0.61265  0.37810  0.86476  1.0000
  S   S287      1.0  0.63359  0.43290  0.83238  1.0000
  S   S288      1.0  0.63605  0.40931  0.79323  1.0000
  S   S289      1.0  0.53723  0.39549  0.96719  1.0000
  Fe  Fe146     1.0  0.54147  0.41399  0.97828  1.0000
  S   S290      1.0  0.55975  0.42152  0.98540  1.0000
  S   S291      1.0  0.57074  0.47309  0.17932  1.0000
  Fe  Fe147     1.0  0.59704  0.47249  0.07923  1.0000
  S   S292      1.0  0.58512  0.45559  0.13267  1.0000
  S   S293      1.0  0.61193  0.47075  0.02250  1.0000
  Fe  Fe148     1.0  0.57002  0.46399  0.12424  1.0000
  S   S294      1.0  0.55225  0.45344  0.12084  1.0000
  Fe  Fe149     1.0  0.58703  0.46610  0.18320  1.0000
  S   S295      1.0  0.58730  0.45391  0.25001  1.0000
  S   S296      1.0  0.58172  0.48035  0.06675  1.0000
  C   C936      1.0  0.55757  0.43014  0.02381  1.0000
  C   C937      1.0  0.56578  0.43218  0.04897  1.0000
  C   C938      1.0  0.56404  0.43913  0.07965  1.0000
  C   C939      1.0  0.55409  0.44405  0.08511  1.0000
  C   C940      1.0  0.54580  0.44188  0.06033  1.0000
  C   C941      1.0  0.54764  0.43507  0.02922  1.0000
  H   H1097     1.0  0.57343  0.42837  0.04486  1.0000
  H   H1098     1.0  0.57035  0.44061  0.09906  1.0000
  H   H1099     1.0  0.53814  0.44575  0.06423  1.0000
  H   H1100     1.0  0.54148  0.43390  0.00873  1.0000
  C   C942      1.0  0.61026  0.43564  0.97698  1.0000
  C   C943      1.0  0.60102  0.43600  0.01321  1.0000
  C   C944      1.0  0.60133  0.44671  0.02704  1.0000
  C   C945      1.0  0.61109  0.45714  0.00545  1.0000
  C   C946      1.0  0.62056  0.45667  0.97005  1.0000
  C   C947      1.0  0.62014  0.44598  0.95573  1.0000
  H   H1101     1.0  0.59348  0.42797  0.03030  1.0000
  H   H1102     1.0  0.59399  0.44688  0.05431  1.0000
  H   H1103     1.0  0.62819  0.46466  0.95329  1.0000
  H   H1104     1.0  0.62740  0.44578  0.92808  1.0000
  C   C948      1.0  0.53621  0.36705  0.81540  1.0000
  C   C949      1.0  0.53984  0.37801  0.78009  1.0000
  C   C950      1.0  0.53798  0.38885  0.78944  1.0000
  H   H1105     1.0  0.54374  0.37804  0.74544  1.0000
  H   H1106     1.0  0.54054  0.39725  0.76181  1.0000
  C   C951      1.0  0.59996  0.37779  0.73764  1.0000
  C   C952      1.0  0.60694  0.38856  0.74123  1.0000
  C   C953      1.0  0.61092  0.38852  0.77988  1.0000
  C   C954      1.0  0.60827  0.37766  0.81497  1.0000
  C   C955      1.0  0.60152  0.36672  0.81106  1.0000
  C   C956      1.0  0.59726  0.36682  0.77249  1.0000
  H   H1107     1.0  0.60896  0.39707  0.71456  1.0000
  H   H1108     1.0  0.61561  0.39708  0.78292  1.0000
  H   H1109     1.0  0.59947  0.35824  0.83788  1.0000
  H   H1110     1.0  0.59206  0.35842  0.76940  1.0000
  C   C957      1.0  0.62876  0.42123  0.58966  1.0000
  C   C958      1.0  0.62145  0.42915  0.59620  1.0000
  C   C959      1.0  0.61843  0.43172  0.63860  1.0000
  C   C960      1.0  0.62252  0.42628  0.67515  1.0000
  C   C961      1.0  0.62947  0.41805  0.66900  1.0000
  C   C962      1.0  0.63262  0.41562  0.62654  1.0000
  H   H1111     1.0  0.61845  0.43360  0.56820  1.0000
  H   H1112     1.0  0.61307  0.43812  0.64281  1.0000
  H   H1113     1.0  0.63246  0.41358  0.69686  1.0000
  H   H1114     1.0  0.63818  0.40940  0.62207  1.0000
  C   C963      1.0  0.62067  0.45567  0.30275  1.0000
  C   C964      1.0  0.61035  0.44576  0.32260  1.0000
  C   C965      1.0  0.60006  0.44559  0.30702  1.0000
  C   C966      1.0  0.59999  0.45531  0.27131  1.0000
  C   C967      1.0  0.61015  0.46544  0.25215  1.0000
  C   C968      1.0  0.62048  0.46562  0.26798  1.0000
  H   H1115     1.0  0.61029  0.43817  0.34996  1.0000
  H   H1116     1.0  0.59220  0.43777  0.32228  1.0000
  H   H1117     1.0  0.61009  0.47306  0.22503  1.0000
  H   H1118     1.0  0.62839  0.47339  0.25286  1.0000
  C   C969      1.0  0.56573  0.34892  0.43861  1.0000
  C   C970      1.0  0.56718  0.34175  0.47871  1.0000
  C   C971      1.0  0.56540  0.34538  0.51908  1.0000
  C   C972      1.0  0.56198  0.35618  0.51996  1.0000
  C   C973      1.0  0.56054  0.36335  0.47982  1.0000
  C   C974      1.0  0.56245  0.35978  0.43933  1.0000
  H   H1119     1.0  0.56962  0.33326  0.47871  1.0000
  H   H1120     1.0  0.56648  0.33973  0.54970  1.0000
  H   H1121     1.0  0.55791  0.37173  0.48007  1.0000
  H   H1122     1.0  0.56123  0.36538  0.40892  1.0000
  C   C975      1.0  0.53121  0.36115  0.18784  1.0000
  C   C976      1.0  0.51964  0.35495  0.18852  1.0000
  H   H1123     1.0  0.53663  0.33480  0.52715  1.0000
  C   C977      1.0  0.52064  0.36990  0.11845  1.0000
  C   C978      1.0  0.64337  0.26199  0.00699  1.0000
  C   C979      1.0  0.53765  0.37181  0.15176  1.0000
  H   H1124     1.0  0.54285  0.33569  0.44695  1.0000
  H   H1125     1.0  0.59089  0.36457  0.36980  1.0000
  H   H1126     1.0  0.53125  0.39130  0.18433  1.0000
  C   C980      1.0  0.58678  0.40077  0.28638  1.0000
  C   C981      1.0  0.57904  0.39269  0.32763  1.0000
  C   C982      1.0  0.58045  0.39428  0.36919  1.0000
  C   C983      1.0  0.58997  0.40361  0.36972  1.0000
  C   C984      1.0  0.59736  0.41201  0.32853  1.0000
  C   C985      1.0  0.59569  0.41068  0.28693  1.0000
  H   H1127     1.0  0.57196  0.38520  0.32783  1.0000
  H   H1128     1.0  0.57441  0.38799  0.40094  1.0000
  H   H1129     1.0  0.60430  0.41960  0.32863  1.0000
  H   H1130     1.0  0.60155  0.41713  0.25532  1.0000
  C   C986      1.0  0.66037  0.40233  0.20277  1.0000
  C   C987      1.0  0.65305  0.40953  0.21798  1.0000
  C   C988      1.0  0.65002  0.40945  0.26398  1.0000
  C   C989      1.0  0.65406  0.40191  0.29543  1.0000
  C   C990      1.0  0.66126  0.39455  0.28033  1.0000
  C   C991      1.0  0.66447  0.39480  0.23409  1.0000
  H   H1131     1.0  0.64962  0.41513  0.19412  1.0000
  H   H1132     1.0  0.64449  0.41516  0.27513  1.0000
  H   H1133     1.0  0.66445  0.38873  0.30446  1.0000
  H   H1134     1.0  0.67012  0.38920  0.22277  1.0000
  C   C992      1.0  0.68686  0.40981  0.91274  1.0000
  C   C993      1.0  0.67421  0.40660  0.93055  1.0000
  C   C994      1.0  0.66699  0.41079  0.90316  1.0000
  C   C995      1.0  0.67248  0.41835  0.85823  1.0000
  C   C996      1.0  0.68509  0.42161  0.84103  1.0000
  C   C997      1.0  0.69221  0.41733  0.86796  1.0000
  H   H1135     1.0  0.67003  0.40073  0.96499  1.0000
  H   H1136     1.0  0.65725  0.40818  0.91658  1.0000
  H   H1137     1.0  0.68941  0.42745  0.80650  1.0000
  H   H1138     1.0  0.70194  0.41988  0.85392  1.0000
  C   C998      1.0  0.57973  0.31905  0.78411  1.0000
  C   C999      1.0  0.57960  0.30866  0.81770  1.0000
  C   C1000     1.0  0.58752  0.30955  0.84516  1.0000
  C   C1001     1.0  0.59563  0.32084  0.83876  1.0000
  C   C1002     1.0  0.59590  0.33114  0.80462  1.0000
  C   C1003     1.0  0.58798  0.33025  0.77744  1.0000
  H   H1139     1.0  0.57328  0.29994  0.82275  1.0000
  H   H1140     1.0  0.58732  0.30154  0.87126  1.0000
  H   H1141     1.0  0.60227  0.33986  0.79908  1.0000
  H   H1142     1.0  0.58839  0.33822  0.75079  1.0000
  C   C1004     1.0  0.58495  0.31786  0.11257  1.0000
  C   C1005     1.0  0.57588  0.32105  0.14127  1.0000
  C   C1006     1.0  0.57875  0.33114  0.15829  1.0000
  C   C1007     1.0  0.59076  0.33811  0.14689  1.0000
  C   C1008     1.0  0.59984  0.33495  0.11815  1.0000
  C   C1009     1.0  0.59695  0.32490  0.10095  1.0000
  H   H1143     1.0  0.56658  0.31562  0.15059  1.0000
  H   H1144     1.0  0.57167  0.33346  0.18044  1.0000
  H   H1145     1.0  0.60917  0.34015  0.10971  1.0000
  H   H1146     1.0  0.60404  0.32244  0.07949  1.0000
  C   C1010     1.0  0.64506  0.32560  0.02053  1.0000
  C   C1011     1.0  0.65727  0.33176  0.01260  1.0000
  C   C1012     1.0  0.66054  0.34079  0.03423  1.0000
  C   C1013     1.0  0.65160  0.34365  0.06440  1.0000
  C   C1014     1.0  0.63938  0.33762  0.07173  1.0000
  C   C1015     1.0  0.63611  0.32870  0.04974  1.0000
  H   H1147     1.0  0.66426  0.32946  0.98996  1.0000
  H   H1148     1.0  0.66998  0.34533  0.02836  1.0000
  H   H1149     1.0  0.63239  0.33972  0.09512  1.0000
  H   H1150     1.0  0.62669  0.32402  0.05631  1.0000
  H   H1151     1.0  0.62704  0.38363  0.39591  1.0000
  C   C1016     1.0  0.62389  0.37453  0.41953  1.0000
  H   H1152     1.0  0.57382  0.42957  0.17092  1.0000
  C   C1017     1.0  0.72954  0.38383  0.11252  1.0000
  C   C1018     1.0  0.73114  0.39419  0.12844  1.0000
  H   H1153     1.0  0.56456  0.41096  0.29065  1.0000
  C   C1019     1.0  0.58260  0.45082  0.92064  1.0000
  H   H1154     1.0  0.72367  0.39817  0.13635  1.0000
  H   H1155     1.0  0.61576  0.38216  0.34348  1.0000
  S   S297      1.0  0.60026  0.48270  0.13040  1.0000
  C   C1020     1.0  0.57581  0.46415  0.98796  1.0000
  C   C1021     1.0  0.60059  0.44613  0.88264  1.0000
  H   H1156     1.0  0.58271  0.43384  0.90435  1.0000
  H   H1157     1.0  0.60489  0.43980  0.86921  1.0000
  N   N62       1.0  0.63154  0.35021  0.89110  1.0000
  C   C1022     1.0  0.63014  0.35389  0.84435  1.0000
  C   C1023     1.0  0.63487  0.33838  0.89672  1.0000
  C   C1024     1.0  0.61970  0.34819  0.92430  1.0000
  C   C1025     1.0  0.64063  0.35960  0.89964  1.0000
  C   C1026     1.0  0.64417  0.37217  0.87374  1.0000
  C   C1027     1.0  0.64565  0.35651  0.93650  1.0000
  C   C1028     1.0  0.65290  0.38083  0.88214  1.0000
  C   C1029     1.0  0.65439  0.36522  0.94449  1.0000
  C   C1030     1.0  0.65814  0.37730  0.91691  1.0000
  H   H1158     1.0  0.63900  0.35654  0.81793  1.0000
  H   H1159     1.0  0.62402  0.34632  0.83731  1.0000
  H   H1160     1.0  0.62584  0.36157  0.83927  1.0000
  H   H1161     1.0  0.64433  0.33976  0.87625  1.0000
  H   H1162     1.0  0.62885  0.33162  0.88588  1.0000
  H   H1163     1.0  0.63400  0.33365  0.93275  1.0000
  H   H1164     1.0  0.61246  0.34137  0.91870  1.0000
  H   H1165     1.0  0.62000  0.34476  0.96004  1.0000
  H   H1166     1.0  0.61690  0.35686  0.92118  1.0000
  H   H1167     1.0  0.64028  0.37554  0.84693  1.0000
  H   H1168     1.0  0.64291  0.34735  0.95959  1.0000
  H   H1169     1.0  0.65565  0.39035  0.86149  1.0000
  H   H1170     1.0  0.65831  0.36256  0.97217  1.0000
  H   H1171     1.0  0.66509  0.38392  0.92268  1.0000
  N   N63       1.0  0.58997  0.39753  0.56512  1.0000
  C   C1031     1.0  0.57842  0.39389  0.55366  1.0000
  C   C1032     1.0  0.58701  0.39955  0.61074  1.0000
  C   C1033     1.0  0.59725  0.40934  0.53127  1.0000
  C   C1034     1.0  0.59707  0.38838  0.56480  1.0000
  C   C1035     1.0  0.59309  0.37712  0.55508  1.0000
  C   C1036     1.0  0.60851  0.39073  0.57350  1.0000
  C   C1037     1.0  0.60024  0.36889  0.55379  1.0000
  C   C1038     1.0  0.61561  0.38249  0.57188  1.0000
  C   C1039     1.0  0.61149  0.37158  0.56208  1.0000
  H   H1172     1.0  0.57226  0.38525  0.57879  1.0000
  H   H1173     1.0  0.57336  0.40099  0.55349  1.0000
  H   H1174     1.0  0.58003  0.39254  0.51903  1.0000
  H   H1175     1.0  0.58159  0.39087  0.63719  1.0000
  H   H1176     1.0  0.58172  0.40643  0.61199  1.0000
  H   H1177     1.0  0.59524  0.40287  0.62102  1.0000
  H   H1178     1.0  0.60025  0.40798  0.49716  1.0000
  H   H1179     1.0  0.59204  0.41632  0.52795  1.0000
  H   H1180     1.0  0.60551  0.41345  0.54000  1.0000
  H   H1181     1.0  0.58444  0.37439  0.54879  1.0000
  H   H1182     1.0  0.61204  0.39894  0.58216  1.0000
  H   H1183     1.0  0.59690  0.36025  0.54738  1.0000
  H   H1184     1.0  0.62431  0.38460  0.57878  1.0000
  H   H1185     1.0  0.61694  0.36513  0.56159  1.0000
  C   C1040     1.0  0.60887  0.35531  0.46192  1.0000
  C   C1041     1.0  0.63216  0.37063  0.44125  1.0000
  C   C1042     1.0  0.61721  0.35148  0.48345  1.0000
  C   C1043     1.0  0.62885  0.35911  0.47301  1.0000
  H   H1186     1.0  0.64117  0.37669  0.43341  1.0000
  H   H1187     1.0  0.61460  0.34258  0.50866  1.0000
  H   H1188     1.0  0.63530  0.35617  0.48983  1.0000
  N   N64       1.0  0.62417  0.45111  0.14658  1.0000
  C   C1044     1.0  0.62172  0.44964  0.10348  1.0000
  C   C1045     1.0  0.61322  0.44371  0.18434  1.0000
  C   C1046     1.0  0.62591  0.46425  0.14437  1.0000
  C   C1047     1.0  0.63495  0.44731  0.15482  1.0000
  C   C1048     1.0  0.63794  0.44744  0.19616  1.0000
  C   C1049     1.0  0.64295  0.44378  0.12219  1.0000
  C   C1050     1.0  0.64812  0.44406  0.20469  1.0000
  C   C1051     1.0  0.65316  0.44044  0.13108  1.0000
  C   C1052     1.0  0.65574  0.44060  0.17218  1.0000
  H   H1189     1.0  0.62042  0.43998  0.10235  1.0000
  H   H1190     1.0  0.61329  0.45218  0.09967  1.0000
  H   H1191     1.0  0.62904  0.45579  0.07286  1.0000
  H   H1192     1.0  0.61156  0.43379  0.18683  1.0000
  H   H1193     1.0  0.60497  0.44654  0.17981  1.0000
  H   H1194     1.0  0.61389  0.44469  0.21805  1.0000
  H   H1195     1.0  0.63387  0.47016  0.11560  1.0000
  H   H1196     1.0  0.61786  0.46744  0.13947  1.0000
  H   H1197     1.0  0.62749  0.46613  0.17593  1.0000
  H   H1198     1.0  0.63252  0.45031  0.22227  1.0000
  H   H1199     1.0  0.64160  0.44370  0.08940  1.0000
  H   H1200     1.0  0.65012  0.44424  0.23673  1.0000
  H   H1201     1.0  0.65921  0.43777  0.10597  1.0000
  H   H1202     1.0  0.66364  0.43799  0.17900  1.0000
  H   H1203     1.0  0.53958  0.32365  0.34620  1.0000
  H   H1204     1.0  0.51253  0.33429  0.37337  1.0000
  H   H1205     1.0  0.62868  0.27910  0.06240  1.0000
  H   H1206     1.0  0.73880  0.41629  0.91357  1.0000
  H   H1207     1.0  0.62948  0.27560  0.96939  1.0000
  Fe  Fe150     1.0  0.52795  0.40372  0.91783  1.0000
  C   C1053     1.0  0.65134  0.28182  0.02142  1.0000
  C   C1054     1.0  0.50710  0.42266  0.88101  1.0000
  C   C1055     1.0  0.53089  0.36704  0.86010  1.0000
  H   H1208     1.0  0.72768  0.38144  0.01412  1.0000
  C   C1056     1.0  0.51758  0.32909  0.53396  1.0000
  H   H1209     1.0  0.50500  0.48385  0.99586  1.0000
  C   C1057     1.0  0.51223  0.32682  0.46554  1.0000
  H   H1210     1.0  0.72746  0.41458  0.99283  1.0000
  Fe  Fe151     1.0  0.51644  0.41789  0.97918  1.0000
  N   N65       1.0  0.63791  0.40748  0.05185  1.0000
  C   C1058     1.0  0.63303  0.41626  0.02363  1.0000
  C   C1059     1.0  0.63519  0.40854  0.09904  1.0000
  C   C1060     1.0  0.65130  0.41127  0.03271  1.0000
  C   C1061     1.0  0.63221  0.39479  0.05271  1.0000
  C   C1062     1.0  0.61944  0.38991  0.06960  1.0000
  C   C1063     1.0  0.63897  0.38691  0.03763  1.0000
  C   C1064     1.0  0.61383  0.37791  0.07150  1.0000
  C   C1065     1.0  0.63326  0.37489  0.03990  1.0000
  C   C1066     1.0  0.62072  0.37042  0.05670  1.0000
  H   H1211     1.0  0.62316  0.41490  0.03788  1.0000
  H   H1212     1.0  0.63748  0.42596  0.02035  1.0000
  H   H1213     1.0  0.63443  0.41528  0.98848  1.0000
  H   H1214     1.0  0.62536  0.40708  0.11457  1.0000
  H   H1215     1.0  0.63984  0.41775  0.10030  1.0000
  H   H1216     1.0  0.63829  0.40168  0.12162  1.0000
  H   H1217     1.0  0.65407  0.41093  0.99686  1.0000
  H   H1218     1.0  0.65532  0.42085  0.03218  1.0000
  H   H1219     1.0  0.65565  0.40544  0.05365  1.0000
  H   H1220     1.0  0.61370  0.39532  0.08176  1.0000
  H   H1221     1.0  0.64869  0.38977  0.02399  1.0000
  H   H1222     1.0  0.60408  0.37429  0.08518  1.0000
  H   H1223     1.0  0.63862  0.36896  0.02900  1.0000
  H   H1224     1.0  0.61633  0.36108  0.05873  1.0000
  N   N66       1.0  0.63289  0.36508  0.20019  1.0000
  C   C1067     1.0  0.63142  0.35651  0.24528  1.0000
  C   C1068     1.0  0.62811  0.35767  0.17212  1.0000
  C   C1069     1.0  0.64598  0.37077  0.17737  1.0000
  C   C1070     1.0  0.62678  0.37478  0.20644  1.0000
  C   C1071     1.0  0.63029  0.38254  0.23284  1.0000
  C   C1072     1.0  0.61724  0.37677  0.18726  1.0000
  C   C1073     1.0  0.62456  0.39165  0.23977  1.0000
  C   C1074     1.0  0.61163  0.38596  0.19424  1.0000
  C   C1075     1.0  0.61529  0.39337  0.22041  1.0000
  H   H1225     1.0  0.63554  0.34883  0.24166  1.0000
  H   H1226     1.0  0.63589  0.36108  0.26697  1.0000
  H   H1227     1.0  0.62167  0.35241  0.26421  1.0000
  H   H1228     1.0  0.62937  0.36343  0.13699  1.0000
  H   H1229     1.0  0.61833  0.35277  0.18787  1.0000
  H   H1230     1.0  0.63291  0.35048  0.16804  1.0000
  H   H1231     1.0  0.65057  0.37579  0.19763  1.0000
  H   H1232     1.0  0.65085  0.36376  0.17151  1.0000
  H   H1233     1.0  0.64748  0.37742  0.14359  1.0000
  H   H1234     1.0  0.63754  0.38167  0.24826  1.0000
  H   H1235     1.0  0.61380  0.37121  0.16735  1.0000
  H   H1236     1.0  0.62733  0.39742  0.26029  1.0000
  H   H1237     1.0  0.60416  0.38714  0.18027  1.0000
  H   H1238     1.0  0.61086  0.40041  0.22609  1.0000
  N   N67       1.0  0.57502  0.40179  0.79574  1.0000
  C   C1076     1.0  0.56673  0.40988  0.79498  1.0000
  C   C1077     1.0  0.58745  0.40984  0.78574  1.0000
  C   C1078     1.0  0.56028  0.38874  0.87264  1.0000
  H   H1239     1.0  0.55747  0.40486  0.79671  1.0000
  H   H1240     1.0  0.56610  0.41398  0.82385  1.0000
  H   H1241     1.0  0.56977  0.41756  0.76283  1.0000
  H   H1242     1.0  0.58847  0.41361  0.81457  1.0000
  H   H1243     1.0  0.58978  0.41777  0.75463  1.0000
  H   H1244     1.0  0.59462  0.40508  0.77840  1.0000
  H   H1245     1.0  0.55340  0.39341  0.86823  1.0000
  H   H1246     1.0  0.54836  0.37646  0.93654  1.0000
  H   H1247     1.0  0.75015  0.33537  0.24514  1.0000
  H   H1248     1.0  0.57696  0.40281  0.72488  1.0000
  H   H1249     1.0  0.66288  0.42044  0.73230  1.0000
  C   C1079     1.0  0.74231  0.39916  0.13595  1.0000
  H   H1250     1.0  0.74159  0.41182  0.03106  1.0000
  H   H1251     1.0  0.60119  0.38505  0.35283  1.0000
  H   H1252     1.0  0.57289  0.44782  0.93496  1.0000
  C   C1080     1.0  0.52944  0.37797  0.86974  1.0000
  H   H1253     1.0  0.71549  0.40266  0.99154  1.0000
  C   C1081     1.0  0.72321  0.34892  0.20400  1.0000
  Fe  Fe152     1.0  0.58359  0.48901  0.12262  1.0000
  C   C1082     1.0  0.55727  0.37898  0.91244  1.0000
  H   H1254     1.0  0.59986  0.34920  0.47201  1.0000
  C   C1083     1.0  0.61201  0.36692  0.42884  1.0000
  C   C1084     1.0  0.57462  0.39591  0.75875  1.0000
  H   H1255     1.0  0.58060  0.47934  0.87676  1.0000
  H   H1256     1.0  0.56808  0.46678  0.91354  1.0000
  H   H1257     1.0  0.56547  0.38972  0.76498  1.0000
  H   H1258     1.0  0.57992  0.43293  0.21606  1.0000
  C   C1085     1.0  0.57535  0.47466  0.91304  1.0000
  H   H1259     1.0  0.57074  0.48113  0.92625  1.0000
  H   H1260     1.0  0.56374  0.44207  0.24578  1.0000
  H   H1261     1.0  0.58112  0.39020  0.75591  1.0000
  H   H1262     1.0  0.61108  0.39054  0.38325  1.0000
  H   H1263     1.0  0.57580  0.40819  0.03308  1.0000
  C   C1086     1.0  0.60755  0.45754  0.88096  1.0000
  H   H1264     1.0  0.60446  0.35949  0.36255  1.0000
  C   C1087     1.0  0.55792  0.43585  0.23226  1.0000
  H   H1265     1.0  0.54836  0.43465  0.25115  1.0000
  H   H1266     1.0  0.55949  0.44099  0.19602  1.0000
  C   C1088     1.0  0.58945  0.46237  0.92076  1.0000
  H   H1267     1.0  0.56618  0.42585  0.29695  1.0000
  H   H1268     1.0  0.57512  0.39485  0.07629  1.0000
  H   H1269     1.0  0.55837  0.32533  0.84489  1.0000
  C   C1089     1.0  0.52464  0.33029  0.44009  1.0000
  C   C1090     1.0  0.56556  0.37237  0.92090  1.0000
  C   C1091     1.0  0.57979  0.38490  0.84898  1.0000
  N   N68       1.0  0.60293  0.37093  0.40743  1.0000
  C   C1092     1.0  0.59743  0.36153  0.38762  1.0000
  H   H1270     1.0  0.57650  0.34211  0.84098  1.0000
  H   H1271     1.0  0.55122  0.41602  0.30809  1.0000
  C   C1093     1.0  0.50660  0.42237  0.80505  1.0000
  C   C1094     1.0  0.60803  0.38267  0.37013  1.0000
  C   C1095     1.0  0.63812  0.28045  0.97387  1.0000
  H   H1272     1.0  0.59211  0.35276  0.41381  1.0000
  H   H1273     1.0  0.56832  0.45639  0.98980  1.0000
  H   H1274     1.0  0.58836  0.38649  0.82463  1.0000
  H   H1275     1.0  0.56321  0.36484  0.95181  1.0000
  N   N69       1.0  0.58333  0.47068  0.94050  1.0000
  N   N70       1.0  0.56086  0.42386  0.23681  1.0000
  C   C1096     1.0  0.56063  0.41891  0.28516  1.0000
  C   C1097     1.0  0.57330  0.42614  0.20756  1.0000
  C   C1098     1.0  0.57684  0.37536  0.88922  1.0000
  C   C1099     1.0  0.63048  0.27062  0.05492  1.0000
  C   C1100     1.0  0.58069  0.36199  0.07064  1.0000
  C   C1101     1.0  0.55254  0.41500  0.22292  1.0000
  H   H1276     1.0  0.55880  0.39912  0.24993  1.0000
  C   C1102     1.0  0.55265  0.40247  0.23254  1.0000
  H   H1277     1.0  0.71855  0.38452  0.97635  1.0000
  C   C1103     1.0  0.53556  0.34429  0.36551  1.0000
  C   C1104     1.0  0.60215  0.46554  0.90009  1.0000
  H   H1278     1.0  0.58332  0.37020  0.89534  1.0000
  H   H1279     1.0  0.51476  0.41881  0.79908  1.0000
  H   H1280     1.0  0.64502  0.43424  0.71725  1.0000
  C   C1105     1.0  0.54475  0.41864  0.19682  1.0000
  H   H1281     1.0  0.54435  0.42804  0.18616  1.0000
  N   N71       1.0  0.64098  0.27353  0.01422  1.0000
  H   H1282     1.0  0.61727  0.46004  0.86598  1.0000
  H   H1283     1.0  0.72563  0.40512  0.91453  1.0000
  S   S298      1.0  0.52465  0.41057  0.03475  1.0000
  H   H1284     1.0  0.65365  0.27747  0.05259  1.0000
  H   H1285     1.0  0.60816  0.47404  0.89891  1.0000
  C   C1106     1.0  0.53723  0.41015  0.18306  1.0000
  H   H1286     1.0  0.54524  0.32607  0.39218  1.0000
  C   C1107     1.0  0.59330  0.37264  0.44281  1.0000
  C   C1108     1.0  0.54603  0.34423  0.92927  1.0000
  H   H1287     1.0  0.57131  0.47020  0.00441  1.0000
  H   H1288     1.0  0.53141  0.41317  0.16302  1.0000
  H   H1289     1.0  0.59724  0.48778  0.90721  1.0000
  H   H1290     1.0  0.59707  0.37970  0.45834  1.0000
  H   H1291     1.0  0.58853  0.36404  0.47078  1.0000
  C   C1109     1.0  0.57067  0.34423  0.86969  1.0000
  C   C1110     1.0  0.72798  0.38660  0.97913  1.0000
  C   C1111     1.0  0.50882  0.32622  0.51183  1.0000
  C   C1112     1.0  0.51861  0.32814  0.37069  1.0000
  C   C1113     1.0  0.59183  0.48186  0.94198  1.0000
  C   C1114     1.0  0.54497  0.39402  0.21910  1.0000
  C   C1115     1.0  0.53722  0.39785  0.19467  1.0000
  H   H1292     1.0  0.58628  0.37576  0.42844  1.0000
  C   C1116     1.0  0.66602  0.43699  0.55475  1.0000
  H   H1293     1.0  0.58697  0.48767  0.95860  1.0000
  C   C1117     1.0  0.66116  0.43865  0.63303  1.0000
  H   H1294     1.0  0.54506  0.38445  0.22739  1.0000
  H   H1295     1.0  0.58137  0.46048  0.00937  1.0000
  H   H1296     1.0  0.57633  0.41765  0.21159  1.0000
  C   C1118     1.0  0.74291  0.35626  0.21694  1.0000
  H   H1297     1.0  0.74027  0.40266  0.89774  1.0000
  S   S299      1.0  0.60313  0.26191  0.00580  1.0000
  C   C1119     1.0  0.72439  0.40448  0.99902  1.0000
  C   C1120     1.0  0.73458  0.40626  0.92189  1.0000
  H   H1298     1.0  0.72266  0.39983  0.03596  1.0000
  N   N72       1.0  0.52869  0.33143  0.39076  1.0000
  H   H1299     1.0  0.53703  0.38466  0.09029  1.0000
  N   N73       1.0  0.73325  0.39996  0.97020  1.0000
  N   N74       1.0  0.66325  0.43610  0.67869  1.0000
  H   H1300     1.0  0.59812  0.47942  0.96214  1.0000
  H   H1301     1.0  0.52204  0.32918  0.33348  1.0000
  H   H1302     1.0  0.54656  0.37674  0.15110  1.0000
  H   H1303     1.0  0.71701  0.34214  0.19549  1.0000
  H   H1304     1.0  0.54831  0.33316  0.05253  1.0000
  H   H1305     1.0  0.56691  0.35170  0.85440  1.0000
  H   H1306     1.0  0.55671  0.50075  0.12720  1.0000
  H   H1307     1.0  0.50993  0.43254  0.79267  1.0000
  C   C1121     1.0  0.75217  0.39404  0.12701  1.0000
  H   H1308     1.0  0.59002  0.40382  0.95164  1.0000
  H   H1309     1.0  0.57752  0.35544  0.10439  1.0000
  H   H1310     1.0  0.74330  0.40701  0.14915  1.0000
  C   C1122     1.0  0.65231  0.44462  0.62225  1.0000
  H   H1311     1.0  0.66954  0.41989  0.67651  1.0000
  H   H1312     1.0  0.65345  0.41711  0.69637  1.0000
  H   H1313     1.0  0.50945  0.46671  0.05282  1.0000
  C   C1123     1.0  0.56684  0.32345  0.91493  1.0000
  C   C1124     1.0  0.67556  0.44323  0.67519  1.0000
  C   C1125     1.0  0.56211  0.38807  0.02209  1.0000
  H   H1314     1.0  0.65523  0.44370  0.51290  1.0000
  H   H1315     1.0  0.54984  0.33590  0.85317  1.0000
  C   C1126     1.0  0.53290  0.38889  0.83432  1.0000
  H   H1316     1.0  0.51456  0.34676  0.21607  1.0000
  C   C1127     1.0  0.54769  0.33625  0.01799  1.0000
  C   C1128     1.0  0.53229  0.37628  0.11733  1.0000
  C   C1129     1.0  0.74525  0.40214  0.97905  1.0000
  H   H1317     1.0  0.59245  0.35194  0.04320  1.0000
  H   H1318     1.0  0.72566  0.37669  0.22352  1.0000
  C   C1130     1.0  0.55329  0.32867  0.87190  1.0000
  C   C1131     1.0  0.52979  0.33248  0.51003  1.0000
  H   H1319     1.0  0.65522  0.44935  0.70324  1.0000
  S   S300      1.0  0.53399  0.42268  0.92401  1.0000
  H   H1320     1.0  0.53211  0.31363  0.40315  1.0000
  H   H1321     1.0  0.53451  0.34599  0.03641  1.0000
  H   H1322     1.0  0.67515  0.43073  0.60288  1.0000
  H   H1323     1.0  0.57618  0.40795  0.95716  1.0000
  H   H1324     1.0  0.56034  0.32718  0.99242  1.0000
  C   C1132     1.0  0.65712  0.44263  0.54564  1.0000
  H   H1325     1.0  0.54527  0.34781  0.89532  1.0000
  C   C1133     1.0  0.58035  0.38116  0.01835  1.0000
  H   H1326     1.0  0.60007  0.36706  0.96631  1.0000
  C   C1134     1.0  0.66813  0.43513  0.59758  1.0000
  C   C1135     1.0  0.58003  0.39991  0.96213  1.0000
  C   C1136     1.0  0.53993  0.34349  0.00899  1.0000
  H   H1327     1.0  0.53310  0.35315  0.95786  1.0000
  H   H1328     1.0  0.73840  0.37083  0.09056  1.0000
  C   C1137     1.0  0.73945  0.37882  0.10292  1.0000
  H   H1329     1.0  0.56007  0.31506  0.93932  1.0000
  C   C1138     1.0  0.65041  0.44658  0.57908  1.0000
  C   C1139     1.0  0.53914  0.34749  0.96471  1.0000
  H   H1330     1.0  0.59289  0.38518  0.94990  1.0000
  H   H1331     1.0  0.57755  0.39480  0.93826  1.0000
  H   H1332     1.0  0.57150  0.32058  0.88587  1.0000
  C   C1140     1.0  0.53672  0.32334  0.38285  1.0000
  H   H1333     1.0  0.57666  0.34792  0.88899  1.0000
  C   C1141     1.0  0.73449  0.34730  0.20715  1.0000
  N   N75       1.0  0.56099  0.33320  0.89944  1.0000
  H   H1334     1.0  0.63709  0.28957  0.97681  1.0000
  H   H1335     1.0  0.50535  0.40127  0.86356  1.0000
  C   C1142     1.0  0.55454  0.33282  0.98291  1.0000
  C   C1143     1.0  0.58912  0.37897  0.98402  1.0000
  H   H1336     1.0  0.66178  0.26493  0.01473  1.0000
  H   H1337     1.0  0.71140  0.36080  0.20665  1.0000
  C   C1144     1.0  0.75069  0.38396  0.10949  1.0000
  H   H1338     1.0  0.55821  0.39602  0.01464  1.0000
  H   H1339     1.0  0.67675  0.45325  0.66126  1.0000
  Fe  Fe153     1.0  0.51987  0.39248  0.02048  1.0000
  C   C1145     1.0  0.57636  0.37239  0.06205  1.0000
  H   H1340     1.0  0.54534  0.32096  0.89370  1.0000
  H   H1341     1.0  0.52539  0.37787  0.90436  1.0000
  H   H1342     1.0  0.56986  0.37350  0.09007  1.0000
  C   C1146     1.0  0.58914  0.36003  0.03619  1.0000
  C   C1147     1.0  0.57902  0.39973  0.03930  1.0000
  C   C1148     1.0  0.59338  0.36853  0.99304  1.0000
  H   H1343     1.0  0.58904  0.40272  0.03208  1.0000
  N   N76       1.0  0.57552  0.39203  0.01021  1.0000
  H   H1344     1.0  0.55902  0.38178  0.00267  1.0000
  H   H1345     1.0  0.57400  0.32660  0.93081  1.0000
  H   H1346     1.0  0.55784  0.38326  0.05892  1.0000
  H   H1347     1.0  0.64923  0.29047  0.02615  1.0000
  C   C1149     1.0  0.66224  0.42283  0.69661  1.0000
  H   H1348     1.0  0.67736  0.44164  0.70921  1.0000
  H   H1349     1.0  0.68273  0.44070  0.65249  1.0000
  H   H1350     1.0  0.64645  0.44753  0.64684  1.0000
  H   H1351     1.0  0.65611  0.43707  0.74710  1.0000
  C   C1150     1.0  0.65450  0.43935  0.71289  1.0000
  S   S301      1.0  0.53125  0.40278  0.84511  1.0000
  H   H1352     1.0  0.64335  0.45077  0.57199  1.0000
  H   H1353     1.0  0.52778  0.35852  0.88724  1.0000
  C   C1151     1.0  0.51447  0.35920  0.15403  1.0000
  C   C1152     1.0  0.55374  0.33653  0.93746  1.0000
  C   C1153     1.0  0.73937  0.36689  0.22282  1.0000
  H   H1354     1.0  0.67113  0.43385  0.52862  1.0000
  H   H1355     1.0  0.64540  0.28208  0.94196  1.0000
  H   H1356     1.0  0.59666  0.26028  0.92095  1.0000
  H   H1357     1.0  0.65948  0.28468  0.99141  1.0000
  H   H1358     1.0  0.73645  0.33906  0.20095  1.0000
  H   H1359     1.0  0.51321  0.31843  0.38721  1.0000
  H   H1360     1.0  0.51537  0.41930  0.87759  1.0000
  S   S302      1.0  0.50988  0.39919  0.96988  1.0000
  C   C1154     1.0  0.53328  0.33301  0.46394  1.0000
  C   C1155     1.0  0.71999  0.35940  0.21053  1.0000
  H   H1361     1.0  0.53839  0.34564  0.32802  1.0000
  H   H1362     1.0  0.73320  0.38268  0.95486  1.0000
  H   H1363     1.0  0.62197  0.26549  0.05043  1.0000
  C   C1156     1.0  0.72803  0.36834  0.22011  1.0000
  H   H1364     1.0  0.75310  0.39313  0.93061  1.0000
  H   H1365     1.0  0.50499  0.32457  0.45051  1.0000
  H   H1366     1.0  0.63202  0.26494  0.08569  1.0000
  H   H1367     1.0  0.53002  0.35076  0.37175  1.0000
  H   H1368     1.0  0.54395  0.34716  0.37548  1.0000
  S   S303      1.0  0.51323  0.37457  0.07670  1.0000
  H   H1369     1.0  0.75020  0.35083  0.29186  1.0000
  H   H1370     1.0  0.74550  0.37442  0.22787  1.0000
  H   H1371     1.0  0.74649  0.26488  0.01370  1.0000
  S   S304      1.0  0.50886  0.43467  0.97580  1.0000
  H   H1372     1.0  0.51492  0.32872  0.56972  1.0000
  H   H1373     1.0  0.50759  0.48408  0.07261  1.0000
  H   H1374     1.0  0.50551  0.35422  0.15531  1.0000
  H   H1375     1.0  0.51029  0.43283  0.87068  1.0000
  C   C1157     1.0  0.74808  0.40841  0.01086  1.0000
  S   S305      1.0  0.58330  0.50879  0.11662  1.0000
  H   H1376     1.0  0.52168  0.54230  0.23869  1.0000
  H   H1377     1.0  0.51427  0.56482  0.94798  1.0000
  C   C1158     1.0  0.57528  0.52927  0.10391  1.0000
  S   S306      1.0  0.51850  0.55402  0.14026  1.0000
  H   H1378     1.0  0.56981  0.54598  0.09488  1.0000
  H   H1379     1.0  0.53048  0.55154  0.28794  1.0000
  S   S307      1.0  0.51450  0.53892  0.06565  1.0000
  C   C1159     1.0  0.52892  0.53745  0.23460  1.0000
  Fe  Fe154     1.0  0.52460  0.53841  0.11899  1.0000
  S   S308      1.0  0.54472  0.54014  0.10693  1.0000
  S   S309      1.0  0.50987  0.52374  0.17463  1.0000
  N   N77       1.0  0.54052  0.54478  0.23719  1.0000
  H   H1380     1.0  0.54610  0.55371  0.28538  1.0000
  C   C1160     1.0  0.50840  0.57198  0.27755  1.0000
  C   C1161     1.0  0.55091  0.51757  0.11831  1.0000
  C   C1162     1.0  0.53816  0.54729  0.28212  1.0000
  C   C1163     1.0  0.55829  0.52125  0.21936  1.0000
  C   C1164     1.0  0.55460  0.53042  0.10919  1.0000
  H   H1381     1.0  0.51609  0.57986  0.25989  1.0000
  C   C1165     1.0  0.56682  0.53613  0.10189  1.0000
  C   C1166     1.0  0.56971  0.52739  0.21965  1.0000
  H   H1382     1.0  0.53671  0.56120  0.20189  1.0000
  H   H1383     1.0  0.58466  0.53394  0.09853  1.0000
  C   C1167     1.0  0.55035  0.53857  0.23180  1.0000
  C   C1168     1.0  0.54414  0.55658  0.20061  1.0000
  H   H1384     1.0  0.51316  0.56171  0.23017  1.0000
  H   H1385     1.0  0.55208  0.56321  0.20278  1.0000
  H   H1386     1.0  0.54658  0.55510  0.16627  1.0000
  H   H1387     1.0  0.52540  0.52855  0.26196  1.0000
  H   H1388     1.0  0.53003  0.53562  0.20088  1.0000
  H   H1389     1.0  0.50568  0.57876  0.90052  1.0000
  H   H1390     1.0  0.55696  0.51235  0.21302  1.0000
  C   C1169     1.0  0.57180  0.51651  0.11298  1.0000
  H   H1391     1.0  0.53582  0.53865  0.31039  1.0000
  H   H1392     1.0  0.54028  0.52159  0.22252  1.0000
  C   C1170     1.0  0.57160  0.53896  0.22656  1.0000
  C   C1171     1.0  0.55954  0.51061  0.12000  1.0000
  H   H1393     1.0  0.56401  0.55349  0.23764  1.0000
  H   H1394     1.0  0.50449  0.51872  0.03197  1.0000
  Fe  Fe155     1.0  0.50700  0.55303  0.09218  1.0000
  H   H1395     1.0  0.58054  0.54373  0.22639  1.0000
  H   H1396     1.0  0.50906  0.54268  0.95425  1.0000
  C   C1172     1.0  0.56207  0.54447  0.23279  1.0000
  C   C1173     1.0  0.50840  0.56126  0.92918  1.0000
  C   C1174     1.0  0.50676  0.56171  0.26075  1.0000
  C   C1175     1.0  0.50539  0.54878  0.93287  1.0000
  C   C1176     1.0  0.54873  0.52672  0.22502  1.0000
  H   H1397     1.0  0.54150  0.51303  0.12401  1.0000
  H   H1398     1.0  0.57715  0.52323  0.21359  1.0000
  Fe  Fe156     1.0  0.51433  0.91969  0.07497  1.0000
  S   S310      1.0  0.52560  0.93374  0.00971  1.0000
  H   H1399     1.0  0.51413  0.88981  0.27549  1.0000
  Fe  Fe157     1.0  0.53487  0.90875  0.08739  1.0000
  S   S311      1.0  0.54790  0.92251  0.02318  1.0000
  S   S312      1.0  0.53780  0.89095  0.12426  1.0000
  Fe  Fe158     1.0  0.53976  0.93686  0.04756  1.0000
  S   S313      1.0  0.54624  0.95735  0.04625  1.0000
  Fe  Fe159     1.0  0.53243  0.91819  0.99240  1.0000
  S   S314      1.0  0.53482  0.91396  0.92360  1.0000
  S   S315      1.0  0.52781  0.92309  0.11393  1.0000
  S   S316      1.0  0.52011  0.90409  0.05529  1.0000
  H   H1400     1.0  0.59581  0.00684  0.92688  1.0000
  H   H1401     1.0  0.57342  0.88012  0.86998  1.0000
  N   N78       1.0  0.54570  0.88278  0.99705  1.0000
  C   C1177     1.0  0.52866  0.00138  0.14007  1.0000
  H   H1402     1.0  0.52695  0.87226  0.02048  1.0000
  C   C1178     1.0  0.51640  0.88446  0.25245  1.0000
  H   H1403     1.0  0.52955  0.88850  0.99315  1.0000
  H   H1404     1.0  0.51077  0.95006  0.01735  1.0000
  S   S317      1.0  0.58479  0.99638  0.09800  1.0000
  C   C1179     1.0  0.52248  0.00377  0.28054  1.0000
  C   C1180     1.0  0.53986  1.00000  0.14496  1.0000
  S   S318      1.0  0.51352  0.87729  0.81792  1.0000
  C   C1181     1.0  0.55689  0.96784  0.06249  1.0000
  C   C1182     1.0  0.56696  0.96501  0.07476  1.0000
  C   C1183     1.0  0.57529  0.97377  0.08563  1.0000
  C   C1184     1.0  0.57368  0.98550  0.08525  1.0000
  C   C1185     1.0  0.56353  0.98828  0.07355  1.0000
  C   C1186     1.0  0.55532  0.97960  0.06191  1.0000
  H   H1405     1.0  0.56844  0.95609  0.07540  1.0000
  H   H1406     1.0  0.58305  0.97141  0.09456  1.0000
  H   H1407     1.0  0.56199  0.99713  0.07350  1.0000
  H   H1408     1.0  0.54760  0.98202  0.05278  1.0000
  C   C1187     1.0  0.52796  0.90313  0.89822  1.0000
  C   C1188     1.0  0.53262  0.88162  0.01569  1.0000
  H   H1409     1.0  0.54458  0.86433  0.03370  1.0000
  C   C1189     1.0  0.56405  0.87929  0.88670  1.0000
  C   C1190     1.0  0.51244  0.88556  0.89688  1.0000
  C   C1191     1.0  0.55242  0.89541  0.99319  1.0000
  C   C1192     1.0  0.54317  0.87537  0.88626  1.0000
  H   H1410     1.0  0.52771  0.90028  0.19742  1.0000
  H   H1411     1.0  0.53420  0.89722  0.79518  1.0000
  C   C1193     1.0  0.54691  0.00830  0.16120  1.0000
  C   C1194     1.0  0.51778  0.96865  0.05867  1.0000
  H   H1412     1.0  0.55032  0.90233  0.96725  1.0000
  C   C1195     1.0  0.52745  0.88358  0.17872  1.0000
  H   H1413     1.0  0.51285  0.91265  0.82523  1.0000
  C   C1196     1.0  0.54874  0.88043  0.95202  1.0000
  H   H1414     1.0  0.52496  0.97258  0.07322  1.0000
  C   C1197     1.0  0.52280  0.87075  0.19338  1.0000
  H   H1415     1.0  0.54232  0.91125  0.83563  1.0000
  H   H1416     1.0  0.52664  0.81391  0.68642  1.0000
  H   H1417     1.0  0.51223  0.89293  0.95483  1.0000
  H   H1418     1.0  0.52545  0.86540  0.17081  1.0000
  C   C1198     1.0  0.53993  0.87736  0.92906  1.0000
  H   H1419     1.0  0.51577  0.84241  0.67805  1.0000
  H   H1420     1.0  0.53047  0.87661  0.94300  1.0000
  H   H1421     1.0  0.53063  0.88328  0.04979  1.0000
  S   S319      1.0  0.52059  0.99221  0.11387  1.0000
  H   H1422     1.0  0.58057  0.00058  0.96011  1.0000
  H   H1423     1.0  0.52071  0.81473  0.74340  1.0000
  H   H1424     1.0  0.56238  0.89686  0.98330  1.0000
  N   N79       1.0  0.50834  0.95817  0.09337  1.0000
  H   H1425     1.0  0.54664  0.87530  0.06540  1.0000
  C   C1199     1.0  0.51173  0.87165  0.26726  1.0000
  H   H1426     1.0  0.56809  0.88360  0.94482  1.0000
  H   H1427     1.0  0.55766  0.87498  0.83163  1.0000
  C   C1200     1.0  0.51478  0.86479  0.23736  1.0000
  H   H1428     1.0  0.55907  0.87504  0.02173  1.0000
  H   H1429     1.0  0.51438  0.83657  0.53863  1.0000
  H   H1430     1.0  0.51143  0.96592  0.14733  1.0000
  C   C1201     1.0  0.52934  0.89612  0.83009  1.0000
  C   C1202     1.0  0.56090  0.88127  0.92955  1.0000
  H   H1431     1.0  0.53631  0.87322  0.86911  1.0000
  C   C1203     1.0  0.51857  0.88677  0.85134  1.0000
  H   H1432     1.0  0.51861  0.84004  0.60719  1.0000
  C   C1204     1.0  0.53396  0.90413  0.85315  1.0000
  H   H1433     1.0  0.54326  0.99277  0.13486  1.0000
  H   H1434     1.0  0.55573  0.00742  0.16364  1.0000
  C   C1205     1.0  0.54916  0.87397  0.03076  1.0000
  H   H1435     1.0  0.51860  0.94542  0.07930  1.0000
  H   H1436     1.0  0.55007  0.89759  0.02624  1.0000
  H   H1437     1.0  0.52263  0.96596  0.02950  1.0000
  H   H1438     1.0  0.52122  0.95135  0.12439  1.0000
  C   C1206     1.0  0.51709  0.89377  0.92021  1.0000
  H   H1439     1.0  0.51384  0.97615  0.04522  1.0000
  C   C1207     1.0  0.52407  0.89042  0.20818  1.0000
  C   C1208     1.0  0.55520  0.87638  0.86506  1.0000
  H   H1440     1.0  0.52900  0.83689  0.66279  1.0000
  H   H1441     1.0  0.52711  0.99673  0.27686  1.0000
  C   C1209     1.0  0.51405  0.94830  0.10833  1.0000
  C   C1210     1.0  0.51078  0.00237  0.27587  1.0000
  C   C1211     1.0  0.52012  0.83497  0.68850  1.0000
  H   H1442     1.0  0.51128  0.85491  0.24858  1.0000
  H   H1443     1.0  0.52208  0.83574  0.72097  1.0000
  C   C1212     1.0  0.51822  0.81340  0.71229  1.0000
  Fe  Fe160     1.0  0.50869  0.00236  0.08408  1.0000
  H   H1444     1.0  0.51231  0.80388  0.72277  1.0000
  C   C1213     1.0  0.50977  0.82113  0.65113  1.0000
  C   C1214     1.0  0.51383  0.83084  0.60963  1.0000
  N   N80       1.0  0.51219  0.82268  0.69409  1.0000
  H   H1445     1.0  0.56406  0.00536  0.99118  1.0000
  H   H1446     1.0  0.50732  0.92344  0.88263  1.0000
  C   C1215     1.0  0.51144  0.82899  0.56968  1.0000
  H   H1447     1.0  0.50722  0.94000  0.13303  1.0000
  H   H1448     1.0  0.50668  0.99408  0.26886  1.0000
  S   S320      1.0  0.50614  0.84782  0.77297  1.0000
  C   C1216     1.0  0.50488  0.81757  0.56982  1.0000
  C   C1217     1.0  0.58677  0.00873  0.93247  1.0000
  H   H1449     1.0  0.58390  0.00894  0.90090  1.0000
  H   H1450     1.0  0.77034  0.25447  0.98448  1.0000
  C   C1218     1.0  0.76430  0.24326  0.94499  1.0000
  S   S321      1.0  0.76102  0.25705  0.07622  1.0000
  C   C1219     1.0  0.77121  0.25387  0.95015  1.0000
  H   H1451     1.0  0.75833  0.23606  0.97483  1.0000
  C   C1220     1.0  0.77246  0.25126  0.86331  1.0000
  H   H1452     1.0  0.75942  0.23375  0.89789  1.0000
  H   H1453     1.0  0.77288  0.25019  0.82964  1.0000
  C   C1221     1.0  0.76489  0.24196  0.90166  1.0000
  Fe  Fe161     1.0  0.80936  0.39854  0.07090  1.0000
  S   S322      1.0  0.80292  0.41129  0.10923  1.0000
  S   S323      1.0  0.82320  0.40065  0.00471  1.0000
  Fe  Fe162     1.0  0.79642  0.37588  0.15181  1.0000
  S   S324      1.0  0.78911  0.38679  0.19642  1.0000
  S   S325      1.0  0.79497  0.35575  0.17956  1.0000
  Fe  Fe163     1.0  0.78471  0.39670  0.13349  1.0000
  Fe  Fe164     1.0  0.80773  0.40032  0.16936  1.0000
  S   S326      1.0  0.82080  0.40427  0.21307  1.0000
  S   S327      1.0  0.79112  0.38488  0.09099  1.0000
  S   S328      1.0  0.81497  0.38852  0.12871  1.0000
  H   H1454     1.0  0.95805  0.44895  0.93974  1.0000
  H   H1455     1.0  0.88795  0.47589  0.53141  1.0000
  S   S329      1.0  0.79537  0.30753  0.06648  1.0000
  H   H1456     1.0  0.96492  0.37729  0.05636  1.0000
  Fe  Fe165     1.0  0.77521  0.30157  0.09049  1.0000
  S   S330      1.0  0.76657  0.31654  0.10317  1.0000
  H   H1457     1.0  0.88446  0.48001  0.71996  1.0000
  C   C1222     1.0  0.88651  0.32690  0.38041  1.0000
  Fe  Fe166     1.0  0.87415  0.33479  0.27489  1.0000
  S   S331      1.0  0.85836  0.31994  0.32648  1.0000
  S   S332      1.0  0.89168  0.33016  0.24940  1.0000
  Fe  Fe167     1.0  0.86133  0.35426  0.28368  1.0000
  S   S333      1.0  0.84496  0.34100  0.33544  1.0000
  S   S334      1.0  0.86117  0.37395  0.26280  1.0000
  Fe  Fe168     1.0  0.85816  0.33353  0.36822  1.0000
  S   S335      1.0  0.85514  0.32884  0.44659  1.0000
  Fe  Fe169     1.0  0.84674  0.32900  0.28813  1.0000
  S   S336      1.0  0.82961  0.32334  0.26477  1.0000
  S   S337      1.0  0.87450  0.34763  0.31816  1.0000
  S   S338      1.0  0.86271  0.34299  0.23480  1.0000
  Fe  Fe170     1.0  0.86444  0.36024  0.73437  1.0000
  S   S339      1.0  0.88242  0.36605  0.68213  1.0000
  S   S340      1.0  0.85530  0.37482  0.74669  1.0000
  Fe  Fe171     1.0  0.86562  0.33421  0.76567  1.0000
  S   S341      1.0  0.88422  0.33836  0.71646  1.0000
  S   S342      1.0  0.85613  0.31601  0.81959  1.0000
  Fe  Fe172     1.0  0.88859  0.35564  0.73879  1.0000
  S   S343      1.0  0.90616  0.36598  0.75024  1.0000
  Fe  Fe173     1.0  0.87624  0.34842  0.66449  1.0000
  S   S344      1.0  0.88033  0.34945  0.58737  1.0000
  S   S345      1.0  0.87061  0.35040  0.79130  1.0000
  S   S346      1.0  0.85755  0.34354  0.71332  1.0000
  Fe  Fe174     1.0  0.87365  0.41612  0.39992  1.0000
  S   S347      1.0  0.85909  0.42484  0.42294  1.0000
  S   S348      1.0  0.86987  0.39563  0.42209  1.0000
  Fe  Fe175     1.0  0.89193  0.44048  0.34550  1.0000
  S   S349      1.0  0.87838  0.45104  0.36388  1.0000
  S   S350      1.0  0.91128  0.44541  0.30077  1.0000
  Fe  Fe176     1.0  0.87388  0.43832  0.43617  1.0000
  S   S351      1.0  0.87007  0.44182  0.50751  1.0000
  Fe  Fe177     1.0  0.86491  0.43629  0.34929  1.0000
  S   S352      1.0  0.85197  0.43903  0.30408  1.0000
  S   S353      1.0  0.88794  0.42850  0.41753  1.0000
  S   S354      1.0  0.87899  0.42697  0.32654  1.0000
  Fe  Fe178     1.0  0.87616  0.44577  0.82293  1.0000
  S   S355      1.0  0.89271  0.46067  0.77760  1.0000
  S   S356      1.0  0.85879  0.44913  0.85840  1.0000
  Fe  Fe179     1.0  0.88854  0.42592  0.81581  1.0000
  S   S357      1.0  0.90606  0.43899  0.77055  1.0000
  S   S358      1.0  0.88719  0.40595  0.83911  1.0000
  Fe  Fe180     1.0  0.90322  0.45066  0.81875  1.0000
  S   S359      1.0  0.91489  0.45618  0.86521  1.0000
  Fe  Fe181     1.0  0.89405  0.44766  0.73335  1.0000
  S   S360      1.0  0.89842  0.45216  0.65472  1.0000
  S   S361      1.0  0.88631  0.43662  0.86590  1.0000
  S   S362      1.0  0.87681  0.43367  0.77659  1.0000
  Fe  Fe182     1.0  0.98210  0.49524  0.04020  1.0000
  S   S363      1.0  0.97028  0.48305  0.10892  1.0000
  Fe  Fe183     1.0  0.96201  0.48680  0.99318  1.0000
  S   S364      1.0  0.94898  0.47492  0.05979  1.0000
  S   S365      1.0  0.95823  0.48625  0.92459  1.0000
  Fe  Fe184     1.0  0.95529  0.49006  0.08883  1.0000
  S   S366      1.0  0.94145  0.49395  0.14202  1.0000
  Fe  Fe185     1.0  0.96504  0.46903  0.07379  1.0000
  S   S367      1.0  0.96373  0.44918  0.10286  1.0000
  C   C1223     1.0  0.98838  0.45995  0.93011  1.0000
  S   S368      1.0  0.97796  0.48022  0.00654  1.0000
  Fe  Fe186     1.0  0.93674  0.40336  0.01209  1.0000
  S   S369      1.0  0.94980  0.40936  0.94211  1.0000
  S   S370      1.0  0.92620  0.41565  0.03733  1.0000
  Fe  Fe187     1.0  0.94238  0.37935  0.03780  1.0000
  S   S371      1.0  0.95604  0.38338  0.96951  1.0000
  S   S372      1.0  0.94004  0.36269  0.09580  1.0000
  Fe  Fe188     1.0  0.94184  0.39006  0.94012  1.0000
  S   S373      1.0  0.93765  0.38659  0.87470  1.0000
  S   S374      1.0  0.95007  0.39758  0.04733  1.0000
  S   S375      1.0  0.92790  0.38475  0.00843  1.0000
  C   C1224     1.0  0.95266  0.43997  0.08672  1.0000
  C   C1225     1.0  0.94899  0.42728  0.10685  1.0000
  C   C1226     1.0  0.94062  0.41981  0.09241  1.0000
  C   C1227     1.0  0.93576  0.42503  0.05833  1.0000
  C   C1228     1.0  0.93931  0.43772  0.03856  1.0000
  C   C1229     1.0  0.94787  0.44515  0.05233  1.0000
  H   H1458     1.0  0.95281  0.42321  0.13293  1.0000
  H   H1459     1.0  0.93807  0.40999  0.10723  1.0000
  H   H1460     1.0  0.93587  0.44175  0.01115  1.0000
  H   H1461     1.0  0.95119  0.45477  0.03454  1.0000
  C   C1230     1.0  0.92696  0.46468  0.88138  1.0000
  C   C1231     1.0  0.93640  0.47428  0.84965  1.0000
  C   C1232     1.0  0.94581  0.48068  0.86359  1.0000
  C   C1233     1.0  0.94596  0.47774  0.90952  1.0000
  C   C1234     1.0  0.93660  0.46804  0.94131  1.0000
  C   C1235     1.0  0.92721  0.46156  0.92730  1.0000
  H   H1462     1.0  0.93644  0.47681  0.81425  1.0000
  H   H1463     1.0  0.95298  0.48811  0.83852  1.0000
  H   H1464     1.0  0.93657  0.46555  0.97666  1.0000
  H   H1465     1.0  0.92004  0.45413  0.95226  1.0000
  C   C1236     1.0  0.87837  0.44369  0.54833  1.0000
  C   C1237     1.0  0.87194  0.44098  0.59470  1.0000
  C   C1238     1.0  0.87790  0.44303  0.62788  1.0000
  C   C1239     1.0  0.89042  0.44834  0.61505  1.0000
  C   C1240     1.0  0.89687  0.45103  0.56872  1.0000
  C   C1241     1.0  0.89095  0.44857  0.53579  1.0000
  H   H1466     1.0  0.86220  0.43748  0.60493  1.0000
  H   H1467     1.0  0.87270  0.44081  0.66309  1.0000
  H   H1468     1.0  0.90654  0.45513  0.55801  1.0000
  H   H1469     1.0  0.89609  0.45087  0.50039  1.0000
  C   C1242     1.0  0.91938  0.45923  0.25794  1.0000
  C   C1243     1.0  0.93046  0.45953  0.22891  1.0000
  C   C1244     1.0  0.93713  0.47010  0.19314  1.0000
  C   C1245     1.0  0.93297  0.48063  0.18682  1.0000
  C   C1246     1.0  0.92199  0.48045  0.21632  1.0000
  C   C1247     1.0  0.91512  0.46971  0.25158  1.0000
  H   H1470     1.0  0.93385  0.45149  0.23385  1.0000
  H   H1471     1.0  0.94555  0.47010  0.17073  1.0000
  H   H1472     1.0  0.91871  0.48856  0.21161  1.0000
  H   H1473     1.0  0.90660  0.46956  0.27393  1.0000
  C   C1248     1.0  0.86416  0.38394  0.77118  1.0000
  C   C1249     1.0  0.86042  0.39339  0.78605  1.0000
  C   C1250     1.0  0.86739  0.40020  0.80742  1.0000
  C   C1251     1.0  0.87801  0.39744  0.81424  1.0000
  C   C1252     1.0  0.88170  0.38804  0.79937  1.0000
  C   C1253     1.0  0.87496  0.38154  0.77691  1.0000
  H   H1474     1.0  0.85216  0.39545  0.78115  1.0000
  H   H1475     1.0  0.86444  0.40741  0.81934  1.0000
  H   H1476     1.0  0.89002  0.38600  0.80384  1.0000
  H   H1477     1.0  0.87840  0.37489  0.76320  1.0000
  C   C1254     1.0  0.91393  0.37137  0.78831  1.0000
  C   C1255     1.0  0.90862  0.36949  0.83521  1.0000
  C   C1256     1.0  0.91560  0.37399  0.86272  1.0000
  C   C1257     1.0  0.92796  0.38041  0.84358  1.0000
  C   C1258     1.0  0.93304  0.38237  0.79681  1.0000
  C   C1259     1.0  0.92617  0.37792  0.76974  1.0000
  H   H1478     1.0  0.89920  0.36451  0.85031  1.0000
  H   H1479     1.0  0.91145  0.37241  0.89865  1.0000
  H   H1480     1.0  0.94248  0.38728  0.78123  1.0000
  H   H1481     1.0  0.93047  0.37948  0.73390  1.0000
  C   C1260     1.0  0.86214  0.33511  0.48479  1.0000
  C   C1261     1.0  0.87332  0.34398  0.46977  1.0000
  C   C1262     1.0  0.87874  0.34809  0.50157  1.0000
  C   C1263     1.0  0.87301  0.34364  0.54897  1.0000
  C   C1264     1.0  0.86174  0.33491  0.56395  1.0000
  C   C1265     1.0  0.85642  0.33066  0.53219  1.0000
  H   H1482     1.0  0.87789  0.34762  0.43367  1.0000
  H   H1483     1.0  0.88744  0.35484  0.48923  1.0000
  H   H1484     1.0  0.85718  0.33129  0.60009  1.0000
  H   H1485     1.0  0.84780  0.32378  0.54453  1.0000
  C   C1266     1.0  0.90465  0.33999  0.20599  1.0000
  C   C1267     1.0  0.90427  0.34985  0.17121  1.0000
  C   C1268     1.0  0.91503  0.35702  0.13671  1.0000
  C   C1269     1.0  0.92612  0.35432  0.13729  1.0000
  C   C1270     1.0  0.92636  0.34452  0.17218  1.0000
  C   C1271     1.0  0.91574  0.33739  0.20599  1.0000
  H   H1486     1.0  0.89568  0.35167  0.17016  1.0000
  H   H1487     1.0  0.91472  0.36443  0.10936  1.0000
  H   H1488     1.0  0.93482  0.34229  0.17281  1.0000
  H   H1489     1.0  0.91612  0.32972  0.23222  1.0000
  C   C1272     1.0  0.86175  0.37949  0.30991  1.0000
  C   C1273     1.0  0.86143  0.39154  0.30759  1.0000
  C   C1274     1.0  0.86313  0.39630  0.34356  1.0000
  C   C1275     1.0  0.86563  0.38918  0.38090  1.0000
  C   C1276     1.0  0.86519  0.37689  0.38451  1.0000
  C   C1277     1.0  0.86305  0.37201  0.34935  1.0000
  H   H1490     1.0  0.85990  0.39720  0.27814  1.0000
  H   H1491     1.0  0.86256  0.40547  0.34231  1.0000
  H   H1492     1.0  0.86674  0.37120  0.41400  1.0000
  H   H1493     1.0  0.86255  0.36250  0.35289  1.0000
  H   H1494     1.0  0.87364  0.30533  0.37956  1.0000
  C   C1278     1.0  0.80940  0.30798  0.19074  1.0000
  C   C1279     1.0  0.81416  0.31540  0.21607  1.0000
  C   C1280     1.0  0.82443  0.31403  0.23078  1.0000
  H   H1495     1.0  0.98238  0.41267  0.05313  1.0000
  S   S376      1.0  0.76603  0.40068  0.13808  1.0000
  H   H1496     1.0  0.80147  0.30917  0.18021  1.0000
  H   H1497     1.0  0.80976  0.32220  0.22475  1.0000
  C   C1281     1.0  0.99937  0.49762  0.24480  1.0000
  C   C1282     1.0  0.81758  0.31085  0.90656  1.0000
  C   C1283     1.0  0.82296  0.32083  0.86720  1.0000
  C   C1284     1.0  0.83482  0.32256  0.84071  1.0000
  C   C1285     1.0  0.84125  0.31405  0.85250  1.0000
  C   C1286     1.0  0.83576  0.30386  0.89125  1.0000
  C   C1287     1.0  0.82400  0.30233  0.91862  1.0000
  H   H1498     1.0  0.81791  0.32725  0.85703  1.0000
  H   H1499     1.0  0.83891  0.33034  0.81061  1.0000
  H   H1500     1.0  0.84070  0.29722  0.90033  1.0000
  H   H1501     1.0  0.80487  0.34772  0.31798  1.0000
  C   C1288     1.0  0.83318  0.41445  0.96649  1.0000
  C   C1289     1.0  0.84320  0.41373  0.93431  1.0000
  C   C1290     1.0  0.85119  0.42437  0.90195  1.0000
  C   C1291     1.0  0.84912  0.43584  0.90090  1.0000
  C   C1292     1.0  0.83918  0.43661  0.93347  1.0000
  C   C1293     1.0  0.83126  0.42594  0.96652  1.0000
  H   H1502     1.0  0.84474  0.40489  0.93408  1.0000
  H   H1503     1.0  0.85881  0.42364  0.87708  1.0000
  H   H1504     1.0  0.83753  0.44546  0.93277  1.0000
  H   H1505     1.0  0.82349  0.42657  0.99096  1.0000
  C   C1294     1.0  0.82953  0.41418  0.23744  1.0000
  C   C1295     1.0  0.82920  0.42638  0.23274  1.0000
  C   C1296     1.0  0.83613  0.43378  0.25303  1.0000
  C   C1297     1.0  0.84352  0.42919  0.27860  1.0000
  C   C1298     1.0  0.84398  0.41704  0.28274  1.0000
  C   C1299     1.0  0.83712  0.40965  0.26216  1.0000
  H   H1506     1.0  0.82346  0.43010  0.21398  1.0000
  H   H1507     1.0  0.83564  0.44314  0.24939  1.0000
  H   H1508     1.0  0.84953  0.41329  0.30223  1.0000
  H   H1509     1.0  0.83762  0.40030  0.26589  1.0000
  C   C1300     1.0  0.77675  0.28087  0.94048  1.0000
  C   C1301     1.0  0.78825  0.34528  0.15370  1.0000
  C   C1302     1.0  0.78202  0.34880  0.12199  1.0000
  C   C1303     1.0  0.77542  0.33995  0.10645  1.0000
  C   C1304     1.0  0.77545  0.32761  0.12094  1.0000
  C   C1305     1.0  0.78222  0.32420  0.15066  1.0000
  C   C1306     1.0  0.78845  0.33298  0.16752  1.0000
  H   H1510     1.0  0.78202  0.35827  0.11023  1.0000
  H   H1511     1.0  0.77030  0.34265  0.08304  1.0000
  H   H1512     1.0  0.78227  0.31469  0.16206  1.0000
  H   H1513     1.0  0.79326  0.33016  0.19193  1.0000
  H   H1514     1.0  0.96759  0.50743  0.13543  1.0000
  H   H1515     1.0  0.87337  0.34812  0.90296  1.0000
  C   C1307     1.0  0.88117  0.47487  0.60232  1.0000
  C   C1308     1.0  0.85748  0.33312  0.91974  1.0000
  C   C1309     1.0  0.82917  0.36860  0.32634  1.0000
  C   C1310     1.0  0.82080  0.37102  0.22256  1.0000
  C   C1311     1.0  0.98413  0.37838  0.99275  1.0000
  H   H1516     1.0  0.97926  0.43601  0.98847  1.0000
  C   C1312     1.0  0.81518  0.38499  0.33755  1.0000
  C   C1313     1.0  0.99402  0.41923  0.98422  1.0000
  C   C1314     1.0  0.77936  0.26197  0.86809  1.0000
  H   H1517     1.0  0.85919  0.33225  0.88531  1.0000
  S   S377      1.0  0.77387  0.28322  0.13783  1.0000
  H   H1518     1.0  0.78135  0.28990  0.94347  1.0000
  H   H1519     1.0  0.83773  0.30381  0.23039  1.0000
  N   N81       1.0  0.98394  0.37824  0.04033  1.0000
  H   H1520     1.0  0.82406  0.32883  0.03968  1.0000
  C   C1315     1.0  0.85353  0.33470  0.00895  1.0000
  C   C1316     1.0  0.82502  0.29754  0.19463  1.0000
  C   C1317     1.0  0.81354  0.37784  0.30807  1.0000
  H   H1521     1.0  0.82522  0.38976  0.38330  1.0000
  H   H1522     1.0  0.86855  0.46075  0.75416  1.0000
  H   H1523     1.0  0.83737  0.37500  0.37448  1.0000
  H   H1524     1.0  0.86866  0.41747  0.22419  1.0000
  H   H1525     1.0  0.83220  0.30192  0.00578  1.0000
  H   H1526     1.0  0.85255  0.33546  0.04318  1.0000
  H   H1527     1.0  0.83255  0.32834  0.08089  1.0000
  Fe  Fe189     1.0  0.79435  0.28910  0.11069  1.0000
  H   H1528     1.0  0.89457  0.30087  0.41900  1.0000
  S   S378      1.0  0.80896  0.28893  0.14909  1.0000
  S   S379      1.0  0.79383  0.28007  0.05370  1.0000
  C   C1318     1.0  0.86355  0.47982  0.70288  1.0000
  H   H1529     1.0  0.76627  0.35560  0.26467  1.0000
  H   H1530     1.0  0.81981  0.30097  0.05183  1.0000
  C   C1319     1.0  0.87552  0.31109  0.49785  1.0000
  H   H1531     1.0  0.84697  0.30481  0.05171  1.0000
  C   C1320     1.0  0.82764  0.32274  0.06303  1.0000
  H   H1532     1.0  0.86834  0.30918  0.56934  1.0000
  C   C1321     1.0  0.86347  0.34286  0.97418  1.0000
  H   H1533     1.0  0.87311  0.43850  0.23094  1.0000
  C   C1322     1.0  0.89593  0.32420  0.46237  1.0000
  C   C1323     1.0  0.86550  0.34200  0.92970  1.0000
  H   H1534     1.0  0.84174  0.31835  0.94391  1.0000
  H   H1535     1.0  0.86982  0.34969  0.98193  1.0000
  H   H1536     1.0  0.98029  0.36409  0.10396  1.0000
  H   H1537     1.0  0.80525  0.34847  0.25981  1.0000
  H   H1538     1.0  0.86448  0.48140  0.73578  1.0000
  N   N82       1.0  0.85910  0.37447  0.56266  1.0000
  C   C1324     1.0  0.85601  0.36319  0.60144  1.0000
  C   C1325     1.0  0.84987  0.37266  0.53754  1.0000
  C   C1326     1.0  0.87109  0.37565  0.53202  1.0000
  C   C1327     1.0  0.85957  0.38575  0.57730  1.0000
  C   C1328     1.0  0.85985  0.39691  0.54641  1.0000
  C   C1329     1.0  0.86033  0.38618  0.62150  1.0000
  C   C1330     1.0  0.86014  0.40760  0.55974  1.0000
  C   C1331     1.0  0.86071  0.39695  0.63439  1.0000
  C   C1332     1.0  0.86048  0.40760  0.60373  1.0000
  H   H1539     1.0  0.86333  0.36304  0.61849  1.0000
  H   H1540     1.0  0.84742  0.36224  0.62722  1.0000
  H   H1541     1.0  0.85492  0.35476  0.59000  1.0000
  H   H1542     1.0  0.85248  0.37960  0.50370  1.0000
  H   H1543     1.0  0.84095  0.37306  0.55751  1.0000
  H   H1544     1.0  0.84864  0.36368  0.52977  1.0000
  H   H1545     1.0  0.87812  0.37581  0.55055  1.0000
  H   H1546     1.0  0.87417  0.38417  0.50303  1.0000
  H   H1547     1.0  0.85993  0.39755  0.51150  1.0000
  H   H1548     1.0  0.86062  0.37831  0.64691  1.0000
  H   H1549     1.0  0.86018  0.41596  0.53562  1.0000
  H   H1550     1.0  0.86112  0.39701  0.66848  1.0000
  H   H1551     1.0  0.86071  0.41590  0.61386  1.0000
  N   N83       1.0  0.84760  0.42251  0.08174  1.0000
  C   C1333     1.0  0.85521  0.42668  0.03354  1.0000
  C   C1334     1.0  0.83473  0.42044  0.08220  1.0000
  C   C1335     1.0  0.85051  0.43268  0.10220  1.0000
  C   C1336     1.0  0.84955  0.41090  0.10635  1.0000
  C   C1337     1.0  0.85273  0.40935  0.14807  1.0000
  C   C1338     1.0  0.84798  0.40057  0.08920  1.0000
  C   C1339     1.0  0.85451  0.39824  0.17025  1.0000
  C   C1340     1.0  0.84984  0.38954  0.11159  1.0000
  C   C1341     1.0  0.85320  0.38841  0.15184  1.0000
  H   H1552     1.0  0.86494  0.42765  0.03148  1.0000
  H   H1553     1.0  0.85257  0.42027  0.01385  1.0000
  H   H1554     1.0  0.85436  0.43569  0.01463  1.0000
  H   H1555     1.0  0.82871  0.41722  0.11779  1.0000
  H   H1556     1.0  0.83199  0.41343  0.06503  1.0000
  H   H1557     1.0  0.83280  0.42895  0.06427  1.0000
  H   H1558     1.0  0.86008  0.43466  0.10337  1.0000
  H   H1559     1.0  0.84926  0.44135  0.08231  1.0000
  H   H1560     1.0  0.84443  0.43054  0.13741  1.0000
  H   H1561     1.0  0.85363  0.41646  0.16490  1.0000
  H   H1562     1.0  0.84509  0.40089  0.05866  1.0000
  H   H1563     1.0  0.85670  0.39715  0.20246  1.0000
  H   H1564     1.0  0.84853  0.38178  0.09786  1.0000
  H   H1565     1.0  0.85454  0.37983  0.16948  1.0000
  N   N84       1.0  0.92050  0.41625  0.88110  1.0000
  C   C1342     1.0  0.91069  0.42239  0.89060  1.0000
  C   C1343     1.0  0.91816  0.40980  0.84686  1.0000
  C   C1344     1.0  0.91957  0.40700  0.92371  1.0000
  C   C1345     1.0  0.93274  0.42493  0.86492  1.0000
  C   C1346     1.0  0.94293  0.42183  0.84128  1.0000
  C   C1347     1.0  0.93507  0.43638  0.87475  1.0000
  C   C1348     1.0  0.95447  0.43005  0.82551  1.0000
  C   C1349     1.0  0.94661  0.44459  0.85853  1.0000
  C   C1350     1.0  0.95627  0.44150  0.83347  1.0000
  H   H1566     1.0  0.91180  0.43036  0.86106  1.0000
  H   H1567     1.0  0.90155  0.41610  0.89746  1.0000
  H   H1568     1.0  0.91038  0.42570  0.92126  1.0000
  H   H1569     1.0  0.91938  0.41645  0.81337  1.0000
  H   H1570     1.0  0.90882  0.40365  0.85795  1.0000
  H   H1571     1.0  0.92398  0.40358  0.84164  1.0000
  H   H1572     1.0  0.92128  0.41141  0.95048  1.0000
  H   H1573     1.0  0.91047  0.40030  0.93757  1.0000
  H   H1574     1.0  0.92629  0.40166  0.91791  1.0000
  H   H1575     1.0  0.94218  0.41296  0.83528  1.0000
  H   H1576     1.0  0.92806  0.43923  0.89473  1.0000
  H   H1577     1.0  0.96203  0.42748  0.80708  1.0000
  H   H1578     1.0  0.94799  0.45346  0.86516  1.0000
  H   H1579     1.0  0.96516  0.44795  0.82040  1.0000
  N   N85       1.0  0.89957  0.41153  0.66432  1.0000
  C   C1351     1.0  0.90938  0.42307  0.65049  1.0000
  C   C1352     1.0  0.88853  0.41324  0.69299  1.0000
  C   C1353     1.0  0.90334  0.40181  0.69321  1.0000
  C   C1354     1.0  0.89710  0.40865  0.62314  1.0000
  C   C1355     1.0  0.89304  0.41687  0.59292  1.0000
  C   C1356     1.0  0.89874  0.39786  0.61141  1.0000
  C   C1357     1.0  0.89082  0.41452  0.55344  1.0000
  C   C1358     1.0  0.89639  0.39554  0.57197  1.0000
  C   C1359     1.0  0.89247  0.40386  0.54300  1.0000
  H   H1580     1.0  0.90690  0.43107  0.63161  1.0000
  H   H1581     1.0  0.91159  0.42547  0.68061  1.0000
  H   H1582     1.0  0.91779  0.42231  0.62797  1.0000
  H   H1583     1.0  0.88594  0.42140  0.67608  1.0000
  H   H1584     1.0  0.88982  0.41468  0.72564  1.0000
  H   H1585     1.0  0.88071  0.40507  0.70154  1.0000
  H   H1586     1.0  0.91203  0.40052  0.67486  1.0000
  H   H1587     1.0  0.90474  0.40402  0.72468  1.0000
  H   H1588     1.0  0.89636  0.39283  0.70488  1.0000
  H   H1589     1.0  0.89160  0.42523  0.59952  1.0000
  H   H1590     1.0  0.90184  0.39106  0.63204  1.0000
  H   H1591     1.0  0.88775  0.42100  0.53087  1.0000
  H   H1592     1.0  0.89772  0.38725  0.56375  1.0000
  H   H1593     1.0  0.89073  0.40210  0.51229  1.0000
  N   N86       1.0  0.90468  0.38552  0.19884  1.0000
  C   C1360     1.0  0.91266  0.37819  0.21484  1.0000
  C   C1361     1.0  0.89233  0.37712  0.21155  1.0000
  C   C1362     1.0  0.90890  0.39018  0.14825  1.0000
  C   C1363     1.0  0.90521  0.39591  0.21886  1.0000
  C   C1364     1.0  0.89505  0.39706  0.25041  1.0000
  C   C1365     1.0  0.91629  0.40503  0.20847  1.0000
  C   C1366     1.0  0.89602  0.40671  0.27013  1.0000
  C   C1367     1.0  0.91715  0.41464  0.22844  1.0000
  C   C1368     1.0  0.90702  0.41549  0.25915  1.0000
  H   H1594     1.0  0.91002  0.37489  0.25280  1.0000
  H   H1595     1.0  0.91219  0.36997  0.20219  1.0000
  H   H1596     1.0  0.92233  0.38350  0.20292  1.0000
  H   H1597     1.0  0.88876  0.37271  0.24905  1.0000
  H   H1598     1.0  0.89216  0.36947  0.19572  1.0000
  H   H1599     1.0  0.88585  0.38203  0.20024  1.0000
  H   H1600     1.0  0.91860  0.39537  0.13513  1.0000
  H   H1601     1.0  0.90801  0.38258  0.13213  1.0000
  H   H1602     1.0  0.90364  0.39640  0.13495  1.0000
  H   H1603     1.0  0.88627  0.39056  0.26100  1.0000
  H   H1604     1.0  0.92445  0.40464  0.18555  1.0000
  H   H1605     1.0  0.88822  0.40729  0.29469  1.0000
  H   H1606     1.0  0.92576  0.42137  0.22071  1.0000
  H   H1607     1.0  0.90770  0.42286  0.27507  1.0000
  N   N87       1.0  0.83550  0.36044  0.89238  1.0000
  C   C1369     1.0  0.83768  0.35191  0.86459  1.0000
  C   C1370     1.0  0.83198  0.37058  0.86503  1.0000
  C   C1371     1.0  0.84717  0.36554  0.90084  1.0000
  C   C1372     1.0  0.82581  0.35451  0.93591  1.0000
  C   C1373     1.0  0.81748  0.34292  0.94456  1.0000
  C   C1374     1.0  0.82382  0.36076  0.96970  1.0000
  C   C1375     1.0  0.80794  0.33791  0.98467  1.0000
  C   C1376     1.0  0.81435  0.35554  0.01014  1.0000
  C   C1377     1.0  0.80644  0.34412  0.01763  1.0000
  H   H1608     1.0  0.82991  0.34898  0.85125  1.0000
  H   H1609     1.0  0.84559  0.35629  0.83377  1.0000
  H   H1610     1.0  0.83956  0.34362  0.88445  1.0000
  H   H1611     1.0  0.82305  0.36721  0.85928  1.0000
  H   H1612     1.0  0.83866  0.37494  0.83089  1.0000
  H   H1613     1.0  0.83127  0.37793  0.88199  1.0000
  H   H1614     1.0  0.84709  0.37351  0.91464  1.0000
  H   H1615     1.0  0.84950  0.35842  0.92508  1.0000
  H   H1616     1.0  0.85480  0.36907  0.86880  1.0000
  H   H1617     1.0  0.81795  0.33761  0.92052  1.0000
  H   H1618     1.0  0.82935  0.36988  0.96472  1.0000
  H   H1619     1.0  0.80150  0.32923  0.98973  1.0000
  H   H1620     1.0  0.81295  0.36050  0.03540  1.0000
  H   H1621     1.0  0.79898  0.34017  0.04864  1.0000
  H   H1622     1.0  0.95726  0.49198  0.20229  1.0000
  C   C1378     1.0  0.79352  0.28417  0.87543  1.0000
  H   H1623     1.0  0.80050  0.28040  0.85743  1.0000
  H   H1624     1.0  0.97363  0.35921  0.06353  1.0000
  S   S380      1.0  0.96719  0.50302  0.02084  1.0000
  H   H1625     1.0  0.97213  0.38204  0.09592  1.0000
  H   H1626     1.0  0.76381  0.37403  0.17916  1.0000
  H   H1627     1.0  0.00126  0.48988  0.26602  1.0000
  H   H1628     1.0  0.98954  0.38121  0.11825  1.0000
  H   H1629     1.0  0.85386  0.47504  0.70969  1.0000
  H   H1630     1.0  0.99429  0.46260  0.03913  1.0000
  C   C1379     1.0  0.76426  0.36455  0.17933  1.0000
  H   H1631     1.0  0.98177  0.48738  0.25060  1.0000
  H   H1632     1.0  0.97568  0.37225  0.99138  1.0000
  H   H1633     1.0  0.97487  0.39247  0.04063  1.0000
  H   H1634     1.0  0.79960  0.26704  0.93471  1.0000
  H   H1635     1.0  0.75654  0.34121  0.18379  1.0000
  H   H1636     1.0  0.78493  0.26883  0.83696  1.0000
  C   C1380     1.0  0.88416  0.47890  0.68590  1.0000
  H   H1637     1.0  0.78822  0.28741  0.85217  1.0000
  C   C1381     1.0  0.96575  0.49255  0.21283  1.0000
  H   H1638     1.0  0.77281  0.39617  0.94586  1.0000
  H   H1639     1.0  0.99178  0.37515  0.97632  1.0000
  H   H1640     1.0  0.97021  0.48609  0.19904  1.0000
  H   H1641     1.0  0.88751  0.48824  0.66121  1.0000
  C   C1382     1.0  0.76832  0.40573  0.99540  1.0000
  H   H1642     1.0  0.79961  0.35922  0.28486  1.0000
  H   H1643     1.0  0.82630  0.34761  0.29430  1.0000
  C   C1383     1.0  0.82376  0.38398  0.36133  1.0000
  C   C1384     1.0  0.97354  0.38270  0.05918  1.0000
  H   H1644     1.0  0.81003  0.39164  0.34080  1.0000
  C   C1385     1.0  0.83065  0.37572  0.35607  1.0000
  H   H1645     1.0  0.75820  0.38011  0.10094  1.0000
  C   C1386     1.0  0.85843  0.46520  0.59280  1.0000
  H   H1646     1.0  0.76605  0.34222  0.22004  1.0000
  N   N88       1.0  0.87177  0.47265  0.68630  1.0000
  C   C1387     1.0  0.99662  0.38636  0.08725  1.0000
  H   H1647     1.0  0.84969  0.46115  0.58906  1.0000
  C   C1388     1.0  0.86817  0.46028  0.71942  1.0000
  C   C1389     1.0  0.87090  0.47146  0.64108  1.0000
  C   C1390     1.0  0.85950  0.46647  0.63506  1.0000
  H   H1648     1.0  0.82922  0.29050  0.18711  1.0000
  H   H1649     1.0  0.77023  0.28250  0.92049  1.0000
  H   H1650     1.0  0.87428  0.45471  0.70840  1.0000
  H   H1651     1.0  0.82645  0.34984  0.23647  1.0000
  H   H1652     1.0  0.96506  0.46179  0.95590  1.0000
  C   C1391     1.0  0.84745  0.32503  0.95411  1.0000
  H   H1653     1.0  0.00302  0.44292  0.12627  1.0000
  H   H1654     1.0  0.96402  0.43563  0.99203  1.0000
  C   C1392     1.0  0.82062  0.36955  0.30095  1.0000
  S   S381      1.0  0.00222  0.50400  0.03316  1.0000
  H   H1655     1.0  0.79854  0.29254  0.88183  1.0000
  H   H1656     1.0  0.77703  0.40691  0.00244  1.0000
  H   H1657     1.0  0.98245  0.50493  0.12825  1.0000
  H   H1658     1.0  0.85878  0.45510  0.72333  1.0000
  Fe  Fe190     1.0  0.77324  0.27578  0.07669  1.0000
  S   S382      1.0  0.77314  0.29392  0.03236  1.0000
  Fe  Fe191     1.0  0.96282  0.40226  0.97743  1.0000
  H   H1659     1.0  0.80693  0.37916  0.28979  1.0000
  H   H1660     1.0  0.89071  0.47351  0.67721  1.0000
  H   H1661     1.0  0.87091  0.36787  0.51697  1.0000
  C   C1393     1.0  0.84525  0.32546  0.00003  1.0000
  C   C1394     1.0  0.80665  0.35413  0.28344  1.0000
  C   C1395     1.0  0.97317  0.44203  0.98383  1.0000
  C   C1396     1.0  0.86865  0.46878  0.55543  1.0000
  C   C1397     1.0  0.98993  0.47279  0.91360  1.0000
  H   H1662     1.0  0.81971  0.31608  0.09018  1.0000
  H   H1663     1.0  0.82957  0.37819  0.21154  1.0000
  H   H1664     1.0  0.97031  0.43649  0.90810  1.0000
  H   H1665     1.0  0.92319  0.46772  0.11928  1.0000
  H   H1666     1.0  0.93117  0.45050  0.13491  1.0000
  H   H1667     1.0  0.87948  0.33126  0.39397  1.0000
  N   N89       1.0  0.81906  0.36248  0.26797  1.0000
  H   H1668     1.0  0.88566  0.32597  0.34667  1.0000
  H   H1669     1.0  0.89546  0.33343  0.37367  1.0000
  H   H1670     1.0  0.91986  0.44228  0.18807  1.0000
  H   H1671     1.0  0.86569  0.31010  0.42457  1.0000
  C   C1398     1.0  0.91399  0.46152  0.13822  1.0000
  C   C1399     1.0  0.92195  0.44402  0.15039  1.0000
  H   H1672     1.0  0.92418  0.45675  0.06382  1.0000
  H   H1673     1.0  0.91273  0.46141  0.17446  1.0000
  H   H1674     1.0  0.89483  0.30813  0.36135  1.0000
  C   C1400     1.0  0.87359  0.30646  0.41389  1.0000
  C   C1401     1.0  0.96670  0.45612  0.93213  1.0000
  H   H1675     1.0  0.96836  0.46202  0.89680  1.0000
  N   N90       1.0  0.88508  0.31486  0.41280  1.0000
  C   C1402     1.0  0.97872  0.44366  0.90362  1.0000
  H   H1676     1.0  0.98160  0.44982  0.86809  1.0000
  H   H1677     1.0  0.81987  0.29450  0.94852  1.0000
  H   H1678     1.0  0.90743  0.46593  0.12505  1.0000
  H   H1679     1.0  0.92261  0.43528  0.14265  1.0000
  H   H1680     1.0  0.87195  0.29715  0.43735  1.0000
  C   C1403     1.0  0.89509  0.30976  0.39481  1.0000
  H   H1681     1.0  0.90414  0.31605  0.38866  1.0000
  H   H1682     1.0  0.89028  0.47823  0.60379  1.0000
  H   H1683     1.0  0.81361  0.37589  0.22251  1.0000
  H   H1684     1.0  0.90375  0.32886  0.43336  1.0000
  N   N91       1.0  0.91267  0.44897  0.13307  1.0000
  C   C1404     1.0  0.91524  0.45015  0.08356  1.0000
  H   H1685     1.0  0.86701  0.30551  0.49764  1.0000
  S   S383      1.0  0.80266  0.30924  0.93818  1.0000
  C   C1405     1.0  0.87744  0.42381  0.20558  1.0000
  C   C1406     1.0  0.88546  0.31655  0.45786  1.0000
  N   N92       1.0  0.78556  0.27501  0.91856  1.0000
  H   H1686     1.0  0.82052  0.36615  0.19599  1.0000
  H   H1687     1.0  0.85134  0.46331  0.66319  1.0000
  H   H1688     1.0  0.90823  0.45347  0.06950  1.0000
  H   H1689     1.0  0.91557  0.44133  0.07593  1.0000
  C   C1407     1.0  0.81470  0.29885  0.18027  1.0000
  C   C1408     1.0  0.99138  0.41764  0.03133  1.0000
  H   H1690     1.0  0.84547  0.31477  0.08762  1.0000
  N   N93       1.0  0.97689  0.45069  0.93722  1.0000
  H   H1691     1.0  0.98582  0.43877  0.90713  1.0000
  H   H1692     1.0  0.90428  0.42489  0.13540  1.0000
  H   H1693     1.0  0.86785  0.46740  0.52308  1.0000
  C   C1409     1.0  0.98185  0.36528  0.06683  1.0000
  C   C1410     1.0  0.90051  0.44050  0.15798  1.0000
  C   C1411     1.0  0.87614  0.31315  0.53955  1.0000
  Fe  Fe192     1.0  0.79345  0.29840  0.01215  1.0000
  H   H1694     1.0  0.98278  0.47661  0.90536  1.0000
  S   S384      1.0  0.98303  0.41326  0.95742  1.0000
  C   C1412     1.0  0.89766  0.42826  0.15526  1.0000
  C   C1413     1.0  0.89131  0.44395  0.18611  1.0000
  H   H1695     1.0  0.89264  0.45293  0.19143  1.0000
  C   C1414     1.0  0.88652  0.32076  0.54266  1.0000
  C   C1415     1.0  0.89640  0.32627  0.50416  1.0000
  H   H1696     1.0  0.96282  0.48914  0.25075  1.0000
  C   C1416     1.0  0.82991  0.30511  0.21924  1.0000
  H   H1697     1.0  0.86550  0.48893  0.67757  1.0000
  H   H1698     1.0  0.83343  0.30158  0.09712  1.0000
  H   H1699     1.0  0.90435  0.33240  0.50666  1.0000
  H   H1700     1.0  0.97304  0.44708  0.00994  1.0000
  C   C1417     1.0  0.88626  0.42008  0.17863  1.0000
  C   C1418     1.0  0.82723  0.30761  0.02258  1.0000
  C   C1419     1.0  0.84055  0.30912  0.06985  1.0000
  H   H1701     1.0  0.82280  0.31243  0.99887  1.0000
  H   H1702     1.0  0.88677  0.32269  0.57470  1.0000
  H   H1703     1.0  0.83499  0.36260  0.32331  1.0000
  C   C1420     1.0  0.98815  0.49632  0.23552  1.0000
  H   H1704     1.0  0.76297  0.36325  0.14655  1.0000
  H   H1705     1.0  0.83726  0.36055  0.25034  1.0000
  C   C1421     1.0  0.87996  0.43570  0.20926  1.0000
  H   H1706     1.0  0.88429  0.41075  0.17641  1.0000
  N   N94       1.0  0.83530  0.31638  0.03790  1.0000
  H   H1707     1.0  0.79886  0.28059  0.95249  1.0000
  C   C1422     1.0  0.82769  0.35486  0.26211  1.0000
  H   H1708     1.0  0.77135  0.27515  0.97563  1.0000
  C   C1423     1.0  0.87998  0.47357  0.56022  1.0000
  H   H1709     1.0  0.99833  0.42064  0.08721  1.0000
  H   H1710     1.0  0.98478  0.38773  0.97147  1.0000
  C   C1424     1.0  0.76589  0.39964  0.96375  1.0000
  C   C1425     1.0  0.00046  0.42232  0.05063  1.0000
  H   H1711     1.0  0.77359  0.36413  0.17954  1.0000
  C   C1426     1.0  0.75948  0.41019  0.01853  1.0000
  H   H1712     1.0  0.99430  0.44402  0.08702  1.0000
  H   H1713     1.0  0.76138  0.41477  0.04365  1.0000
  H   H1714     1.0  0.98934  0.44779  0.13919  1.0000
  C   C1427     1.0  0.00085  0.48124  0.90840  1.0000
  H   H1715     1.0  0.98971  0.36172  0.05498  1.0000
  C   C1428     1.0  0.79330  0.27210  0.94864  1.0000
  N   N95       1.0  0.97384  0.50526  0.19598  1.0000
  C   C1429     1.0  0.99691  0.46752  0.06343  1.0000
  H   H1716     1.0  0.00173  0.49101  0.89683  1.0000
  H   H1717     1.0  0.98836  0.46761  0.08706  1.0000
  C   C1430     1.0  0.99520  0.38593  0.04385  1.0000
  C   C1431     1.0  0.98550  0.50630  0.20735  1.0000
  C   C1432     1.0  0.99748  0.44853  0.11152  1.0000
  C   C1433     1.0  0.75695  0.34294  0.21693  1.0000
  H   H1718     1.0  0.78794  0.26641  0.98380  1.0000
  H   H1719     1.0  0.00069  0.48359  0.10502  1.0000
  H   H1720     1.0  0.00191  0.47711  0.04257  1.0000
  C   C1434     1.0  0.99856  0.45617  0.93907  1.0000
  H   H1721     1.0  0.99817  0.44658  0.95038  1.0000
  N   N96       1.0  0.75512  0.35512  0.21869  1.0000
  C   C1435     1.0  0.75743  0.35715  0.26135  1.0000
  H   H1722     1.0  0.75794  0.36671  0.26263  1.0000
  C   C1436     1.0  0.77888  0.26361  0.91193  1.0000
  C   C1437     1.0  0.75456  0.39791  0.95542  1.0000
  H   H1723     1.0  0.97237  0.52299  0.20339  1.0000
  H   H1724     1.0  0.99878  0.52480  0.06966  1.0000
  H   H1725     1.0  0.98011  0.51950  0.13117  1.0000
  H   H1726     1.0  0.99325  0.52566  0.16903  1.0000
  C   C1438     1.0  0.99463  0.51762  0.19023  1.0000
  C   C1439     1.0  0.96723  0.51314  0.21653  1.0000
  H   H1727     1.0  0.95833  0.51248  0.20893  1.0000
  H   H1728     1.0  0.96544  0.51041  0.25429  1.0000
  C   C1440     1.0  0.97610  0.50944  0.14569  1.0000
