data_image0
_chemical_formula_structural       SC2SFeCHFeS2FeSHFeSFeHS2C3FeS2CHCHCFeSHSCH3CH2SC5H3CHCHCHC2H2C6H4C6H4CH2C3H2CH3C2HC3HCNCHSCH2NHC3H2CSCH2C2H7NC10H3CH10CNC2HC2HCSHC3HCNHCHCH2CH3NSCHC3HCFeH3CHSHCHC2H6C3H2CH4C3FeHS2CH3NH2C3H3CFeC2H5C2H5FeSFeS2FeSFeCS2HS2FeS2FeS2FeS2FeSFeS3C2HFeS2FeSHSCFeS3CHFeHCSH3C2H2FeS2FeS2C6H6C2H2C6H7C6H3C6H4C6H4C6H4C6H4C7H3CH2C2NC9H14NCHC2HCH7FeH5SCSC2SCH4SFeCHCNCSNHCHNCH4NH2CH2CH8CNCHSC2H2NHC2H3SCHCHCHCHCH5C2HNC9H14NC9H16C2HC2HC2H8CHC3HCH3SH4NHCH3FeC2H2C2FeS2FeS2FeSFeS3FeS2H2C3FeH2S2H3FeS2H2FeSHSH5NH3CHFeS2FeS2FeSFeS3C3H5CH2FeC6H4C5H4C7H4C6H5SHCH2CHNC2HCHC8H4C6H4C6H4C7H3C2HC2HCHC2HCNC2H2SHCNH7CHFeH4CH3NHSC2SH3CH6C2NC9H13CNC8H4C2HCHCHCHC6H2C2H2NCH8SHC3HCH2C3HSHCH3CH3CSHFeSC2FeCHCHC2SC3H3FeS2FeS2FeSFeS3HSHS2FeS2HFeS2C7H4C6H4C2HS2CHCH3C6H3SHC2H8CHC4HC8HCH2FeHC3H3FeH7C2NS2H4SCH6C3H2CH5C2H3CHNC2HCH2SHCNC3HC2H2C2SHC2NC9H14C4H2FeC2HCH2SFeHC2H4CH2C2NHCH2FeC2NH7C5H2FeC2HSHCSH2C2H2C2H2FeS2FeS2FeS2FeS2FeSFeS3FeS2FeSFeSFeS2FeSHFeS2Fe2S3FeS2Fe2S3CH2C6H4CH2C6H4C6H4C6H4C6H7CH2C6H4C6H8C2HSH2CHC2HCHC2HNC5NHNCH3CH6CHCH7C2FeH2CHCHCHCHSH4NC9H14C3HCSHCHCH2NC9H4CH2CH4NC9H14C3H8C2H2CHNC9H7SC2HCH2SHC3H3SC2SNCNH2SHCHCHCHCH2CFeHC2HCSCSC2HSC2H6CH3CHSC2SNH5C2HC2H2CHC2SHFeSHFeSCH2CHFeSFeS2FeS3C2H2CH2C6H3C2HSH4C3HSC6H3C3HCFeHCH3SH3C3HCH5CHNCSCHNC4SC2H9CHCHSHNH2C2HCHC2FeHC2H3C2NC3H3CHC2HSC3HC2H2CH2CHCHC2H8CHFeNSH2CH3FeS2CFeSFeSCH2FeSCHSCH2FeS2FeS2FeSFeS3FeS2FeS2C6H4C5HCHC6HCNHCH2C6H2C6H4C6HSH2NC9H14CH3CHNC2H7CHSCH4NC2H2CH8CNCHC7H3NH5CHCH3CH3C2H3CHCH2CHCH2CH2FeHC3H3SH3CH2FeCH5CHC2HC3SH2CH2C2H2C4HFeS2FeS2FeSFeS3H2FeS2FeS2FeSFeS3C2H3FeS2FeSHFeSFeS3H2SCH3CHCSCH4SC7H2C2HC7H4C4HCHC2H2C6H4C6H4C6H4C4HC2HC2NC3H2CHFeC2HSH2SH2C2NHCH2C3NC2HCHCH3C3H2CSC2HCH4C2H2SH2CH3SCFeHCHNC9H14NC4HC2H3CHCH3CH2CHNHCH3CHSHCH3CH6SHSH2C6HFeCHCHCNH5CFeNC4HCH12C2H2CHFeHCHCH2CHC2HCSC2H3C2FeHSHCH10FeH2SCSFeCSFeCSH2CS2FeS2FeS2FeSFeS3CFeS2FeSCSFeCFeS2FeSHSCHC3HSFeS2FeS2Fe2S2H4CHC3H2C7H2C2HC3H3CNC6H3C3H2C6H7CHC3HC2H4C4H6C6H4SCHC3NH3C5FeH3CNFeC2H3CH2C4HCH3CH4CHCH2CHC2HSHCH3S2CH3CH2NC3H2CHCNH2CHCH2CHCH5C4H3CH5FeH2C2HC3H2CHC6HSNHCH2CHC3H2C6HC2HCH2CH6C2H3NH2S2HC2HSHNC5H3CH2NH3C3H8C2HCHC2H5CSH5S2HCH4CNH2C2H2CH3CH5CFeSCFeS2FeSFeS3H3S2C3HCHS2HS2FeSFeS2Fe2S3HCH2CH2C3H3C6H3SCHC2H2CH2C3FeHC7H3C6H4C3HCH3CH3CFeH2FeH3C2H2CHSNCHC3HCHCNH4C2H2C2SH2NCHCH2CH2C2H4CS2CHCSFeH2SH5FeCHFeCFeCSC3HCHC2HC2H5SC3NH2CNHC2HC2SHSH2CHNH2FeCHSCH3C3H3C2HCHCH2CNH3C2HFeHCH4CFeCH5CH2CH4C4H2FeC2HCH2C2HSCHCNC3HCHCH3CH5CH4SCH3FeH2CFeSFe2S2FeSFeCS2FeCFeS2FeSFeS2FeS2FeS2FeSFeS3HSFe2CSHC2SH3SC3HCHC4H2C6H5C4HCH2SC7H4C6H4C7H5C3HFeCH2CH4CSCHCH2C3H4S2CH2S2HNH2CH2CHNC4HSHCH7SNC6HCH21SH3CH2CH2C3HCNCHCSC4H2NC3NH4C2HCHSC3HC2H2CHSCHCH4FeHNH3CHCSH2CHC3H9CH4C2H3FeHSCSHFe2S2FeS2FeS2HFeSFeSFe2S2FeS2FeSFeS4C6H6C2SC7H4C6H2CH2C2H3CFeCHC7H3CHS2CHSH4SHC2H2CHC3H2SHC4HCHCHFe2CH2CHNHS2C7H5CSH5CNHC9H2SCH4FeH2SFeCH2SCHCH4NSH5CH6CHCHCHCH4CNSHCH3SHCH2CHC2NSC6NH7C2HC2HFeHC7H2CH4CH2C3HCHSHSCHCHNC9HNH12CHCH5CH3CNHCHSH4CHC2H2CHFeCH2CH8CFeS2FeS2FeSFeS3HCSCH2FeSCFeS2C2HFeS2FeS2HSCFeHFeSHS2FeSCFeS2CH2CHSCSH2C2FeC6H4C5SH2FeCHCFeCH2C7H4SHCHCHC2HFeC6H4C6H4C5H3C5NH6CHNCHNC7H3CH11C2H3CNFeH4CHCH3CHCHCHCFeHNHCHCSH3C2H4SCHNSHCSNC9H16C2HC3H3C2HCH3C2N2SCHCSC3H5FeC3H2C2HCHCFeC2HCH2FeNHSC2HCH3C3HCSC2H2SHC2H3CHSHCH3CH7CHCFeHCHCH3C3NH3C2FeSFeS2FeHFeS3FeS2FeS2FeSFeS3FeSFeS3FeCSFeS2FeS2FeSFeS3H3SHS2HC6H4C8H2C6H5CHC6H4CFeC6H5CH2C2HC7H4C6H2C2H2CNH2C4HCHFeNSC2HNC9H16C2H4C5HCH2CH2CH4CHC3HC4HCH2CH2CH4NH4CH2CHCH2C2H2CNH3C2HCH7CH2CH3C2HCS2NHSHC2NCH2C6HSH5SH6CSHCHC3HCHCHCHNC9H14CH5CH2SH3CH2CH2CHFeCSHCSH5FeSCH3CHNHSHFeS2FeS2FeSFeS3FeSFeS2FeSFeS2CSH2FeSH2SC2HC4H3CHSCHCH6CH3C6H4C6HCH2C2HC2HC7H4C6H4NHSHC2H2SH2SHCH2C3HC2HCHCH3CSHSC4HCH4CH2C2HCH2CHCNC2H2SFeCHCH3NC9H17NCH2C2H2CH4FeCHFeH2FeHC2HCNCH4CHCHNH2CSH2FeCNHC2HFeCFeCHCHSH3CHNCHSHSH3CHC3NH3CH2CHC2HC2SHCH2C2H3SH6C3HFeC2HCHC2SHCH2CH2CH3CH2CHSCS2HC3HSHFeCH2CHC2FeSHFeH2FeS2CSFeSHSFeS2FeS2FeSFeS3CS2FeS2CFeH2CH3CHFeSFeS3HSFeSHCHFeS2C2HC2H3SCHCHNC2HC3H4CH4C6H2C3HSCHCHC7H4C6H4C3H2C7H4CH3CHC3H5CNC2HCNC2NC4H3CH10C4HNHCHC2HC2FeH6CH3SH3NC9H15C2H3C2H3SH2CHCHCFeHCH2CSHC3FeC3H4CSCH2C2FeCH2C2HCHCNCH2NCH3C2HCHCH2SC2SH3SHCHCH2NCH3C3HSHFeC2HCH3CH4SH2CFeSCFeS2FeHFeS3HCSH2CFeS2FeSFeSFeS3FeS2FeS2FeSFeS3FeSFeS2Fe2S3H6C6H4CH2C2H4C6H4CHSHC2H2C6HSH2C6H4C6H4C2HNC6H4C2HC3H4CHNH3C3FeHC4HCHNC6HC2H11CH2NC3HCH4CH8C3H4CHCSH2CH2C2HCH4CHCHCH2C4H5CSNCH3C3H2C2H4C3HCSHC2HCH2NC9H14NC2SNHCHCHSHSH5C2H4CHCHCH2FeS2FeSCSFeS2FeS2FeSFeCS2H2CH2CN2CHSCH2FeSH2NC2HCHCH2CH4C2H2C6H4C2HC3FeHCHC6H2CHC6H3C6H4FeCHCH3CS2CH8C2HSC3H3C2H2CH2FeH4CHC4H3FeH3CH2SCHC2H2C3HCH8CN2CHCHCH3C2HNH2CHCH2CHC3NC2HCS3H7SH2C2HC3SH2CHFeS2FeS2FeSFeS3C2H2SCHCS3HSCFeS2CSFeSFeHSHFeS2FeS2HCH2CFeC6H4CH2CH3C6H4C6H4C6H4C2H2SCH4C6H5FeHCSCHCH4CFeHCHC2SHCHCFeCH6CHC2NC4HCH8C2H2C2H6NC9H15C3HCHCNC3H2CH3SCH2CH2CH4CNC2H3C2H5CHC2HC2NCHSCHCNC2FeCNH2CHCH6FeCNHCSC2H3CH2C2HSFeS2FeSCFeHFeS4CSFeCSH3CHFeSFeS2FeSFeS3FeSHFeS2FeSFeS3CSH3CH2CHCHCHCH3C6H4C6H3C6H4C2H2C6H6CN3HC8H4CH2C3HCH2NC2HCHC4H11CNC2H3CSC3H2CH3FeHC2H2CH2CH2CHSH6CH2C3NCSC2HCHSCH7C5H3CH2C2HC3H2NC5H11CHCH2CH4FeCH2NC2H2C3H3CHC4H2CH2CHCHCHC2HCHCHS2C2H4CHCH4C3H2CHCHFeHSH4CH5SCFeSFeS2FeSFeS3C2HC3SHCNH2C7H4C3HC2HCHC6H4C2HCHCHCHCH4CH2CH3CH2C5HC2HCSH2C2H2CFeSH3CS2C2H2CH2FeHC2HSH3CHCSFeH2FeCH4C4H4CH3NC2NCH3C2H2CHCSCH4CHC2H2CH3C2H6FeS2H2CFeSFeHS2FeS2FeS2FeSFeS3HCH3C2SH3FeSCFeS2FeSFeS2HC2FeS2FeSHSHFeS2FeS2FeSFeS3C6H4C6H7C7SH3CHC5H3CH2C6H4C2H2C2HFeH2C6H4C6H4C6H8CHFeCH2C4NCHC2HC3H3SCH6C2HCSH2SH2NH6CHC4H2C2NC3H10CH2CNC3HSC7SC3HSH4CH2NC9H15CSCHC3H3CSNC6H3C4H7NH2C2HCH2C6H6CH5CHNCH2C2HCHC2H2C2HCH5CH7NHSCH2CHCH3C4HC3H6CH2CFe2HCNFeSCFeS2Fe2S3FeS2FeS2CHFeS2FeS2FeSFeS3H2FeS2FeSHFeSFeS3FeS2C6H6NCHSHC6H7CHCHC6H3CNC2HC2HCHC3SCH3C7H4C6H5C6H2NC8H12FeHCH2SHSHCHC3NCHC7H4CH8NH2FeCH2CHC2H2SHCH3CH3CH3CH3CHCHCH2CHSFeC2H2SHC2HC4H4CH2CHCHSC2HC2HC2HC2H2CH5CHFeNCH4NH2CH2CHC2H3CFeH3CH3CH4C3HC4HCH2CH8CH3C2HC2H3CHCHC2H3CSCHCH2SCHCNCH2CH3SFeS2H2FeSCSFeSHFeS2FeSFeS3HCHC2HCH4FeS2FeS2FeCFeS3C6H2CN2C2HC4H8C8H6CHNH2CHC3H2C6H7SC2HC2HC4NHCHSHCHCH8CHC2H3C2H2CH5CHC2H4CHCH3SNH3CH3C3H3CH3C2H4C3NC9HCHSCH3CH2CH3CNH
_chemical_formula_sum              "S768 C2880 Fe384 H3456 N192"
_cell_length_a       71.4886
_cell_length_b       71.7953
_cell_length_c       71.7748
_cell_angle_alpha    78.2253
_cell_angle_beta     78.1034
_cell_angle_gamma    78.1038

_space_group_name_H-M_alt    "P 1"
_space_group_IT_number       1

loop_
  _space_group_symop_operation_xyz
  'x, y, z'

loop_
  _atom_site_type_symbol
  _atom_site_label
  _atom_site_symmetry_multiplicity
  _atom_site_fract_x
  _atom_site_fract_y
  _atom_site_fract_z
  _atom_site_occupancy
  S   S1        1.0  0.18690  0.10568  0.46552  1.0000
  C   C1        1.0  0.19421  0.22724  0.34662  1.0000
  C   C2        1.0  0.16563  0.22165  0.37058  1.0000
  S   S2        1.0  0.09516  0.15562  0.45711  1.0000
  Fe  Fe1       1.0  0.00871  0.11869  0.36626  1.0000
  C   C3        1.0  0.00395  0.18413  0.31078  1.0000
  H   H1        1.0  0.29866  0.04658  0.47382  1.0000
  Fe  Fe2       1.0  0.22978  0.15208  0.36819  1.0000
  S   S3        1.0  0.22527  0.17828  0.38192  1.0000
  S   S4        1.0  0.20476  0.13591  0.37572  1.0000
  Fe  Fe3       1.0  0.26848  0.16001  0.34381  1.0000
  S   S5        1.0  0.26663  0.18740  0.35515  1.0000
  H   H2        1.0  0.23633  0.15171  0.45154  1.0000
  Fe  Fe4       1.0  0.25685  0.16998  0.38392  1.0000
  S   S6        1.0  0.26674  0.16920  0.41190  1.0000
  Fe  Fe5       1.0  0.23517  0.19313  0.35195  1.0000
  H   H3        1.0  0.06968  0.23205  0.32024  1.0000
  S   S7        1.0  0.26055  0.14215  0.37297  1.0000
  S   S8        1.0  0.23790  0.16728  0.33789  1.0000
  C   C4        1.0  0.02576  0.14531  0.47721  1.0000
  C   C5        1.0  0.99516  0.15057  0.30312  1.0000
  C   C6        1.0  0.30840  0.00872  0.22202  1.0000
  Fe  Fe6       1.0  0.02707  0.12555  0.39929  1.0000
  S   S9        1.0  0.03940  0.11939  0.36919  1.0000
  S   S10       1.0  0.04446  0.11113  0.42323  1.0000
  C   C7        1.0  0.17622  0.19234  0.33029  1.0000
  H   H4        1.0  0.30708  0.06216  0.27888  1.0000
  C   C8        1.0  0.31464  0.06348  0.31569  1.0000
  H   H5        1.0  0.31420  0.05380  0.42112  1.0000
  C   C9        1.0  0.31432  0.14912  0.28736  1.0000
  Fe  Fe7       1.0  0.03236  0.15146  0.36069  1.0000
  S   S11       1.0  0.05390  0.16694  0.33879  1.0000
  H   H6        1.0  0.19123  0.19270  0.33224  1.0000
  S   S12       1.0  0.02156  0.15777  0.39076  1.0000
  C   C10       1.0  0.30246  0.19915  0.29197  1.0000
  H   H7        1.0  0.30272  0.10361  0.26080  1.0000
  H   H8        1.0  0.14252  0.20206  0.32135  1.0000
  H   H9        1.0  0.17670  0.19323  0.31455  1.0000
  C   C11       1.0  0.12193  0.15576  0.34690  1.0000
  H   H10       1.0  0.01916  0.22533  0.36367  1.0000
  H   H11       1.0  0.04765  0.13928  0.31900  1.0000
  S   S13       1.0  0.21930  0.22143  0.33801  1.0000
  C   C12       1.0  0.05980  0.22305  0.32931  1.0000
  C   C13       1.0  0.06242  0.20344  0.32786  1.0000
  C   C14       1.0  0.04960  0.19174  0.33949  1.0000
  C   C15       1.0  0.03388  0.19977  0.35218  1.0000
  C   C16       1.0  0.03114  0.21936  0.35352  1.0000
  H   H12       1.0  0.31299  0.04547  0.34383  1.0000
  H   H13       1.0  0.07442  0.19736  0.31777  1.0000
  H   H14       1.0  0.02387  0.19086  0.36108  1.0000
  C   C17       1.0  0.22517  0.21878  0.45774  1.0000
  H   H15       1.0  0.29917  0.11461  0.28157  1.0000
  C   C18       1.0  0.32069  0.15388  0.42476  1.0000
  H   H16       1.0  0.15808  0.18639  0.36792  1.0000
  C   C19       1.0  0.31257  0.06010  0.33586  1.0000
  H   H17       1.0  0.22922  0.15868  0.42819  1.0000
  C   C20       1.0  0.18579  0.21798  0.36453  1.0000
  C   C21       1.0  0.30980  0.06745  0.42624  1.0000
  H   H18       1.0  0.15925  0.21429  0.38440  1.0000
  H   H19       1.0  0.19478  0.20800  0.37376  1.0000
  C   C22       1.0  0.05889  0.12374  0.43195  1.0000
  C   C23       1.0  0.07402  0.11323  0.44161  1.0000
  C   C24       1.0  0.08539  0.12273  0.44924  1.0000
  C   C25       1.0  0.08142  0.14286  0.44769  1.0000
  C   C26       1.0  0.06626  0.15335  0.43809  1.0000
  C   C27       1.0  0.05514  0.14388  0.43016  1.0000
  H   H20       1.0  0.07706  0.09765  0.44305  1.0000
  H   H21       1.0  0.09729  0.11446  0.45615  1.0000
  H   H22       1.0  0.06313  0.16891  0.43674  1.0000
  H   H23       1.0  0.04346  0.15216  0.42297  1.0000
  C   C28       1.0  0.19154  0.11371  0.44049  1.0000
  C   C29       1.0  0.17645  0.12302  0.43044  1.0000
  C   C30       1.0  0.18053  0.12959  0.41046  1.0000
  C   C31       1.0  0.19975  0.12749  0.40065  1.0000
  C   C32       1.0  0.21484  0.11851  0.41078  1.0000
  C   C33       1.0  0.21069  0.11119  0.43057  1.0000
  H   H24       1.0  0.16162  0.12481  0.43800  1.0000
  H   H25       1.0  0.16879  0.13642  0.40267  1.0000
  H   H26       1.0  0.22968  0.11671  0.40323  1.0000
  H   H27       1.0  0.22236  0.10384  0.43828  1.0000
  C   C34       1.0  0.11102  0.17072  0.33599  1.0000
  H   H28       1.0  0.09020  0.22468  0.36517  1.0000
  H   H29       1.0  0.00734  0.19700  0.31413  1.0000
  C   C35       1.0  0.32227  0.19876  0.28560  1.0000
  C   C36       1.0  0.27986  0.15925  0.27237  1.0000
  C   C37       1.0  0.27930  0.15735  0.29233  1.0000
  H   H30       1.0  0.29134  0.21058  0.42611  1.0000
  H   H31       1.0  0.09646  0.16953  0.33472  1.0000
  C   C38       1.0  0.31132  0.17422  0.46822  1.0000
  H   H32       1.0  0.26647  0.16325  0.26659  1.0000
  H   H33       1.0  0.26554  0.15979  0.30187  1.0000
  H   H34       1.0  0.31806  0.21252  0.20254  1.0000
  C   C39       1.0  0.14065  0.15720  0.34876  1.0000
  C   C40       1.0  0.31421  0.07033  0.44380  1.0000
  H   H35       1.0  0.18008  0.14395  0.34478  1.0000
  C   C41       1.0  0.28404  0.19172  0.45304  1.0000
  C   C42       1.0  0.31487  0.15088  0.26743  1.0000
  C   C43       1.0  0.29738  0.20504  0.25877  1.0000
  H   H36       1.0  0.26890  0.19536  0.45176  1.0000
  C   C44       1.0  0.04085  0.12817  0.31545  1.0000
  N   N1        1.0  0.32500  0.05488  0.45665  1.0000
  C   C45       1.0  0.31476  0.08243  0.30487  1.0000
  H   H37       1.0  0.11018  0.19894  0.31856  1.0000
  S   S14       1.0  0.00308  0.15050  0.35513  1.0000
  C   C46       1.0  0.16924  0.17464  0.36234  1.0000
  H   H38       1.0  0.27466  0.20236  0.28368  1.0000
  H   H39       1.0  0.19855  0.17895  0.42416  1.0000
  N   N2        1.0  0.31784  0.08656  0.28347  1.0000
  H   H40       1.0  0.05255  0.11554  0.31323  1.0000
  C   C47       1.0  0.29005  0.20240  0.27859  1.0000
  C   C48       1.0  0.19252  0.17172  0.43876  1.0000
  C   C49       1.0  0.21444  0.20871  0.47361  1.0000
  H   H41       1.0  0.31249  0.98955  0.26617  1.0000
  H   H42       1.0  0.32139  0.11422  0.09516  1.0000
  C   C50       1.0  0.30060  0.15650  0.42573  1.0000
  S   S15       1.0  0.14761  0.15111  0.47031  1.0000
  C   C51       1.0  0.19787  0.15603  0.47053  1.0000
  H   H43       1.0  0.06031  0.20103  0.40897  1.0000
  H   H44       1.0  0.01739  0.12320  0.28072  1.0000
  C   C52       1.0  0.32004  0.20044  0.12861  1.0000
  C   C53       1.0  0.01495  0.15150  0.30270  1.0000
  H   H45       1.0  0.05267  0.15349  0.28498  1.0000
  H   H46       1.0  0.31167  0.11243  0.30847  1.0000
  H   H47       1.0  0.30890  0.23463  0.11191  1.0000
  H   H48       1.0  0.30990  0.09215  0.46217  1.0000
  H   H49       1.0  0.17939  0.18163  0.44449  1.0000
  H   H50       1.0  0.28580  0.11232  0.41057  1.0000
  H   H51       1.0  0.28727  0.09471  0.28264  1.0000
  N   N3        1.0  0.08649  0.20021  0.38785  1.0000
  C   C54       1.0  0.06572  0.20807  0.39405  1.0000
  C   C55       1.0  0.09790  0.20695  0.39953  1.0000
  C   C56       1.0  0.09241  0.20861  0.36735  1.0000
  C   C57       1.0  0.08934  0.17890  0.38983  1.0000
  C   C58       1.0  0.07818  0.17019  0.38091  1.0000
  C   C59       1.0  0.10309  0.16625  0.40040  1.0000
  C   C60       1.0  0.08018  0.15013  0.38296  1.0000
  C   C61       1.0  0.10513  0.14619  0.40216  1.0000
  C   C62       1.0  0.09355  0.13815  0.39365  1.0000
  C   C63       1.0  0.29683  0.20075  0.43815  1.0000
  H   H52       1.0  0.29662  0.08001  0.40105  1.0000
  H   H53       1.0  0.05628  0.20601  0.38438  1.0000
  H   H54       1.0  0.09412  0.20116  0.41521  1.0000
  C   C64       1.0  0.31671  0.19665  0.43830  1.0000
  H   H55       1.0  0.11380  0.20278  0.39475  1.0000
  H   H56       1.0  0.08403  0.20482  0.35767  1.0000
  H   H57       1.0  0.01463  0.11210  0.30595  1.0000
  H   H58       1.0  0.10809  0.20351  0.36227  1.0000
  H   H59       1.0  0.06765  0.17881  0.37243  1.0000
  H   H60       1.0  0.11206  0.17139  0.40798  1.0000
  H   H61       1.0  0.07105  0.14386  0.37646  1.0000
  H   H62       1.0  0.11516  0.13680  0.41092  1.0000
  H   H63       1.0  0.09460  0.12260  0.39574  1.0000
  H   H64       1.0  0.32285  0.07265  0.25840  1.0000
  C   C65       1.0  0.31019  0.07536  0.34586  1.0000
  N   N4        1.0  0.03106  0.13546  0.29842  1.0000
  C   C66       1.0  0.29728  0.10380  0.43705  1.0000
  C   C67       1.0  0.29762  0.15594  0.25988  1.0000
  H   H65       1.0  0.30024  0.22374  0.22013  1.0000
  C   C68       1.0  0.31232  0.05065  0.47560  1.0000
  C   C69       1.0  0.04420  0.23100  0.34223  1.0000
  H   H66       1.0  0.19392  0.14246  0.46849  1.0000
  C   C70       1.0  0.29967  0.08247  0.41445  1.0000
  S   S16       1.0  0.29778  0.15843  0.23497  1.0000
  H   H67       1.0  0.32125  0.21151  0.13696  1.0000
  C   C71       1.0  0.22399  0.15353  0.44372  1.0000
  C   C72       1.0  0.31205  0.09764  0.31559  1.0000
  C   C73       1.0  0.32089  0.23455  0.10000  1.0000
  H   H68       1.0  0.11581  0.14299  0.35402  1.0000
  C   C74       1.0  0.30376  0.17325  0.39274  1.0000
  N   N5        1.0  0.16901  0.17473  0.34172  1.0000
  H   H69       1.0  0.29726  0.18078  0.38036  1.0000
  C   C75       1.0  0.14915  0.17364  0.33946  1.0000
  H   H70       1.0  0.23793  0.22006  0.42770  1.0000
  C   C76       1.0  0.29095  0.17807  0.46857  1.0000
  H   H71       1.0  0.28695  0.20689  0.24931  1.0000
  H   H72       1.0  0.30900  0.02818  0.24092  1.0000
  C   C77       1.0  0.30969  0.09414  0.33575  1.0000
  H   H73       1.0  0.18410  0.16458  0.47703  1.0000
  H   H74       1.0  0.30741  0.10613  0.34354  1.0000
  H   H75       1.0  0.22065  0.13895  0.44439  1.0000
  N   N6        1.0  0.20687  0.16678  0.45202  1.0000
  S   S17       1.0  0.99976  0.10294  0.34574  1.0000
  C   C78       1.0  0.31755  0.20477  0.25176  1.0000
  H   H76       1.0  0.30873  0.07254  0.36148  1.0000
  C   C79       1.0  0.21285  0.18466  0.45426  1.0000
  C   C80       1.0  0.22358  0.19543  0.43834  1.0000
  C   C81       1.0  0.02468  0.11883  0.29361  1.0000
  H   H77       1.0  0.18243  0.15675  0.32031  1.0000
  C   C82       1.0  0.15368  0.23446  0.35868  1.0000
  Fe  Fe8       1.0  0.32491  0.14573  0.21644  1.0000
  H   H78       1.0  0.31536  0.13947  0.11545  1.0000
  H   H79       1.0  0.18771  0.15857  0.43669  1.0000
  H   H80       1.0  0.19808  0.15867  0.33630  1.0000
  C   C83       1.0  0.29353  0.10064  0.41979  1.0000
  H   H81       1.0  0.30375  0.19790  0.22070  1.0000
  S   S18       1.0  0.29641  0.14913  0.32480  1.0000
  H   H82       1.0  0.22734  0.19096  0.42432  1.0000
  C   C84       1.0  0.29654  0.15229  0.29985  1.0000
  H   H83       1.0  0.29158  0.15127  0.43891  1.0000
  C   C85       1.0  0.11879  0.18721  0.32689  1.0000
  C   C86       1.0  0.29207  0.16604  0.40977  1.0000
  H   H84       1.0  0.06333  0.22395  0.39385  1.0000
  H   H85       1.0  0.31481  0.06687  0.16372  1.0000
  H   H86       1.0  0.29240  0.11788  0.44124  1.0000
  H   H87       1.0  0.32218  0.03247  0.17647  1.0000
  H   H88       1.0  0.14842  0.14533  0.35764  1.0000
  H   H89       1.0  0.03711  0.10708  0.29036  1.0000
  C   C87       1.0  0.13754  0.18878  0.32859  1.0000
  C   C88       1.0  0.32391  0.17119  0.39193  1.0000
  C   C89       1.0  0.01884  0.16876  0.30673  1.0000
  H   H90       1.0  0.03035  0.12351  0.32847  1.0000
  H   H91       1.0  0.18364  0.17660  0.36459  1.0000
  C   C90       1.0  0.18289  0.15782  0.33545  1.0000
  H   H92       1.0  0.16636  0.16078  0.37163  1.0000
  H   H93       1.0  0.05727  0.13060  0.27752  1.0000
  H   H94       1.0  0.16708  0.20566  0.33491  1.0000
  H   H95       1.0  0.03344  0.17039  0.30712  1.0000
  C   C91       1.0  0.30737  0.08892  0.44893  1.0000
  C   C92       1.0  0.04543  0.14250  0.28175  1.0000
  C   C93       1.0  0.30105  0.10042  0.27686  1.0000
  Fe  Fe9       1.0  0.15808  0.11963  0.48014  1.0000
  H   H96       1.0  0.03838  0.14918  0.26894  1.0000
  S   S19       1.0  0.99682  0.12181  0.39723  1.0000
  S   S20       1.0  0.32427  0.12154  0.20134  1.0000
  C   C94       1.0  0.20823  0.19197  0.47195  1.0000
  H   H97       1.0  0.31631  0.05092  0.30898  1.0000
  H   H98       1.0  0.27892  0.14373  0.47027  1.0000
  H   H99       1.0  0.25349  0.17201  0.46960  1.0000
  N   N7        1.0  0.32592  0.20753  0.23090  1.0000
  H   H100      1.0  0.29299  0.01306  0.22179  1.0000
  H   H101      1.0  0.31938  0.18871  0.09530  1.0000
  C   C95       1.0  0.22969  0.21217  0.44012  1.0000
  C   C96       1.0  0.32023  0.06911  0.27449  1.0000
  C   C97       1.0  0.31127  0.21057  0.21809  1.0000
  H   H102      1.0  0.09527  0.22301  0.39790  1.0000
  H   H103      1.0  0.30540  0.20360  0.12447  1.0000
  H   H104      1.0  0.01329  0.13307  0.45863  1.0000
  C   C98       1.0  0.32393  0.18349  0.45336  1.0000
  Fe  Fe10      1.0  0.11821  0.14211  0.47594  1.0000
  C   C99       1.0  0.31745  0.01728  0.23266  1.0000
  C   C100      1.0  0.02237  0.13018  0.46963  1.0000
  H   H105      1.0  0.31948  0.03022  0.44701  1.0000
  H   H106      1.0  0.32069  0.18639  0.13875  1.0000
  H   H107      1.0  0.02933  0.09983  0.46887  1.0000
  H   H108      1.0  0.29671  0.19657  0.30732  1.0000
  H   H109      1.0  0.22985  0.23181  0.45908  1.0000
  C   C101      1.0  0.03139  0.11139  0.47551  1.0000
  C   C102      1.0  0.31907  0.99408  0.21215  1.0000
  H   H110      1.0  0.01910  0.15998  0.47216  1.0000
  H   H111      1.0  0.31772  0.16369  0.47926  1.0000
  H   H112      1.0  0.31838  0.05264  0.19900  1.0000
  H   H113      1.0  0.31190  0.98710  0.20421  1.0000
  H   H114      1.0  0.32660  0.20326  0.42644  1.0000
  Fe  Fe11      1.0  0.26702  0.21041  0.57048  1.0000
  S   S21       1.0  0.27756  0.18504  0.59174  1.0000
  Fe  Fe12      1.0  0.24537  0.18568  0.55405  1.0000
  S   S22       1.0  0.25472  0.15874  0.57459  1.0000
  S   S23       1.0  0.23238  0.18198  0.52886  1.0000
  Fe  Fe13      1.0  0.24736  0.17849  0.59667  1.0000
  S   S24       1.0  0.23346  0.17212  0.62806  1.0000
  Fe  Fe14      1.0  0.28374  0.16824  0.56745  1.0000
  C   C103      1.0  0.10887  0.22506  0.71370  1.0000
  S   S25       1.0  0.23608  0.20502  0.57669  1.0000
  S   S26       1.0  0.27511  0.19398  0.54569  1.0000
  H   H115      1.0  0.21082  0.21388  0.48735  1.0000
  S   S27       1.0  0.15528  0.12210  0.51132  1.0000
  S   S28       1.0  0.14908  0.17600  0.51612  1.0000
  Fe  Fe15      1.0  0.12510  0.11630  0.51420  1.0000
  S   S29       1.0  0.10916  0.10399  0.54318  1.0000
  S   S30       1.0  0.11244  0.14748  0.50652  1.0000
  Fe  Fe16      1.0  0.12267  0.13675  0.72030  1.0000
  S   S31       1.0  0.15380  0.13293  0.70552  1.0000
  S   S32       1.0  0.10806  0.15891  0.74009  1.0000
  Fe  Fe17      1.0  0.11407  0.10359  0.70311  1.0000
  S   S33       1.0  0.14439  0.09751  0.68729  1.0000
  S   S34       1.0  0.09055  0.08608  0.70440  1.0000
  Fe  Fe18      1.0  0.15313  0.10117  0.71440  1.0000
  S   S35       1.0  0.17959  0.08192  0.72392  1.0000
  Fe  Fe19      1.0  0.14236  0.12974  0.67966  1.0000
  S   S36       1.0  0.15326  0.14179  0.64851  1.0000
  S   S37       1.0  0.12295  0.10493  0.73113  1.0000
  S   S38       1.0  0.11099  0.13584  0.69358  1.0000
  C   C104      1.0  0.23841  0.21667  0.65387  1.0000
  C   C105      1.0  0.32147  0.11794  0.50979  1.0000
  H   H116      1.0  0.04060  0.15422  0.49552  1.0000
  Fe  Fe20      1.0  0.09070  0.00344  0.59549  1.0000
  S   S39       1.0  0.06226  0.00839  0.61569  1.0000
  S   S40       1.0  0.09509  0.01743  0.56406  1.0000
  Fe  Fe21      1.0  0.08121  0.00572  0.63812  1.0000
  S   S41       1.0  0.07191  0.02303  0.66287  1.0000
  H   H117      1.0  0.05576  0.00420  0.93106  1.0000
  S   S42       1.0  0.10954  0.00271  0.61735  1.0000
  C   C106      1.0  0.14075  0.00973  0.70036  1.0000
  Fe  Fe22      1.0  0.14633  0.00439  0.81196  1.0000
  S   S43       1.0  0.11572  0.01816  0.80933  1.0000
  S   S44       1.0  0.17368  0.01089  0.79211  1.0000
  S   S45       1.0  0.12912  0.11032  0.48382  1.0000
  C   C107      1.0  0.04848  0.02495  0.55155  1.0000
  H   H118      1.0  0.26346  0.18918  0.63517  1.0000
  Fe  Fe23      1.0  0.11141  0.01683  0.84139  1.0000
  H   H119      1.0  0.29165  0.11439  0.51987  1.0000
  C   C108      1.0  0.25703  0.17429  0.48326  1.0000
  S   S46       1.0  0.14275  0.00584  0.84335  1.0000
  H   H120      1.0  0.28680  0.13292  0.54668  1.0000
  H   H121      1.0  0.07552  0.11134  0.84849  1.0000
  H   H122      1.0  0.09320  0.02656  0.71113  1.0000
  C   C109      1.0  0.09579  0.13104  0.83674  1.0000
  C   C110      1.0  0.11981  0.00168  0.89905  1.0000
  H   H123      1.0  0.11822  0.15860  0.85196  1.0000
  H   H124      1.0  0.14926  0.14704  0.83037  1.0000
  Fe  Fe24      1.0  0.01221  0.12096  0.83846  1.0000
  S   S47       1.0  0.02898  0.13092  0.85664  1.0000
  S   S48       1.0  0.02128  0.09233  0.82796  1.0000
  Fe  Fe25      1.0  0.02566  0.15881  0.83585  1.0000
  S   S49       1.0  0.05000  0.17337  0.81805  1.0000
  S   S50       1.0  0.01055  0.14823  0.81671  1.0000
  C   C111      1.0  0.07789  0.21203  0.84322  1.0000
  C   C112      1.0  0.06278  0.20310  0.85486  1.0000
  C   C113      1.0  0.05381  0.19124  0.84734  1.0000
  C   C114      1.0  0.05984  0.18859  0.82811  1.0000
  C   C115      1.0  0.07459  0.19783  0.81645  1.0000
  C   C116      1.0  0.08391  0.20904  0.82412  1.0000
  H   H125      1.0  0.08658  0.00675  0.88379  1.0000
  H   H126      1.0  0.04244  0.18404  0.85646  1.0000
  H   H127      1.0  0.07917  0.19597  0.80150  1.0000
  H   H128      1.0  0.03474  0.03526  0.54999  1.0000
  H   H129      1.0  0.29799  0.14085  0.48372  1.0000
  H   H130      1.0  0.05714  0.08900  0.52270  1.0000
  C   C117      1.0  0.10497  0.09637  0.84460  1.0000
  C   C118      1.0  0.13952  0.02839  0.70381  1.0000
  H   H131      1.0  0.05858  0.01265  0.51847  1.0000
  H   H132      1.0  0.01014  0.99228  0.61032  1.0000
  C   C119      1.0  0.07448  0.05402  0.84994  1.0000
  C   C120      1.0  0.06391  0.06900  0.85957  1.0000
  C   C121      1.0  0.04722  0.08035  0.85327  1.0000
  C   C122      1.0  0.04105  0.07694  0.83721  1.0000
  C   C123      1.0  0.05123  0.06149  0.82798  1.0000
  C   C124      1.0  0.06795  0.05002  0.83433  1.0000
  H   H133      1.0  0.10875  0.21231  0.77334  1.0000
  H   H134      1.0  0.04639  0.05859  0.81569  1.0000
  H   H135      1.0  0.07587  0.03830  0.82698  1.0000
  H   H136      1.0  0.14188  0.07121  0.79764  1.0000
  H   H137      1.0  0.07077  0.98927  0.76193  1.0000
  H   H138      1.0  0.31736  0.21987  0.55481  1.0000
  H   H139      1.0  0.06270  0.01412  0.71256  1.0000
  C   C125      1.0  0.11991  0.17401  0.74884  1.0000
  C   C126      1.0  0.14014  0.17174  0.74615  1.0000
  C   C127      1.0  0.14900  0.18406  0.75323  1.0000
  C   C128      1.0  0.13782  0.19880  0.76306  1.0000
  C   C129      1.0  0.11757  0.20101  0.76588  1.0000
  C   C130      1.0  0.10869  0.18859  0.75889  1.0000
  H   H140      1.0  0.14897  0.16058  0.73850  1.0000
  H   H141      1.0  0.07317  0.13151  0.52944  1.0000
  H   H142      1.0  0.09302  0.19046  0.76108  1.0000
  C   C131      1.0  0.17674  0.06263  0.74321  1.0000
  C   C132      1.0  0.19341  0.04978  0.74754  1.0000
  C   C133      1.0  0.19208  0.03415  0.76267  1.0000
  C   C134      1.0  0.17410  0.03124  0.77377  1.0000
  C   C135      1.0  0.15725  0.04407  0.76958  1.0000
  C   C136      1.0  0.15857  0.05978  0.75420  1.0000
  H   H143      1.0  0.20746  0.05190  0.73916  1.0000
  H   H144      1.0  0.20512  0.02427  0.76583  1.0000
  H   H145      1.0  0.14328  0.04180  0.77802  1.0000
  H   H146      1.0  0.14561  0.06964  0.75092  1.0000
  C   C137      1.0  0.08679  0.06942  0.69084  1.0000
  C   C138      1.0  0.10070  0.06176  0.67612  1.0000
  C   C139      1.0  0.09655  0.04772  0.66682  1.0000
  C   C140      1.0  0.07844  0.04152  0.67218  1.0000
  C   C141      1.0  0.06471  0.04952  0.68660  1.0000
  C   C142      1.0  0.06884  0.06319  0.69584  1.0000
  H   H147      1.0  0.11460  0.06652  0.67204  1.0000
  H   H148      1.0  0.10732  0.04163  0.65571  1.0000
  H   H149      1.0  0.05064  0.04508  0.69074  1.0000
  H   H150      1.0  0.05794  0.06903  0.70702  1.0000
  C   C143      1.0  0.10585  0.07976  0.54868  1.0000
  C   C144      1.0  0.09857  0.07215  0.56779  1.0000
  C   C145      1.0  0.09555  0.05292  0.57273  1.0000
  C   C146      1.0  0.09942  0.04135  0.55846  1.0000
  C   C147      1.0  0.10634  0.04907  0.53926  1.0000
  C   C148      1.0  0.10974  0.06821  0.53438  1.0000
  H   H151      1.0  0.09536  0.08111  0.57886  1.0000
  H   H152      1.0  0.09010  0.04709  0.58754  1.0000
  H   H153      1.0  0.10940  0.04011  0.52819  1.0000
  H   H154      1.0  0.11541  0.07395  0.51963  1.0000
  C   C149      1.0  0.21082  0.16446  0.63327  1.0000
  C   C150      1.0  0.20255  0.16048  0.61879  1.0000
  C   C151      1.0  0.18472  0.15378  0.62358  1.0000
  C   C152      1.0  0.17516  0.15097  0.64283  1.0000
  C   C153      1.0  0.18339  0.15514  0.65723  1.0000
  C   C154      1.0  0.20116  0.16187  0.65246  1.0000
  H   H155      1.0  0.20994  0.16242  0.60395  1.0000
  H   H156      1.0  0.17844  0.15057  0.61237  1.0000
  H   H157      1.0  0.17602  0.15330  0.67203  1.0000
  H   H158      1.0  0.20746  0.16505  0.66368  1.0000
  C   C155      1.0  0.20855  0.17802  0.52988  1.0000
  C   C156      1.0  0.19255  0.19231  0.53414  1.0000
  C   C157      1.0  0.17428  0.19115  0.53044  1.0000
  C   C158      1.0  0.17177  0.17564  0.52257  1.0000
  C   C159      1.0  0.18748  0.16075  0.51935  1.0000
  C   C160      1.0  0.20588  0.16213  0.52264  1.0000
  C   C161      1.0  0.14817  0.99378  0.71318  1.0000
  H   H159      1.0  0.06627  0.03335  0.91183  1.0000
  H   H160      1.0  0.18562  0.14853  0.51368  1.0000
  H   H161      1.0  0.21820  0.15110  0.51909  1.0000
  C   C162      1.0  0.04384  0.10763  0.48902  1.0000
  H   H162      1.0  0.02198  0.22676  0.77801  1.0000
  H   H163      1.0  0.09166  0.00273  0.69536  1.0000
  C   C163      1.0  0.30072  0.13095  0.53727  1.0000
  C   C164      1.0  0.26928  0.20112  0.63854  1.0000
  N   N8        1.0  0.07510  0.11893  0.78436  1.0000
  C   C165      1.0  0.07416  0.12016  0.76368  1.0000
  C   C166      1.0  0.05723  0.11222  0.79595  1.0000
  C   C167      1.0  0.07475  0.13859  0.78809  1.0000
  C   C168      1.0  0.09324  0.10607  0.78889  1.0000
  C   C169      1.0  0.11157  0.11075  0.77936  1.0000
  C   C170      1.0  0.09337  0.08839  0.80216  1.0000
  C   C171      1.0  0.12888  0.09830  0.78252  1.0000
  C   C172      1.0  0.11075  0.07605  0.80524  1.0000
  C   C173      1.0  0.12846  0.08095  0.79539  1.0000
  H   H164      1.0  0.07536  0.10555  0.76002  1.0000
  H   H165      1.0  0.06033  0.12900  0.75983  1.0000
  H   H166      1.0  0.08600  0.12701  0.75390  1.0000
  H   H167      1.0  0.05588  0.09785  0.79326  1.0000
  H   H168      1.0  0.04381  0.12220  0.79241  1.0000
  H   H169      1.0  0.05675  0.11132  0.81172  1.0000
  H   H170      1.0  0.08656  0.14565  0.77857  1.0000
  H   H171      1.0  0.06095  0.14844  0.78550  1.0000
  H   H172      1.0  0.07604  0.13817  0.80335  1.0000
  H   H173      1.0  0.11263  0.12383  0.76892  1.0000
  H   H174      1.0  0.08024  0.08367  0.81028  1.0000
  H   H175      1.0  0.14268  0.10191  0.77459  1.0000
  H   H176      1.0  0.11044  0.06255  0.81534  1.0000
  H   H177      1.0  0.01792  0.98797  0.54107  1.0000
  N   N9        1.0  0.06150  0.11837  0.51078  1.0000
  C   C174      1.0  0.08108  0.11135  0.50056  1.0000
  H   H178      1.0  0.19449  0.20485  0.53926  1.0000
  C   C175      1.0  0.06478  0.99187  0.55313  1.0000
  C   C176      1.0  0.04761  0.12268  0.49711  1.0000
  H   H179      1.0  0.04852  0.14153  0.52682  1.0000
  C   C177      1.0  0.07876  0.00148  0.75548  1.0000
  H   H180      1.0  0.11692  0.17984  0.83370  1.0000
  H   H181      1.0  0.09034  0.03317  0.89880  1.0000
  H   H182      1.0  0.15128  0.99073  0.76933  1.0000
  H   H183      1.0  0.06308  0.00534  0.89730  1.0000
  H   H184      1.0  0.24098  0.21049  0.61794  1.0000
  H   H185      1.0  0.15009  0.99690  0.88632  1.0000
  H   H186      1.0  0.14846  0.14485  0.80579  1.0000
  Fe  Fe26      1.0  0.10988  0.98770  0.81723  1.0000
  H   H187      1.0  0.14482  0.16804  0.81249  1.0000
  H   H188      1.0  0.30821  0.06329  0.48328  1.0000
  H   H189      1.0  0.14490  0.04574  0.72262  1.0000
  H   H190      1.0  0.27403  0.13843  0.49611  1.0000
  H   H191      1.0  0.05203  0.02499  0.56592  1.0000
  S   S51       1.0  0.14275  0.22575  0.82295  1.0000
  C   C178      1.0  0.01798  0.21777  0.79233  1.0000
  S   S52       1.0  0.14991  0.21445  0.77073  1.0000
  C   C179      1.0  0.05594  0.10315  0.52723  1.0000
  C   C180      1.0  0.11274  0.16524  0.83825  1.0000
  S   S53       1.0  0.31334  0.15067  0.56003  1.0000
  C   C181      1.0  0.12516  0.21122  0.70942  1.0000
  H   H192      1.0  0.06055  0.03082  0.54104  1.0000
  H   H193      1.0  0.27100  0.16358  0.51550  1.0000
  H   H194      1.0  0.06866  0.07191  0.87189  1.0000
  H   H195      1.0  0.17628  0.99302  0.75947  1.0000
  S   S54       1.0  0.09610  0.04107  0.85740  1.0000
  Fe  Fe27      1.0  0.14297  0.15292  0.50191  1.0000
  C   C182      1.0  0.30050  0.22818  0.59530  1.0000
  H   H196      1.0  0.09664  0.16776  0.84169  1.0000
  C   C183      1.0  0.09067  0.11279  0.84369  1.0000
  N   N10       1.0  0.04694  0.00538  0.54882  1.0000
  C   C184      1.0  0.09690  0.98972  0.70475  1.0000
  S   S55       1.0  0.32424  0.10589  0.49010  1.0000
  N   N11       1.0  0.12051  0.15289  0.82316  1.0000
  H   H197      1.0  0.19974  0.18514  0.48477  1.0000
  C   C185      1.0  0.12971  0.11627  0.83126  1.0000
  H   H198      1.0  0.16467  0.18229  0.75088  1.0000
  N   N12       1.0  0.08153  0.00509  0.73403  1.0000
  C   C186      1.0  0.09138  0.02213  0.72708  1.0000
  H   H199      1.0  0.11609  0.01106  0.88603  1.0000
  H   H200      1.0  0.29582  0.16445  0.50627  1.0000
  H   H201      1.0  0.09191  0.10744  0.51042  1.0000
  H   H202      1.0  0.09578  0.16262  0.80849  1.0000
  N   N13       1.0  0.25496  0.21936  0.63789  1.0000
  H   H203      1.0  0.27357  0.19579  0.65295  1.0000
  H   H204      1.0  0.16219  0.20272  0.53302  1.0000
  C   C187      1.0  0.02995  0.99855  0.56204  1.0000
  H   H205      1.0  0.06563  0.10042  0.53822  1.0000
  H   H206      1.0  0.08303  0.03504  0.73326  1.0000
  C   C188      1.0  0.01162  0.99216  0.59498  1.0000
  H   H207      1.0  0.03714  0.00460  0.58813  1.0000
  H   H208      1.0  0.01115  0.20596  0.79008  1.0000
  H   H209      1.0  0.05283  0.02226  0.73497  1.0000
  H   H210      1.0  0.25239  0.18979  0.48471  1.0000
  H   H211      1.0  0.24776  0.16609  0.49518  1.0000
  H   H212      1.0  0.07398  0.00245  0.94528  1.0000
  H   H213      1.0  0.09615  0.21484  0.81535  1.0000
  H   H214      1.0  0.05427  0.99732  0.73315  1.0000
  C   C189      1.0  0.06284  0.13538  0.51897  1.0000
  N   N14       1.0  0.08460  0.00530  0.91458  1.0000
  C   C190      1.0  0.07879  0.00015  0.89783  1.0000
  H   H215      1.0  0.28274  0.20303  0.62790  1.0000
  S   S56       1.0  0.08923  0.22674  0.85257  1.0000
  C   C191      1.0  0.10532  0.99721  0.91526  1.0000
  C   C192      1.0  0.04616  0.00650  0.52807  1.0000
  H   H216      1.0  0.08412  0.14336  0.83642  1.0000
  H   H217      1.0  0.04078  0.10735  0.53458  1.0000
  N   N15       1.0  0.00486  0.22966  0.80601  1.0000
  H   H218      1.0  0.05101  0.09290  0.49255  1.0000
  C   C193      1.0  0.14511  0.22988  0.71900  1.0000
  C   C194      1.0  0.12441  0.09810  0.83836  1.0000
  H   H219      1.0  0.13541  0.08518  0.83896  1.0000
  H   H220      1.0  0.27398  0.22067  0.66712  1.0000
  H   H221      1.0  0.11467  0.17665  0.80031  1.0000
  S   S57       1.0  0.99819  0.17189  0.85326  1.0000
  C   C195      1.0  0.14566  0.03117  0.72009  1.0000
  H   H222      1.0  0.08601  0.12269  0.48854  1.0000
  C   C196      1.0  0.24746  0.22281  0.61944  1.0000
  H   H223      1.0  0.15577  0.20263  0.70901  1.0000
  C   C197      1.0  0.31274  0.23149  0.60687  1.0000
  H   H224      1.0  0.03166  0.21046  0.79761  1.0000
  C   C198      1.0  0.13940  0.99386  0.89915  1.0000
  H   H225      1.0  0.03994  0.22698  0.81731  1.0000
  C   C199      1.0  0.31616  0.13831  0.54060  1.0000
  H   H226      1.0  0.03257  0.01582  0.52413  1.0000
  H   H227      1.0  0.10101  0.08223  0.85001  1.0000
  H   H228      1.0  0.29756  0.21385  0.59637  1.0000
  H   H229      1.0  0.08164  0.09830  0.49425  1.0000
  H   H230      1.0  0.03896  0.09152  0.86108  1.0000
  C   C200      1.0  0.11550  0.13337  0.83038  1.0000
  C   C201      1.0  0.15304  0.01532  0.73301  1.0000
  H   H231      1.0  0.09287  0.99824  0.76077  1.0000
  N   N16       1.0  0.21476  0.09767  0.66972  1.0000
  C   C202      1.0  0.22218  0.07774  0.67882  1.0000
  C   C203      1.0  0.21591  0.11090  0.68275  1.0000
  C   C204      1.0  0.19400  0.09912  0.66871  1.0000
  C   C205      1.0  0.22581  0.10209  0.64995  1.0000
  C   C206      1.0  0.22625  0.09055  0.63592  1.0000
  C   C207      1.0  0.23613  0.11785  0.64392  1.0000
  C   C208      1.0  0.23644  0.09448  0.61710  1.0000
  C   C209      1.0  0.24631  0.12159  0.62508  1.0000
  C   C210      1.0  0.24645  0.10998  0.61170  1.0000
  H   H232      1.0  0.23796  0.07584  0.67917  1.0000
  H   H233      1.0  0.21454  0.07424  0.69399  1.0000
  H   H234      1.0  0.22001  0.06662  0.67112  1.0000
  H   H235      1.0  0.23113  0.11030  0.68452  1.0000
  H   H236      1.0  0.20750  0.10706  0.69752  1.0000
  H   H237      1.0  0.20961  0.12606  0.67735  1.0000
  H   H238      1.0  0.19144  0.08819  0.66101  1.0000
  H   H239      1.0  0.18511  0.09691  0.68337  1.0000
  H   H240      1.0  0.18807  0.11357  0.66110  1.0000
  H   H241      1.0  0.21855  0.07848  0.63937  1.0000
  H   H242      1.0  0.23635  0.12776  0.65331  1.0000
  H   H243      1.0  0.23648  0.08554  0.60660  1.0000
  H   H244      1.0  0.25392  0.13381  0.62073  1.0000
  H   H245      1.0  0.25425  0.11312  0.59708  1.0000
  N   N17       1.0  0.13653  0.13912  0.57412  1.0000
  C   C211      1.0  0.15148  0.12724  0.56172  1.0000
  C   C212      1.0  0.12014  0.14781  0.56362  1.0000
  C   C213      1.0  0.14534  0.15517  0.57691  1.0000
  C   C214      1.0  0.12945  0.12682  0.59243  1.0000
  C   C215      1.0  0.12106  0.11061  0.59210  1.0000
  C   C216      1.0  0.13033  0.13055  0.61093  1.0000
  C   C217      1.0  0.11394  0.09896  0.60915  1.0000
  C   C218      1.0  0.12308  0.11883  0.62790  1.0000
  C   C219      1.0  0.11488  0.10311  0.62702  1.0000
  H   H246      1.0  0.14549  0.11618  0.55699  1.0000
  H   H247      1.0  0.15777  0.13627  0.54824  1.0000
  H   H248      1.0  0.16359  0.11957  0.56947  1.0000
  H   H249      1.0  0.11381  0.13672  0.55935  1.0000
  H   H250      1.0  0.12478  0.15760  0.54998  1.0000
  H   H251      1.0  0.10828  0.15636  0.57266  1.0000
  H   H252      1.0  0.15814  0.14965  0.58430  1.0000
  H   H253      1.0  0.15056  0.16407  0.56285  1.0000
  H   H254      1.0  0.13467  0.16525  0.58542  1.0000
  H   H255      1.0  0.11987  0.10685  0.57861  1.0000
  H   H256      1.0  0.13655  0.14240  0.61282  1.0000
  H   H257      1.0  0.10760  0.08667  0.60850  1.0000
  H   H258      1.0  0.12385  0.12199  0.64186  1.0000
  H   H259      1.0  0.10922  0.09414  0.64024  1.0000
  H   H260      1.0  0.15786  0.01854  0.74509  1.0000
  H   H261      1.0  0.02457  0.22612  0.86612  1.0000
  C   C220      1.0  0.30348  0.12047  0.52210  1.0000
  C   C221      1.0  0.07122  0.99818  0.93216  1.0000
  H   H262      1.0  0.05826  0.20512  0.86977  1.0000
  C   C222      1.0  0.14171  0.15306  0.81778  1.0000
  C   C223      1.0  0.11177  0.16168  0.80571  1.0000
  H   H263      1.0  0.06847  0.14689  0.50752  1.0000
  C   C224      1.0  0.28243  0.14682  0.48356  1.0000
  C   C225      1.0  0.03823  0.14174  0.49071  1.0000
  H   H264      1.0  0.10603  0.01911  0.73116  1.0000
  H   H265      1.0  0.15942  0.23041  0.72134  1.0000
  H   H266      1.0  0.14502  0.11650  0.82662  1.0000
  H   H267      1.0  0.31875  0.21966  0.61711  1.0000
  H   H268      1.0  0.31966  0.03862  0.48548  1.0000
  H   H269      1.0  0.13390  0.04075  0.69382  1.0000
  H   H270      1.0  0.07019  0.01425  0.76175  1.0000
  H   H271      1.0  0.13617  0.00760  0.68756  1.0000
  C   C226      1.0  0.08170  0.02664  0.91239  1.0000
  H   H272      1.0  0.11772  0.15320  0.79377  1.0000
  C   C227      1.0  0.06202  0.00990  0.72845  1.0000
  C   C228      1.0  0.02706  0.99926  0.58208  1.0000
  C   C229      1.0  0.00099  0.21720  0.82504  1.0000
  H   H273      1.0  0.09480  0.22290  0.71195  1.0000
  C   C230      1.0  0.15435  0.99606  0.73004  1.0000
  H   H274      1.0  0.04718  0.99195  0.52438  1.0000
  H   H275      1.0  0.20799  0.15181  0.48114  1.0000
  H   H276      1.0  0.23107  0.20485  0.65243  1.0000
  S   S58       1.0  0.10304  0.98742  0.84932  1.0000
  H   H277      1.0  0.06695  0.99123  0.56818  1.0000
  H   H278      1.0  0.08613  0.03115  0.92455  1.0000
  H   H279      1.0  0.25925  0.22470  0.60679  1.0000
  H   H280      1.0  0.27820  0.18631  0.50431  1.0000
  N   N18       1.0  0.27795  0.16777  0.48430  1.0000
  H   H281      1.0  0.24304  0.21277  0.66823  1.0000
  C   C231      1.0  0.27352  0.23350  0.65622  1.0000
  H   H282      1.0  0.01453  0.21011  0.83074  1.0000
  H   H283      1.0  0.99339  0.20542  0.82416  1.0000
  H   H284      1.0  0.12370  0.19831  0.70456  1.0000
  Fe  Fe28      1.0  0.99941  0.14269  0.87199  1.0000
  C   C232      1.0  0.14323  0.21370  0.71192  1.0000
  C   C233      1.0  0.28095  0.17068  0.50331  1.0000
  H   H285      1.0  0.07801  0.99635  0.54348  1.0000
  H   H286      1.0  0.22740  0.23011  0.65399  1.0000
  C   C234      1.0  0.09302  0.98846  0.72515  1.0000
  C   C235      1.0  0.01660  0.98991  0.55582  1.0000
  Fe  Fe29      1.0  0.22106  0.37987  0.06155  1.0000
  S   S59       1.0  0.21166  0.40889  0.07064  1.0000
  S   S60       1.0  0.21766  0.37825  0.03150  1.0000
  Fe  Fe30      1.0  0.23798  0.36150  0.09787  1.0000
  S   S61       1.0  0.23022  0.38918  0.10980  1.0000
  S   S62       1.0  0.25283  0.33585  0.11669  1.0000
  Fe  Fe31      1.0  0.20172  0.39247  0.09987  1.0000
  S   S63       1.0  0.17193  0.40235  0.11649  1.0000
  Fe  Fe32      1.0  0.24080  0.40306  0.07965  1.0000
  S   S64       1.0  0.26028  0.42528  0.07189  1.0000
  S   S65       1.0  0.20856  0.36362  0.09004  1.0000
  S   S66       1.0  0.25109  0.37516  0.06847  1.0000
  Fe  Fe33      1.0  0.12408  0.40985  0.99827  1.0000
  S   S67       1.0  0.13938  0.43444  0.99697  1.0000
  S   S68       1.0  0.13093  0.38431  0.02124  1.0000
  H   H287      1.0  0.14114  0.36959  0.18681  1.0000
  H   H288      1.0  0.08545  0.37185  0.30776  1.0000
  C   C236      1.0  0.12031  0.38055  0.30113  1.0000
  C   C237      1.0  0.04244  0.39354  0.38082  1.0000
  C   C238      1.0  0.09890  0.42686  0.37883  1.0000
  Fe  Fe34      1.0  0.11057  0.45315  0.99473  1.0000
  H   H289      1.0  0.21957  0.43258  0.02135  1.0000
  H   H290      1.0  0.28563  0.31342  0.13316  1.0000
  S   S69       1.0  0.09456  0.42833  0.99812  1.0000
  S   S70       1.0  0.07980  0.26988  0.36491  1.0000
  H   H291      1.0  0.18208  0.36297  0.22456  1.0000
  H   H292      1.0  0.23671  0.45455  0.99677  1.0000
  H   H293      1.0  0.07014  0.45834  0.26945  1.0000
  Fe  Fe35      1.0  0.08386  0.29936  0.34902  1.0000
  S   S71       1.0  0.07037  0.29728  0.32430  1.0000
  S   S72       1.0  0.07448  0.32751  0.35967  1.0000
  H   H294      1.0  0.13503  0.39340  0.32422  1.0000
  H   H295      1.0  0.10448  0.34678  0.35502  1.0000
  Fe  Fe36      1.0  0.10078  0.28594  0.31125  1.0000
  S   S73       1.0  0.11406  0.29828  0.28114  1.0000
  H   H296      1.0  0.02111  0.34022  0.32667  1.0000
  S   S74       1.0  0.11450  0.28996  0.33526  1.0000
  H   H297      1.0  0.11083  0.33714  0.32628  1.0000
  H   H298      1.0  0.19372  0.42882  0.98238  1.0000
  H   H299      1.0  0.15544  0.47677  0.25299  1.0000
  H   H300      1.0  0.19968  0.42352  0.01675  1.0000
  H   H301      1.0  0.99724  0.47586  0.37684  1.0000
  N   N19       1.0  0.08110  0.43497  0.37020  1.0000
  H   H302      1.0  0.20868  0.35295  0.19936  1.0000
  H   H303      1.0  0.31877  0.29936  0.11824  1.0000
  H   H304      1.0  0.15293  0.25428  0.33179  1.0000
  C   C239      1.0  0.02412  0.47716  0.35682  1.0000
  H   H305      1.0  0.13538  0.37333  0.38422  1.0000
  Fe  Fe37      1.0  0.13863  0.42215  0.26585  1.0000
  S   S75       1.0  0.10661  0.42983  0.26756  1.0000
  S   S76       1.0  0.15327  0.41645  0.29162  1.0000
  Fe  Fe38      1.0  0.14564  0.42023  0.22319  1.0000
  S   S77       1.0  0.11391  0.42778  0.22093  1.0000
  S   S78       1.0  0.17230  0.41601  0.20060  1.0000
  Fe  Fe39      1.0  0.11313  0.44966  0.23951  1.0000
  S   S79       1.0  0.09860  0.47797  0.01190  1.0000
  Fe  Fe40      1.0  0.11001  0.40725  0.24921  1.0000
  S   S80       1.0  0.08692  0.38866  0.25943  1.0000
  S   S81       1.0  0.14506  0.44394  0.23947  1.0000
  S   S82       1.0  0.14177  0.39773  0.24980  1.0000
  C   C240      1.0  0.19073  0.35600  0.17732  1.0000
  C   C241      1.0  0.07489  0.40116  0.37245  1.0000
  C   C242      1.0  0.16562  0.48139  0.99664  1.0000
  H   H306      1.0  0.19583  0.45753  0.10002  1.0000
  H   H307      1.0  0.11483  0.34590  0.30115  1.0000
  H   H308      1.0  0.31804  0.41108  0.03025  1.0000
  H   H309      1.0  0.07374  0.44489  0.34187  1.0000
  H   H310      1.0  0.20419  0.32017  0.16982  1.0000
  C   C243      1.0  0.19420  0.35657  0.19597  1.0000
  H   H311      1.0  0.08260  0.47114  0.07332  1.0000
  H   H312      1.0  0.14510  0.39520  0.35387  1.0000
  Fe  Fe41      1.0  0.10937  0.25993  0.34859  1.0000
  C   C244      1.0  0.13379  0.45676  0.33618  1.0000
  C   C245      1.0  0.14773  0.44015  0.33903  1.0000
  C   C246      1.0  0.15393  0.42831  0.32493  1.0000
  C   C247      1.0  0.14597  0.43273  0.30801  1.0000
  C   C248      1.0  0.13217  0.44950  0.30488  1.0000
  C   C249      1.0  0.12625  0.46168  0.31890  1.0000
  H   H313      1.0  0.15375  0.43640  0.35223  1.0000
  H   H314      1.0  0.16484  0.41555  0.32721  1.0000
  H   H315      1.0  0.12607  0.45302  0.29175  1.0000
  H   H316      1.0  0.18874  0.24807  0.32124  1.0000
  C   C250      1.0  0.01378  0.44756  0.34197  1.0000
  C   C251      1.0  0.03128  0.45448  0.33420  1.0000
  C   C252      1.0  0.03630  0.46934  0.34136  1.0000
  C   C253      1.0  0.00005  0.30893  0.31003  1.0000
  C   C254      1.0  0.16205  0.24429  0.34103  1.0000
  H   H317      1.0  0.01025  0.34097  0.28687  1.0000
  H   H318      1.0  0.04101  0.44825  0.32259  1.0000
  H   H319      1.0  0.16141  0.44802  0.14885  1.0000
  H   H320      1.0  0.19470  0.36761  0.13788  1.0000
  C   C255      1.0  0.06775  0.42081  0.37431  1.0000
  C   C256      1.0  0.10651  0.32338  0.27484  1.0000
  C   C257      1.0  0.08758  0.33208  0.28153  1.0000
  C   C258      1.0  0.08168  0.35206  0.27648  1.0000
  C   C259      1.0  0.09474  0.36357  0.26495  1.0000
  C   C260      1.0  0.11371  0.35496  0.25825  1.0000
  C   C261      1.0  0.11951  0.33486  0.26301  1.0000
  H   H321      1.0  0.07729  0.32336  0.29013  1.0000
  H   H322      1.0  0.06695  0.35861  0.28156  1.0000
  H   H323      1.0  0.12382  0.36370  0.24920  1.0000
  H   H324      1.0  0.13413  0.32821  0.25769  1.0000
  C   C262      1.0  0.04914  0.33219  0.36474  1.0000
  C   C263      1.0  0.03933  0.35123  0.36186  1.0000
  C   C264      1.0  0.01907  0.35518  0.36642  1.0000
  C   C265      1.0  0.00862  0.34007  0.37391  1.0000
  C   C266      1.0  0.01839  0.32097  0.37648  1.0000
  C   C267      1.0  0.03867  0.31701  0.37170  1.0000
  H   H325      1.0  0.04737  0.36292  0.35596  1.0000
  H   H326      1.0  0.01157  0.36996  0.36449  1.0000
  H   H327      1.0  0.01031  0.30929  0.38226  1.0000
  H   H328      1.0  0.04623  0.30227  0.37388  1.0000
  H   H329      1.0  0.16688  0.36090  0.16080  1.0000
  S   S83       1.0  0.09828  0.25476  0.32331  1.0000
  H   H330      1.0  0.09514  0.42096  0.39446  1.0000
  C   C268      1.0  0.22251  0.36185  0.15959  1.0000
  H   H331      1.0  0.05394  0.46200  0.29144  1.0000
  H   H332      1.0  0.23437  0.35858  0.14731  1.0000
  C   C269      1.0  0.99907  0.34333  0.29987  1.0000
  H   H333      1.0  0.02340  0.31472  0.33411  1.0000
  N   N20       1.0  0.17218  0.47427  0.11679  1.0000
  C   C270      1.0  0.13384  0.48116  0.04912  1.0000
  C   C271      1.0  0.00678  0.46997  0.36486  1.0000
  H   H334      1.0  0.00008  0.35728  0.30378  1.0000
  C   C272      1.0  0.04726  0.42635  0.37871  1.0000
  H   H335      1.0  0.07553  0.45128  0.20772  1.0000
  C   C273      1.0  0.17356  0.48095  0.22571  1.0000
  C   C274      1.0  0.06201  0.45665  0.21651  1.0000
  C   C275      1.0  0.17154  0.40686  0.13974  1.0000
  C   C276      1.0  0.15407  0.40870  0.15294  1.0000
  C   C277      1.0  0.15391  0.41170  0.17177  1.0000
  C   C278      1.0  0.17126  0.41279  0.17731  1.0000
  C   C279      1.0  0.18851  0.41149  0.16392  1.0000
  C   C280      1.0  0.18863  0.40862  0.14520  1.0000
  H   H336      1.0  0.14073  0.40751  0.14874  1.0000
  H   H337      1.0  0.14050  0.41286  0.18204  1.0000
  H   H338      1.0  0.20188  0.41272  0.16807  1.0000
  H   H339      1.0  0.20196  0.40802  0.13497  1.0000
  C   C281      1.0  0.19373  0.37897  0.02869  1.0000
  C   C282      1.0  0.18782  0.38830  0.01124  1.0000
  C   C283      1.0  0.16869  0.38945  0.00868  1.0000
  C   C284      1.0  0.15544  0.38098  0.02350  1.0000
  C   C285      1.0  0.16154  0.37101  0.04073  1.0000
  C   C286      1.0  0.18060  0.37029  0.04347  1.0000
  H   H340      1.0  0.19798  0.39499  0.99986  1.0000
  H   H341      1.0  0.16419  0.39685  0.99521  1.0000
  H   H342      1.0  0.15144  0.36415  0.05210  1.0000
  H   H343      1.0  0.18522  0.36277  0.05686  1.0000
  C   C287      1.0  0.27871  0.43279  0.00649  1.0000
  C   C288      1.0  0.28791  0.44116  0.01729  1.0000
  C   C289      1.0  0.28215  0.43913  0.03747  1.0000
  C   C290      1.0  0.26738  0.42858  0.04672  1.0000
  C   C291      1.0  0.25849  0.42005  0.03583  1.0000
  C   C292      1.0  0.26408  0.42223  0.01581  1.0000
  H   H344      1.0  0.29550  0.39784  0.05860  1.0000
  H   H345      1.0  0.28906  0.44575  0.04588  1.0000
  H   H346      1.0  0.24714  0.41188  0.04274  1.0000
  H   H347      1.0  0.25702  0.41569  0.00755  1.0000
  C   C293      1.0  0.07222  0.45311  0.37790  1.0000
  C   C294      1.0  0.29980  0.31924  0.07747  1.0000
  C   C295      1.0  0.28123  0.32748  0.08587  1.0000
  C   C296      1.0  0.27608  0.32552  0.10595  1.0000
  C   C297      1.0  0.28957  0.31508  0.11761  1.0000
  C   C298      1.0  0.11832  0.34757  0.31507  1.0000
  C   C299      1.0  0.00157  0.45532  0.35745  1.0000
  H   H348      1.0  0.27077  0.33503  0.07678  1.0000
  H   H349      1.0  0.08299  0.46280  0.37625  1.0000
  H   H350      1.0  0.11487  0.34927  0.38447  1.0000
  C   C300      1.0  0.12665  0.47562  0.03454  1.0000
  C   C301      1.0  0.15434  0.46503  0.17112  1.0000
  H   H351      1.0  0.09568  0.42748  0.34255  1.0000
  C   C302      1.0  0.21536  0.32952  0.16766  1.0000
  C   C303      1.0  0.13011  0.38355  0.33692  1.0000
  H   H352      1.0  0.08545  0.38750  0.32439  1.0000
  C   C304      1.0  0.16070  0.46225  0.15195  1.0000
  H   H353      1.0  0.09013  0.39604  0.36805  1.0000
  C   C305      1.0  0.11861  0.36972  0.33648  1.0000
  C   C306      1.0  0.13057  0.37248  0.37109  1.0000
  H   H354      1.0  0.30355  0.32065  0.06192  1.0000
  C   C307      1.0  0.17106  0.36069  0.17447  1.0000
  N   N21       1.0  0.20703  0.35012  0.16205  1.0000
  C   C308      1.0  0.13602  0.38478  0.35399  1.0000
  C   C309      1.0  0.15999  0.36658  0.20732  1.0000
  H   H355      1.0  0.11566  0.47462  0.31649  1.0000
  H   H356      1.0  0.14784  0.47396  0.05263  1.0000
  S   S84       1.0  0.04084  0.25535  0.34455  1.0000
  H   H357      1.0  0.04961  0.47473  0.33495  1.0000
  C   C310      1.0  0.15599  0.36576  0.18936  1.0000
  N   N22       1.0  0.11223  0.36777  0.31868  1.0000
  H   H358      1.0  0.04038  0.44110  0.37953  1.0000
  H   H359      1.0  0.11328  0.47531  0.19826  1.0000
  H   H360      1.0  0.09065  0.47653  0.10349  1.0000
  H   H361      1.0  0.22883  0.37199  0.98612  1.0000
  H   H362      1.0  0.13424  0.34279  0.31448  1.0000
  H   H363      1.0  0.27843  0.39805  0.98159  1.0000
  H   H364      1.0  0.10812  0.43799  0.37754  1.0000
  C   C311      1.0  0.04744  0.46904  0.20770  1.0000
  H   H365      1.0  0.09526  0.45191  0.34513  1.0000
  Fe  Fe42      1.0  0.06894  0.26681  0.33878  1.0000
  H   H366      1.0  0.16033  0.46533  0.09523  1.0000
  H   H367      1.0  0.11545  0.39610  0.30227  1.0000
  H   H368      1.0  0.04254  0.42979  0.29267  1.0000
  H   H369      1.0  0.21376  0.34837  0.13164  1.0000
  C   C312      1.0  0.15706  0.46636  0.11089  1.0000
  H   H370      1.0  0.08357  0.36252  0.33295  1.0000
  H   H371      1.0  0.22410  0.41488  0.00613  1.0000
  H   H372      1.0  0.01412  0.47801  0.24700  1.0000
  N   N23       1.0  0.21194  0.44343  0.99292  1.0000
  H   H373      1.0  0.11551  0.37855  0.28797  1.0000
  S   S85       1.0  0.12533  0.47004  0.35522  1.0000
  C   C313      1.0  0.19932  0.46981  0.01289  1.0000
  C   C314      1.0  0.03026  0.47640  0.21899  1.0000
  S   S86       1.0  0.12837  0.23641  0.36564  1.0000
  H   H374      1.0  0.25310  0.37989  0.00115  1.0000
  H   H375      1.0  0.22755  0.32449  0.15633  1.0000
  H   H376      1.0  0.06071  0.46187  0.36995  1.0000
  C   C315      1.0  0.06241  0.38770  0.37602  1.0000
  H   H377      1.0  0.22968  0.35914  0.17243  1.0000
  H   H378      1.0  0.22126  0.32687  0.18131  1.0000
  H   H379      1.0  0.10858  0.41540  0.37145  1.0000
  H   H380      1.0  0.15560  0.45155  0.11873  1.0000
  H   H381      1.0  0.21661  0.37752  0.15670  1.0000
  H   H382      1.0  0.19068  0.34281  0.14314  1.0000
  C   C316      1.0  0.17905  0.36200  0.21062  1.0000
  C   C317      1.0  0.08674  0.43996  0.34901  1.0000
  N   N24       1.0  0.13078  0.41665  0.06893  1.0000
  C   C318      1.0  0.14670  0.40466  0.07873  1.0000
  C   C319      1.0  0.11743  0.40377  0.06774  1.0000
  C   C320      1.0  0.13964  0.42452  0.04907  1.0000
  C   C321      1.0  0.11976  0.43271  0.07891  1.0000
  C   C322      1.0  0.12384  0.43604  0.09644  1.0000
  C   C323      1.0  0.10434  0.44566  0.07106  1.0000
  C   C324      1.0  0.11324  0.45158  0.10525  1.0000
  C   C325      1.0  0.09393  0.46116  0.07995  1.0000
  C   C326      1.0  0.09847  0.46422  0.09691  1.0000
  H   H383      1.0  0.14111  0.39767  0.09360  1.0000
  H   H384      1.0  0.15474  0.39278  0.07087  1.0000
  H   H385      1.0  0.15763  0.41338  0.07952  1.0000
  H   H386      1.0  0.10967  0.39835  0.08232  1.0000
  H   H387      1.0  0.12531  0.39103  0.06107  1.0000
  H   H388      1.0  0.10636  0.41112  0.05859  1.0000
  H   H389      1.0  0.14880  0.43525  0.04927  1.0000
  H   H390      1.0  0.14894  0.41298  0.04143  1.0000
  H   H391      1.0  0.12854  0.43171  0.03992  1.0000
  H   H392      1.0  0.13519  0.42693  0.10362  1.0000
  H   H393      1.0  0.10046  0.44417  0.05770  1.0000
  H   H394      1.0  0.11655  0.45393  0.11857  1.0000
  H   H395      1.0  0.00977  0.45565  0.27653  1.0000
  C   C327      1.0  0.25315  0.38480  0.98579  1.0000
  N   N25       1.0  0.04076  0.45478  0.26992  1.0000
  C   C328      1.0  0.05496  0.46411  0.27551  1.0000
  C   C329      1.0  0.02119  0.46190  0.28039  1.0000
  C   C330      1.0  0.04511  0.43358  0.27659  1.0000
  C   C331      1.0  0.04236  0.45911  0.24862  1.0000
  C   C332      1.0  0.18527  0.48515  0.01873  1.0000
  C   C333      1.0  0.05960  0.45177  0.23663  1.0000
  C   C334      1.0  0.11319  0.35760  0.35422  1.0000
  C   C335      1.0  0.30832  0.30709  0.10918  1.0000
  H   H396      1.0  0.14831  0.37103  0.21861  1.0000
  H   H397      1.0  0.29900  0.44966  0.01004  1.0000
  H   H398      1.0  0.02019  0.45772  0.29635  1.0000
  H   H399      1.0  0.21209  0.46577  0.01966  1.0000
  C   C336      1.0  0.32055  0.39578  0.03608  1.0000
  C   C337      1.0  0.19053  0.46017  0.11514  1.0000
  H   H400      1.0  0.01927  0.41748  0.38493  1.0000
  C   C338      1.0  0.02060  0.32657  0.32178  1.0000
  H   H401      1.0  0.07165  0.44271  0.24274  1.0000
  C   C339      1.0  0.01564  0.29306  0.30878  1.0000
  H   H402      1.0  0.03287  0.32487  0.30952  1.0000
  C   C340      1.0  0.31348  0.30931  0.08908  1.0000
  H   H403      1.0  0.13648  0.37753  0.29830  1.0000
  C   C341      1.0  0.31075  0.36870  0.05931  1.0000
  C   C342      1.0  0.32143  0.25179  0.08676  1.0000
  C   C343      1.0  0.11909  0.35896  0.37121  1.0000
  C   C344      1.0  0.03488  0.41285  0.38187  1.0000
  C   C345      1.0  0.20117  0.35238  0.14291  1.0000
  C   C346      1.0  0.17958  0.46605  0.99066  1.0000
  H   H404      1.0  0.06046  0.42721  0.27168  1.0000
  H   H405      1.0  0.20217  0.46534  0.11987  1.0000
  C   C347      1.0  0.19694  0.45980  0.99862  1.0000
  C   C348      1.0  0.09076  0.37264  0.32109  1.0000
  H   H406      1.0  0.06595  0.45014  0.39352  1.0000
  H   H407      1.0  0.14267  0.47586  0.11342  1.0000
  N   N26       1.0  0.00165  0.32701  0.31605  1.0000
  C   C349      1.0  0.23089  0.45000  0.98550  1.0000
  H   H408      1.0  0.03578  0.42592  0.27121  1.0000
  H   H409      1.0  0.06818  0.37267  0.37489  1.0000
  H   H410      1.0  0.18106  0.46610  0.22760  1.0000
  H   H411      1.0  0.02967  0.29325  0.31211  1.0000
  H   H412      1.0  0.02535  0.26397  0.30310  1.0000
  H   H413      1.0  0.31033  0.26438  0.08887  1.0000
  H   H414      1.0  0.15028  0.45313  0.18222  1.0000
  H   H415      1.0  0.13518  0.46446  0.02676  1.0000
  S   S87       1.0  0.00785  0.42961  0.33139  1.0000
  H   H416      1.0  0.01754  0.47794  0.27760  1.0000
  C   C350      1.0  0.02765  0.47158  0.23915  1.0000
  C   C351      1.0  0.16607  0.47751  0.13708  1.0000
  C   C352      1.0  0.21389  0.42802  0.01000  1.0000
  H   H417      1.0  0.30068  0.36299  0.07163  1.0000
  C   C353      1.0  0.01336  0.27603  0.30353  1.0000
  H   H418      1.0  0.18882  0.44590  0.12419  1.0000
  H   H419      1.0  0.03272  0.38316  0.38349  1.0000
  C   C354      1.0  0.30779  0.38837  0.05197  1.0000
  C   C355      1.0  0.10854  0.48471  0.02986  1.0000
  C   C356      1.0  0.18232  0.24073  0.33506  1.0000
  H   H420      1.0  0.05269  0.47995  0.27001  1.0000
  S   S88       1.0  0.09538  0.47941  0.23795  1.0000
  H   H421      1.0  0.04964  0.47322  0.19212  1.0000
  C   C357      1.0  0.15322  0.48303  0.17608  1.0000
  H   H422      1.0  0.32571  0.23773  0.22994  1.0000
  H   H423      1.0  0.00057  0.25399  0.38141  1.0000
  H   H424      1.0  0.99887  0.27942  0.37411  1.0000
  C   C358      1.0  0.99567  0.27430  0.29931  1.0000
  H   H425      1.0  0.99648  0.25085  0.35024  1.0000
  H   H426      1.0  0.99385  0.26097  0.29555  1.0000
  H   H427      1.0  0.99350  0.27635  0.34210  1.0000
  C   C359      1.0  0.32656  0.35633  0.05087  1.0000
  S   S89       1.0  0.28330  0.43710  0.98124  1.0000
  H   H428      1.0  0.14800  0.48520  0.19091  1.0000
  Fe  Fe43      1.0  0.14338  0.43567  0.96499  1.0000
  S   S90       1.0  0.99500  0.39644  0.88856  1.0000
  C   C360      1.0  0.12355  0.27933  0.71823  1.0000
  C   C361      1.0  0.05519  0.38978  0.92074  1.0000
  Fe  Fe44      1.0  0.31420  0.43074  0.96648  1.0000
  C   C362      1.0  0.29228  0.24334  0.58228  1.0000
  H   H429      1.0  0.24353  0.28647  0.79701  1.0000
  C   C363      1.0  0.20475  0.38672  0.95748  1.0000
  H   H430      1.0  0.21662  0.34979  0.78685  1.0000
  C   C364      1.0  0.31741  0.24989  0.60525  1.0000
  C   C365      1.0  0.06836  0.38279  0.93376  1.0000
  S   S91       1.0  0.17258  0.44087  0.94806  1.0000
  C   C366      1.0  0.13669  0.37670  0.91098  1.0000
  C   C367      1.0  0.05809  0.42251  0.92284  1.0000
  C   C368      1.0  0.15137  0.37035  0.89645  1.0000
  H   H431      1.0  0.15770  0.41287  0.86791  1.0000
  H   H432      1.0  0.15730  0.35510  0.89704  1.0000
  H   H433      1.0  0.01703  0.28739  0.86071  1.0000
  Fe  Fe45      1.0  0.24675  0.35928  0.84091  1.0000
  S   S92       1.0  0.24481  0.33356  0.86468  1.0000
  S   S93       1.0  0.26738  0.35366  0.81349  1.0000
  Fe  Fe46      1.0  0.21658  0.38550  0.86476  1.0000
  S   S94       1.0  0.21258  0.36182  0.88997  1.0000
  S   S95       1.0  0.19981  0.41545  0.86602  1.0000
  Fe  Fe47      1.0  0.24524  0.35468  0.88398  1.0000
  S   S96       1.0  0.26324  0.34867  0.90798  1.0000
  Fe  Fe48      1.0  0.21244  0.34357  0.86783  1.0000
  S   S97       1.0  0.18636  0.32887  0.86996  1.0000
  S   S98       1.0  0.24916  0.37955  0.85991  1.0000
  S   S99       1.0  0.21453  0.36808  0.84289  1.0000
  H   H434      1.0  0.28722  0.39461  0.83316  1.0000
  S   S100      1.0  0.03428  0.37905  0.85926  1.0000
  H   H435      1.0  0.20143  0.40265  0.95698  1.0000
  S   S101      1.0  0.01033  0.35039  0.89307  1.0000
  S   S102      1.0  0.02900  0.32481  0.85187  1.0000
  Fe  Fe49      1.0  0.15103  0.25500  0.82090  1.0000
  S   S103      1.0  0.14879  0.26337  0.78935  1.0000
  S   S104      1.0  0.17796  0.25911  0.83105  1.0000
  H   H436      1.0  0.29987  0.35446  0.78240  1.0000
  Fe  Fe50      1.0  0.11791  0.27563  0.80032  1.0000
  S   S105      1.0  0.10262  0.30497  0.78886  1.0000
  S   S106      1.0  0.12059  0.26869  0.83166  1.0000
  C   C369      1.0  0.26714  0.29212  0.77452  1.0000
  C   C370      1.0  0.04976  0.32021  0.83451  1.0000
  C   C371      1.0  0.05890  0.30102  0.83437  1.0000
  C   C372      1.0  0.07511  0.29647  0.82038  1.0000
  C   C373      1.0  0.08226  0.31106  0.80633  1.0000
  C   C374      1.0  0.07321  0.33034  0.80649  1.0000
  C   C375      1.0  0.05703  0.33496  0.82071  1.0000
  H   H437      1.0  0.05342  0.28958  0.84509  1.0000
  H   H438      1.0  0.08185  0.28156  0.82032  1.0000
  H   H439      1.0  0.07874  0.34168  0.79565  1.0000
  H   H440      1.0  0.04996  0.34982  0.82075  1.0000
  C   C376      1.0  0.18016  0.27906  0.84115  1.0000
  C   C377      1.0  0.19742  0.27879  0.84781  1.0000
  C   C378      1.0  0.19974  0.29414  0.85617  1.0000
  C   C379      1.0  0.18487  0.31009  0.85783  1.0000
  C   C380      1.0  0.16769  0.31048  0.85098  1.0000
  C   C381      1.0  0.16533  0.29510  0.84264  1.0000
  H   H441      1.0  0.20891  0.26639  0.84688  1.0000
  H   H442      1.0  0.21280  0.29334  0.86190  1.0000
  H   H443      1.0  0.15610  0.32274  0.85221  1.0000
  H   H444      1.0  0.15202  0.29556  0.83750  1.0000
  C   C382      1.0  0.27930  0.36402  0.90959  1.0000
  C   C383      1.0  0.28247  0.38023  0.89552  1.0000
  H   H445      1.0  0.07226  0.36738  0.93821  1.0000
  S   S107      1.0  0.31031  0.42191  0.76652  1.0000
  S   S108      1.0  0.13040  0.40948  0.96629  1.0000
  C   C384      1.0  0.28960  0.35948  0.92508  1.0000
  H   H446      1.0  0.27465  0.38402  0.88358  1.0000
  C   C385      1.0  0.29809  0.40174  0.83670  1.0000
  H   H447      1.0  0.24428  0.35379  0.94460  1.0000
  H   H448      1.0  0.28720  0.34708  0.93613  1.0000
  H   H449      1.0  0.22520  0.35196  0.96495  1.0000
  C   C386      1.0  0.18003  0.43314  0.92558  1.0000
  C   C387      1.0  0.17722  0.41519  0.92291  1.0000
  C   C388      1.0  0.18403  0.40921  0.90486  1.0000
  C   C389      1.0  0.19298  0.42148  0.88931  1.0000
  C   C390      1.0  0.19550  0.43947  0.89204  1.0000
  C   C391      1.0  0.18947  0.44508  0.91021  1.0000
  H   H450      1.0  0.16976  0.40597  0.93470  1.0000
  H   H451      1.0  0.18190  0.39534  0.90285  1.0000
  H   H452      1.0  0.20232  0.44905  0.88008  1.0000
  S   S109      1.0  0.08112  0.43250  0.94438  1.0000
  H   H453      1.0  0.29085  0.24597  0.67013  1.0000
  C   C392      1.0  0.30977  0.26501  0.59173  1.0000
  C   C393      1.0  0.29711  0.26175  0.58042  1.0000
  H   H454      1.0  0.17006  0.37868  0.86982  1.0000
  H   H455      1.0  0.04036  0.28715  0.81212  1.0000
  H   H456      1.0  0.99585  0.31053  0.84371  1.0000
  H   H457      1.0  0.05403  0.43793  0.91853  1.0000
  H   H458      1.0  0.29095  0.27358  0.57029  1.0000
  H   H459      1.0  0.32609  0.40534  0.85435  1.0000
  H   H460      1.0  0.20622  0.44551  0.96413  1.0000
  H   H461      1.0  0.22304  0.40491  0.92448  1.0000
  C   C394      1.0  0.01036  0.27470  0.86310  1.0000
  H   H462      1.0  0.29863  0.41533  0.82598  1.0000
  C   C395      1.0  0.13633  0.41042  0.89484  1.0000
  C   C396      1.0  0.20748  0.43475  0.97760  1.0000
  C   C397      1.0  0.13828  0.44405  0.87827  1.0000
  C   C398      1.0  0.24417  0.31745  0.78980  1.0000
  H   H463      1.0  0.19174  0.45894  0.91221  1.0000
  C   C399      1.0  0.15116  0.40342  0.88012  1.0000
  C   C400      1.0  0.25075  0.29775  0.78790  1.0000
  C   C401      1.0  0.29773  0.40296  0.77821  1.0000
  C   C402      1.0  0.30435  0.38409  0.77455  1.0000
  C   C403      1.0  0.29456  0.36909  0.78507  1.0000
  C   C404      1.0  0.27834  0.37288  0.79941  1.0000
  C   C405      1.0  0.27148  0.39180  0.80273  1.0000
  C   C406      1.0  0.28115  0.40679  0.79212  1.0000
  H   H464      1.0  0.10632  0.42938  0.87792  1.0000
  C   C407      1.0  0.02268  0.25683  0.86301  1.0000
  H   H465      1.0  0.25882  0.39487  0.81356  1.0000
  H   H466      1.0  0.27589  0.42140  0.79486  1.0000
  Fe  Fe51      1.0  0.01930  0.35396  0.86097  1.0000
  H   H467      1.0  0.13722  0.44137  0.86382  1.0000
  C   C408      1.0  0.30365  0.37035  0.92596  1.0000
  C   C409      1.0  0.11727  0.26151  0.75054  1.0000
  C   C410      1.0  0.22593  0.38882  0.92692  1.0000
  H   H468      1.0  0.10041  0.44961  0.89070  1.0000
  H   H469      1.0  0.09751  0.25165  0.72383  1.0000
  H   H470      1.0  0.21505  0.38428  0.92051  1.0000
  Fe  Fe52      1.0  0.02368  0.37669  0.89135  1.0000
  H   H471      1.0  0.21909  0.42260  0.97357  1.0000
  H   H472      1.0  0.22975  0.46242  0.97340  1.0000
  H   H473      1.0  0.15543  0.24941  0.74460  1.0000
  H   H474      1.0  0.09847  0.42593  0.90354  1.0000
  H   H475      1.0  0.27187  0.27699  0.77331  1.0000
  H   H476      1.0  0.15394  0.44209  0.87939  1.0000
  H   H477      1.0  0.04011  0.41541  0.90527  1.0000
  C   C411      1.0  0.23900  0.38647  0.95693  1.0000
  C   C412      1.0  0.07115  0.41553  0.93597  1.0000
  N   N27       1.0  0.12788  0.43118  0.89415  1.0000
  S   S110      1.0  0.04573  0.37290  0.91164  1.0000
  S   S111      1.0  0.99799  0.42529  0.83671  1.0000
  H   H478      1.0  0.24024  0.38380  0.91835  1.0000
  H   H479      1.0  0.30806  0.32489  0.88900  1.0000
  H   H480      1.0  0.29099  0.27575  0.64587  1.0000
  H   H481      1.0  0.13109  0.36635  0.92298  1.0000
  S   S112      1.0  0.27569  0.23977  0.56849  1.0000
  C   C413      1.0  0.26407  0.25291  0.62675  1.0000
  H   H482      1.0  0.27377  0.28041  0.61835  1.0000
  H   H483      1.0  0.29501  0.36199  0.83717  1.0000
  H   H484      1.0  0.03831  0.25604  0.86073  1.0000
  H   H485      1.0  0.05609  0.25300  0.81967  1.0000
  H   H486      1.0  0.23028  0.35241  0.80449  1.0000
  H   H487      1.0  0.00787  0.29510  0.80308  1.0000
  C   C414      1.0  0.22869  0.35919  0.94972  1.0000
  C   C415      1.0  0.15850  0.38367  0.88103  1.0000
  C   C416      1.0  0.30070  0.34221  0.86250  1.0000
  H   H488      1.0  0.19392  0.38283  0.95045  1.0000
  H   H489      1.0  0.23645  0.30114  0.82773  1.0000
  C   C417      1.0  0.32447  0.38442  0.81658  1.0000
  H   H490      1.0  0.22011  0.35400  0.94112  1.0000
  H   H491      1.0  0.13215  0.45957  0.87864  1.0000
  H   H492      1.0  0.29225  0.40564  0.85127  1.0000
  H   H493      1.0  0.25240  0.34615  0.77919  1.0000
  H   H494      1.0  0.10813  0.28083  0.71671  1.0000
  C   C418      1.0  0.00527  0.26540  0.80450  1.0000
  C   C419      1.0  0.26737  0.39506  0.97484  1.0000
  H   H495      1.0  0.29064  0.33329  0.86124  1.0000
  H   H496      1.0  0.15035  0.27510  0.74027  1.0000
  H   H497      1.0  0.20191  0.37961  0.97277  1.0000
  C   C420      1.0  0.04192  0.25645  0.81529  1.0000
  H   H498      1.0  0.29052  0.30142  0.75273  1.0000
  N   N28       1.0  0.13004  0.26146  0.73144  1.0000
  C   C421      1.0  0.31063  0.33737  0.87806  1.0000
  C   C422      1.0  0.01498  0.23995  0.86600  1.0000
  H   H499      1.0  0.12093  0.24760  0.76028  1.0000
  C   C423      1.0  0.29663  0.39099  0.89630  1.0000
  H   H500      1.0  0.99639  0.30848  0.87789  1.0000
  H   H501      1.0  0.25497  0.40205  0.93081  1.0000
  S   S113      1.0  0.31724  0.43964  0.93447  1.0000
  H   H502      1.0  0.17633  0.45935  0.97979  1.0000
  C   C424      1.0  0.03306  0.27565  0.81123  1.0000
  N   N29       1.0  0.22488  0.38055  0.94778  1.0000
  C   C425      1.0  0.14993  0.26212  0.73417  1.0000
  C   C426      1.0  0.30761  0.38587  0.91126  1.0000
  C   C427      1.0  0.23918  0.38049  0.97703  1.0000
  H   H503      1.0  0.31214  0.36609  0.93746  1.0000
  C   C428      1.0  0.12911  0.39637  0.91014  1.0000
  C   C429      1.0  0.25361  0.39716  0.94621  1.0000
  H   H504      1.0  0.11876  0.27342  0.75772  1.0000
  H   H505      1.0  0.29960  0.40291  0.88487  1.0000
  C   C430      1.0  0.27333  0.26743  0.62912  1.0000
  C   C431      1.0  0.03258  0.24163  0.81383  1.0000
  S   S114      1.0  0.10669  0.24890  0.79994  1.0000
  H   H506      1.0  0.08630  0.38990  0.95138  1.0000
  C   C432      1.0  0.26751  0.40136  0.95516  1.0000
  C   C433      1.0  0.01413  0.24564  0.80802  1.0000
  N   N30       1.0  0.08768  0.32906  0.87309  1.0000
  C   C434      1.0  0.08217  0.34942  0.86394  1.0000
  C   C435      1.0  0.09559  0.31749  0.85735  1.0000
  C   C436      1.0  0.06988  0.32192  0.88426  1.0000
  C   C437      1.0  0.10156  0.32798  0.88617  1.0000
  C   C438      1.0  0.09605  0.33798  0.90213  1.0000
  C   C439      1.0  0.12079  0.31735  0.88348  1.0000
  C   C440      1.0  0.10888  0.33732  0.91464  1.0000
  C   C441      1.0  0.13360  0.31700  0.89593  1.0000
  C   C442      1.0  0.12764  0.32687  0.91152  1.0000
  H   H507      1.0  0.09521  0.35568  0.85614  1.0000
  H   H508      1.0  0.07237  0.35069  0.85335  1.0000
  H   H509      1.0  0.07426  0.35877  0.87470  1.0000
  H   H510      1.0  0.10858  0.32258  0.84781  1.0000
  H   H511      1.0  0.08488  0.31864  0.84776  1.0000
  H   H512      1.0  0.09942  0.30184  0.86317  1.0000
  H   H513      1.0  0.06171  0.33124  0.89494  1.0000
  H   H514      1.0  0.05952  0.32164  0.87470  1.0000
  H   H515      1.0  0.07346  0.30701  0.89228  1.0000
  H   H516      1.0  0.08171  0.34644  0.90507  1.0000
  H   H517      1.0  0.12637  0.30917  0.87185  1.0000
  H   H518      1.0  0.10419  0.34500  0.92679  1.0000
  H   H519      1.0  0.14832  0.30905  0.89341  1.0000
  H   H520      1.0  0.13762  0.32641  0.92117  1.0000
  C   C443      1.0  0.01473  0.28011  0.80604  1.0000
  C   C444      1.0  0.21979  0.34422  0.80172  1.0000
  C   C445      1.0  0.27198  0.32519  0.76483  1.0000
  C   C446      1.0  0.28301  0.26486  0.64465  1.0000
  H   H521      1.0  0.11739  0.40049  0.92153  1.0000
  H   H522      1.0  0.28054  0.33578  0.75621  1.0000
  Fe  Fe53      1.0  0.10199  0.43015  0.96565  1.0000
  C   C447      1.0  0.10742  0.43417  0.89140  1.0000
  C   C448      1.0  0.25556  0.33100  0.77808  1.0000
  H   H523      1.0  0.27874  0.40927  0.94671  1.0000
  C   C449      1.0  0.30325  0.35880  0.84884  1.0000
  H   H524      1.0  0.12005  0.42940  0.92527  1.0000
  H   H525      1.0  0.19734  0.31866  0.81398  1.0000
  S   S115      1.0  0.11573  0.45667  0.96219  1.0000
  Fe  Fe54      1.0  0.00478  0.39714  0.85664  1.0000
  H   H526      1.0  0.10166  0.26341  0.74965  1.0000
  C   C450      1.0  0.05015  0.40977  0.91528  1.0000
  C   C451      1.0  0.07630  0.39554  0.94132  1.0000
  H   H527      1.0  0.22109  0.32239  0.83527  1.0000
  H   H528      1.0  0.12169  0.45296  0.91247  1.0000
  H   H529      1.0  0.14338  0.43572  0.91508  1.0000
  H   H530      1.0  0.20716  0.31610  0.78926  1.0000
  C   C452      1.0  0.21072  0.31345  0.80405  1.0000
  H   H531      1.0  0.21362  0.29759  0.80903  1.0000
  H   H532      1.0  0.12472  0.29251  0.72358  1.0000
  C   C453      1.0  0.27769  0.30583  0.76295  1.0000
  C   C454      1.0  0.12831  0.43749  0.91249  1.0000
  N   N31       1.0  0.22714  0.32307  0.80448  1.0000
  H   H533      1.0  0.20619  0.34797  0.81204  1.0000
  C   C455      1.0  0.23284  0.31712  0.82380  1.0000
  H   H534      1.0  0.24591  0.32302  0.82432  1.0000
  H   H535      1.0  0.31324  0.27925  0.59032  1.0000
  Fe  Fe55      1.0  0.11197  0.24056  0.83049  1.0000
  C   C456      1.0  0.28301  0.24798  0.65824  1.0000
  C   C457      1.0  0.99496  0.24087  0.86893  1.0000
  N   N32       1.0  0.31742  0.38919  0.83627  1.0000
  H   H536      1.0  0.31710  0.38104  0.76381  1.0000
  H   H537      1.0  0.13247  0.27955  0.70352  1.0000
  H   H538      1.0  0.25761  0.25563  0.61390  1.0000
  H   H539      1.0  0.16032  0.26266  0.72028  1.0000
  H   H540      1.0  0.32511  0.34287  0.70423  1.0000
  H   H541      1.0  0.31441  0.37698  0.81211  1.0000
  H   H542      1.0  0.32594  0.39760  0.80541  1.0000
  C   C458      1.0  0.31576  0.37120  0.85045  1.0000
  C   C459      1.0  0.11060  0.24142  0.72056  1.0000
  C   C460      1.0  0.32334  0.34896  0.87988  1.0000
  C   C461      1.0  0.12877  0.24429  0.72356  1.0000
  C   C462      1.0  0.32598  0.36563  0.86631  1.0000
  H   H543      1.0  0.24229  0.43833  0.98001  1.0000
  H   H544      1.0  0.23581  0.23571  0.61831  1.0000
  Fe  Fe56      1.0  0.13787  0.23534  0.79224  1.0000
  C   C463      1.0  0.26411  0.23532  0.64016  1.0000
  C   C464      1.0  0.28574  0.64779  0.40793  1.0000
  H   H545      1.0  0.03742  0.56091  0.11198  1.0000
  S   S116      1.0  0.09667  0.71300  0.14984  1.0000
  H   H546      1.0  0.01382  0.64643  0.00643  1.0000
  C   C465      1.0  0.23459  0.67467  0.44706  1.0000
  S   S117      1.0  0.03042  0.49521  0.36701  1.0000
  H   H547      1.0  0.01902  0.48615  0.21206  1.0000
  H   H548      1.0  0.09672  0.51674  0.06173  1.0000
  C   C466      1.0  0.07208  0.50451  0.21512  1.0000
  C   C467      1.0  0.25785  0.62601  0.25344  1.0000
  H   H549      1.0  0.31809  0.71576  0.38094  1.0000
  H   H550      1.0  0.27430  0.64659  0.25538  1.0000
  C   C468      1.0  0.16540  0.49553  0.14276  1.0000
  C   C469      1.0  0.15438  0.51910  0.22076  1.0000
  H   H551      1.0  0.32213  0.67343  0.39485  1.0000
  H   H552      1.0  0.08389  0.50682  0.03621  1.0000
  Fe  Fe57      1.0  0.08423  0.52914  0.32387  1.0000
  S   S118      1.0  0.10808  0.52576  0.34073  1.0000
  S   S119      1.0  0.08946  0.54246  0.29241  1.0000
  Fe  Fe58      1.0  0.08456  0.53471  0.36485  1.0000
  S   S120      1.0  0.08928  0.56017  0.37730  1.0000
  S   S121      1.0  0.06063  0.53966  0.34707  1.0000
  Fe  Fe59      1.0  0.16164  0.64172  0.21586  1.0000
  S   S122      1.0  0.18578  0.61624  0.21966  1.0000
  S   S123      1.0  0.16666  0.66543  0.19035  1.0000
  Fe  Fe60      1.0  0.13535  0.62588  0.25162  1.0000
  S   S124      1.0  0.15725  0.59950  0.25777  1.0000
  S   S125      1.0  0.10790  0.62756  0.27342  1.0000
  Fe  Fe61      1.0  0.17879  0.61977  0.25112  1.0000
  S   S126      1.0  0.19738  0.61611  0.27440  1.0000
  Fe  Fe62      1.0  0.16159  0.59885  0.22598  1.0000
  S   S127      1.0  0.15896  0.57106  0.21705  1.0000
  S   S128      1.0  0.15634  0.64637  0.24675  1.0000
  S   S129      1.0  0.13808  0.62410  0.22030  1.0000
  Fe  Fe63      1.0  0.09965  0.56606  0.10358  1.0000
  S   S130      1.0  0.13066  0.55274  0.09403  1.0000
  S   S131      1.0  0.08799  0.59755  0.09323  1.0000
  Fe  Fe64      1.0  0.09280  0.53151  0.13461  1.0000
  S   S132      1.0  0.12304  0.51564  0.12775  1.0000
  Fe  Fe65      1.0  0.13200  0.54433  0.12573  1.0000
  S   S133      1.0  0.15841  0.54874  0.13619  1.0000
  Fe  Fe66      1.0  0.11915  0.52514  0.09661  1.0000
  S   S134      1.0  0.10197  0.55945  0.13503  1.0000
  S   S135      1.0  0.08786  0.53918  0.10380  1.0000
  Fe  Fe67      1.0  0.28137  0.70664  0.32396  1.0000
  S   S136      1.0  0.28797  0.67933  0.31131  1.0000
  H   H553      1.0  0.05049  0.59316  0.03434  1.0000
  Fe  Fe68      1.0  0.24532  0.69368  0.35042  1.0000
  S   S137      1.0  0.24993  0.66522  0.34019  1.0000
  S   S138      1.0  0.21905  0.70089  0.37294  1.0000
  Fe  Fe69      1.0  0.28109  0.66449  0.34175  1.0000
  Fe  Fe70      1.0  0.25618  0.68260  0.31070  1.0000
  S   S139      1.0  0.24460  0.67867  0.28467  1.0000
  S   S140      1.0  0.27605  0.69134  0.35460  1.0000
  S   S141      1.0  0.24985  0.71147  0.32059  1.0000
  Fe  Fe71      1.0  0.16743  0.61898  0.43965  1.0000
  S   S142      1.0  0.17158  0.58823  0.45492  1.0000
  S   S143      1.0  0.19172  0.62303  0.41446  1.0000
  Fe  Fe72      1.0  0.13034  0.62968  0.46724  1.0000
  Fe  Fe73      1.0  0.13979  0.59014  0.45492  1.0000
  S   S144      1.0  0.12750  0.56529  0.44902  1.0000
  S   S145      1.0  0.16141  0.63183  0.46680  1.0000
  S   S146      1.0  0.13605  0.62022  0.43814  1.0000
  C   C470      1.0  0.16933  0.51271  0.20640  1.0000
  H   H554      1.0  0.04400  0.54231  0.13155  1.0000
  H   H555      1.0  0.15129  0.59624  0.14821  1.0000
  C   C471      1.0  0.21242  0.67999  0.38821  1.0000
  C   C472      1.0  0.19350  0.68023  0.39866  1.0000
  C   C473      1.0  0.18716  0.66281  0.40794  1.0000
  C   C474      1.0  0.19974  0.64524  0.40654  1.0000
  C   C475      1.0  0.21893  0.64517  0.39707  1.0000
  C   C476      1.0  0.22533  0.66252  0.38826  1.0000
  H   H556      1.0  0.18350  0.69377  0.39884  1.0000
  H   H557      1.0  0.17233  0.66291  0.41531  1.0000
  H   H558      1.0  0.22875  0.63161  0.39608  1.0000
  H   H559      1.0  0.24005  0.66231  0.38077  1.0000
  C   C477      1.0  0.28576  0.64757  0.38845  1.0000
  H   H560      1.0  0.27291  0.65395  0.38225  1.0000
  H   H561      1.0  0.27287  0.65447  0.41665  1.0000
  C   C478      1.0  0.23042  0.66168  0.28289  1.0000
  C   C479      1.0  0.22190  0.66436  0.26633  1.0000
  C   C480      1.0  0.21122  0.65087  0.26382  1.0000
  C   C481      1.0  0.20919  0.63435  0.27774  1.0000
  C   C482      1.0  0.21744  0.63180  0.29448  1.0000
  C   C483      1.0  0.22784  0.64547  0.29715  1.0000
  H   H562      1.0  0.22378  0.67686  0.25523  1.0000
  H   H563      1.0  0.20503  0.65300  0.25084  1.0000
  H   H564      1.0  0.21612  0.61897  0.30523  1.0000
  H   H565      1.0  0.23421  0.64319  0.31001  1.0000
  C   C484      1.0  0.15763  0.56907  0.19319  1.0000
  C   C485      1.0  0.17461  0.56688  0.17951  1.0000
  C   C486      1.0  0.17450  0.56085  0.16208  1.0000
  C   C487      1.0  0.15741  0.55700  0.15805  1.0000
  C   C488      1.0  0.14024  0.55970  0.17145  1.0000
  C   C489      1.0  0.14039  0.56559  0.18901  1.0000
  H   H566      1.0  0.18812  0.56879  0.18284  1.0000
  H   H567      1.0  0.18786  0.55870  0.15185  1.0000
  H   H568      1.0  0.12700  0.55664  0.16859  1.0000
  H   H569      1.0  0.12731  0.56663  0.19974  1.0000
  C   C490      1.0  0.10051  0.56105  0.39703  1.0000
  C   C491      1.0  0.10671  0.54450  0.40983  1.0000
  C   C492      1.0  0.11511  0.54606  0.42551  1.0000
  C   C493      1.0  0.11781  0.56408  0.42839  1.0000
  C   C494      1.0  0.11187  0.58061  0.41543  1.0000
  C   C495      1.0  0.10311  0.57910  0.39999  1.0000
  H   H570      1.0  0.10478  0.53052  0.40783  1.0000
  H   H571      1.0  0.11957  0.53317  0.43547  1.0000
  H   H572      1.0  0.11366  0.59460  0.41752  1.0000
  H   H573      1.0  0.09822  0.59203  0.39032  1.0000
  C   C496      1.0  0.09364  0.56644  0.28739  1.0000
  C   C497      1.0  0.10368  0.57332  0.26920  1.0000
  C   C498      1.0  0.10789  0.59209  0.26494  1.0000
  C   C499      1.0  0.10148  0.60442  0.27859  1.0000
  C   C500      1.0  0.09080  0.59785  0.29657  1.0000
  C   C501      1.0  0.08722  0.57873  0.30113  1.0000
  H   H574      1.0  0.10844  0.56405  0.25839  1.0000
  H   H575      1.0  0.11600  0.59702  0.25097  1.0000
  H   H576      1.0  0.08566  0.60738  0.30713  1.0000
  H   H577      1.0  0.07925  0.57357  0.31514  1.0000
  H   H578      1.0  0.20900  0.69276  0.33500  1.0000
  H   H579      1.0  0.15330  0.66116  0.14262  1.0000
  H   H580      1.0  0.15315  0.52121  0.26740  1.0000
  C   C502      1.0  0.05015  0.57431  0.13911  1.0000
  H   H581      1.0  0.09675  0.73413  0.18873  1.0000
  H   H582      1.0  0.14325  0.64514  0.30411  1.0000
  C   C503      1.0  0.02823  0.61417  0.07496  1.0000
  C   C504      1.0  0.03839  0.62849  0.07605  1.0000
  C   C505      1.0  0.05696  0.62325  0.08119  1.0000
  C   C506      1.0  0.06540  0.60372  0.08531  1.0000
  C   C507      1.0  0.05545  0.58948  0.08365  1.0000
  C   C508      1.0  0.03690  0.59469  0.07854  1.0000
  H   H583      1.0  0.03188  0.64355  0.07310  1.0000
  H   H584      1.0  0.06477  0.63436  0.08197  1.0000
  H   H585      1.0  0.06205  0.57445  0.08631  1.0000
  H   H586      1.0  0.02915  0.58359  0.07750  1.0000
  C   C509      1.0  0.11650  0.69931  0.16019  1.0000
  C   C510      1.0  0.11342  0.68369  0.17513  1.0000
  C   C511      1.0  0.12877  0.67303  0.18432  1.0000
  C   C512      1.0  0.14724  0.67805  0.17871  1.0000
  C   C513      1.0  0.15041  0.69340  0.16349  1.0000
  C   C514      1.0  0.13509  0.70398  0.15419  1.0000
  H   H587      1.0  0.09902  0.68013  0.17984  1.0000
  H   H588      1.0  0.12626  0.66122  0.19597  1.0000
  H   H589      1.0  0.16470  0.69731  0.15907  1.0000
  H   H590      1.0  0.04963  0.58521  0.14830  1.0000
  H   H591      1.0  0.26965  0.61801  0.44029  1.0000
  H   H592      1.0  0.16944  0.50796  0.13261  1.0000
  H   H593      1.0  0.13756  0.71603  0.14269  1.0000
  H   H594      1.0  0.02070  0.57280  0.16958  1.0000
  C   C515      1.0  0.07772  0.50946  0.18007  1.0000
  C   C516      1.0  0.30832  0.61307  0.29029  1.0000
  H   H595      1.0  0.03617  0.60853  0.12515  1.0000
  S   S147      1.0  0.00105  0.72039  0.05930  1.0000
  H   H596      1.0  0.20856  0.66299  0.35798  1.0000
  H   H597      1.0  0.26816  0.64339  0.30714  1.0000
  C   C517      1.0  0.06009  0.70872  0.05372  1.0000
  H   H598      1.0  0.13509  0.58725  0.12547  1.0000
  C   C518      1.0  0.25141  0.60861  0.26149  1.0000
  C   C519      1.0  0.11527  0.52386  0.24451  1.0000
  H   H599      1.0  0.24104  0.60389  0.25514  1.0000
  C   C520      1.0  0.27041  0.60414  0.28683  1.0000
  H   H600      1.0  0.25214  0.58445  0.28463  1.0000
  C   C521      1.0  0.12325  0.72096  0.19917  1.0000
  C   C522      1.0  0.03285  0.55505  0.12747  1.0000
  H   H601      1.0  0.17615  0.65359  0.12743  1.0000
  N   N33       1.0  0.08972  0.68165  0.23952  1.0000
  C   C523      1.0  0.09584  0.66255  0.23330  1.0000
  C   C524      1.0  0.09361  0.67973  0.25945  1.0000
  C   C525      1.0  0.06839  0.68712  0.24035  1.0000
  C   C526      1.0  0.10084  0.69565  0.22599  1.0000
  C   C527      1.0  0.24611  0.66327  0.47738  1.0000
  N   N34       1.0  0.13270  0.51393  0.25308  1.0000
  H   H602      1.0  0.24642  0.59006  0.47104  1.0000
  N   N35       1.0  0.03056  0.56999  0.13971  1.0000
  C   C528      1.0  0.06408  0.72300  0.06241  1.0000
  H   H603      1.0  0.11144  0.65689  0.23382  1.0000
  H   H604      1.0  0.08766  0.65152  0.24286  1.0000
  H   H605      1.0  0.09362  0.66335  0.21825  1.0000
  C   C529      1.0  0.08894  0.49062  0.21546  1.0000
  H   H606      1.0  0.08456  0.67010  0.27009  1.0000
  H   H607      1.0  0.00946  0.55637  0.16155  1.0000
  H   H608      1.0  0.06411  0.68691  0.22634  1.0000
  H   H609      1.0  0.06041  0.67679  0.25129  1.0000
  H   H610      1.0  0.06298  0.70172  0.24435  1.0000
  H   H611      1.0  0.05710  0.57950  0.12410  1.0000
  C   C530      1.0  0.04401  0.57702  0.01500  1.0000
  H   H612      1.0  0.03794  0.69630  0.04641  1.0000
  C   C531      1.0  0.02536  0.72016  0.06146  1.0000
  H   H613      1.0  0.01923  0.54942  0.12869  1.0000
  H   H614      1.0  0.15236  0.48577  0.99055  1.0000
  H   H615      1.0  0.25082  0.62530  0.42593  1.0000
  H   H616      1.0  0.28545  0.65873  0.27691  1.0000
  H   H617      1.0  0.23018  0.65347  0.43240  1.0000
  H   H618      1.0  0.17362  0.52272  0.19343  1.0000
  H   H619      1.0  0.30484  0.59965  0.30006  1.0000
  C   C532      1.0  0.02166  0.60579  0.12620  1.0000
  C   C533      1.0  0.17886  0.49362  0.20883  1.0000
  Fe  Fe74      1.0  0.05837  0.50805  0.35720  1.0000
  H   H620      1.0  0.15792  0.51226  0.16580  1.0000
  H   H621      1.0  0.23039  0.68648  0.43579  1.0000
  C   C534      1.0  0.15884  0.49821  0.16195  1.0000
  H   H622      1.0  0.14774  0.53410  0.21845  1.0000
  C   C535      1.0  0.17545  0.49213  0.10277  1.0000
  H   H623      1.0  0.05567  0.56502  0.01772  1.0000
  C   C536      1.0  0.07204  0.57747  0.47258  1.0000
  H   H624      1.0  0.06746  0.56361  0.48028  1.0000
  C   C537      1.0  0.14835  0.50656  0.23799  1.0000
  H   H625      1.0  0.06325  0.50798  0.22854  1.0000
  S   S148      1.0  0.00456  0.61993  0.06963  1.0000
  H   H626      1.0  0.07269  0.61592  0.46694  1.0000
  H   H627      1.0  0.13412  0.64363  0.09125  1.0000
  H   H628      1.0  0.12633  0.61069  0.09697  1.0000
  H   H629      1.0  0.15013  0.65350  0.11342  1.0000
  N   N36       1.0  0.07954  0.67551  0.10771  1.0000
  C   C538      1.0  0.05929  0.67593  0.10536  1.0000
  C   C539      1.0  0.08043  0.69457  0.11226  1.0000
  C   C540      1.0  0.09255  0.67338  0.08902  1.0000
  C   C541      1.0  0.08538  0.65898  0.12267  1.0000
  C   C542      1.0  0.08474  0.63984  0.12067  1.0000
  C   C543      1.0  0.09205  0.66117  0.13934  1.0000
  C   C544      1.0  0.09029  0.62396  0.13448  1.0000
  C   C545      1.0  0.09755  0.64516  0.15308  1.0000
  C   C546      1.0  0.09671  0.62660  0.15064  1.0000
  H   H630      1.0  0.04915  0.67661  0.11933  1.0000
  H   H631      1.0  0.05416  0.68876  0.09481  1.0000
  H   H632      1.0  0.05766  0.66311  0.09978  1.0000
  H   H633      1.0  0.07082  0.69733  0.12610  1.0000
  H   H634      1.0  0.07562  0.70666  0.10092  1.0000
  H   H635      1.0  0.09547  0.69588  0.11312  1.0000
  H   H636      1.0  0.09202  0.65991  0.08392  1.0000
  H   H637      1.0  0.08852  0.68548  0.07735  1.0000
  H   H638      1.0  0.10785  0.67342  0.09004  1.0000
  H   H639      1.0  0.08018  0.63693  0.10825  1.0000
  H   H640      1.0  0.09315  0.67510  0.14213  1.0000
  H   H641      1.0  0.08993  0.60949  0.13236  1.0000
  H   H642      1.0  0.10245  0.64723  0.16572  1.0000
  H   H643      1.0  0.10117  0.61421  0.16121  1.0000
  C   C547      1.0  0.24657  0.60492  0.47329  1.0000
  C   C548      1.0  0.99721  0.58534  0.13279  1.0000
  C   C549      1.0  0.12315  0.49603  0.05906  1.0000
  H   H644      1.0  0.12866  0.53336  0.27341  1.0000
  C   C550      1.0  0.02936  0.73434  0.07029  1.0000
  S   S149      1.0  0.30684  0.72278  0.31267  1.0000
  H   H645      1.0  0.06066  0.58605  0.46429  1.0000
  C   C551      1.0  0.06629  0.51360  0.19752  1.0000
  H   H646      1.0  0.17521  0.65369  0.15238  1.0000
  C   C552      1.0  0.24034  0.63981  0.45949  1.0000
  H   H647      1.0  0.27454  0.59533  0.29993  1.0000
  H   H648      1.0  0.15752  0.50275  0.01525  1.0000
  N   N37       1.0  0.18691  0.67482  0.34003  1.0000
  C   C553      1.0  0.17464  0.68714  0.35380  1.0000
  C   C554      1.0  0.19840  0.65817  0.35093  1.0000
  C   C555      1.0  0.20069  0.68661  0.32687  1.0000
  C   C556      1.0  0.17467  0.66743  0.32985  1.0000
  C   C557      1.0  0.17817  0.66854  0.30944  1.0000
  C   C558      1.0  0.15935  0.65775  0.34050  1.0000
  C   C559      1.0  0.16688  0.66058  0.30039  1.0000
  C   C560      1.0  0.14798  0.65009  0.33127  1.0000
  C   C561      1.0  0.15179  0.65144  0.31125  1.0000
  H   H649      1.0  0.16613  0.67882  0.36626  1.0000
  H   H650      1.0  0.18357  0.69427  0.36033  1.0000
  H   H651      1.0  0.16441  0.69877  0.34645  1.0000
  H   H652      1.0  0.18913  0.64975  0.36265  1.0000
  C   C562      1.0  0.22131  0.61743  0.45443  1.0000
  H   H653      1.0  0.20724  0.64812  0.34123  1.0000
  H   H654      1.0  0.19301  0.69903  0.31768  1.0000
  C   C563      1.0  0.08408  0.60575  0.47414  1.0000
  H   H655      1.0  0.21180  0.67788  0.31737  1.0000
  H   H656      1.0  0.18976  0.67520  0.30012  1.0000
  H   H657      1.0  0.15629  0.65571  0.35610  1.0000
  H   H658      1.0  0.13645  0.64266  0.33974  1.0000
  N   N38       1.0  0.13622  0.58315  0.33137  1.0000
  C   C564      1.0  0.11566  0.59162  0.33761  1.0000
  C   C565      1.0  0.14038  0.58752  0.30991  1.0000
  C   C566      1.0  0.13852  0.56186  0.33710  1.0000
  C   C567      1.0  0.14899  0.59067  0.34083  1.0000
  C   C568      1.0  0.14689  0.58738  0.36130  1.0000
  C   C569      1.0  0.16397  0.60097  0.33031  1.0000
  C   C570      1.0  0.15882  0.59413  0.37067  1.0000
  C   C571      1.0  0.17591  0.60755  0.33985  1.0000
  C   C572      1.0  0.17331  0.60420  0.35998  1.0000
  H   H659      1.0  0.11295  0.60753  0.33286  1.0000
  H   H660      1.0  0.10561  0.58530  0.33169  1.0000
  H   H661      1.0  0.11108  0.58870  0.35354  1.0000
  H   H662      1.0  0.13821  0.60336  0.30446  1.0000
  H   H663      1.0  0.13051  0.58165  0.30330  1.0000
  H   H664      1.0  0.15544  0.58096  0.30408  1.0000
  H   H665      1.0  0.13249  0.55738  0.35262  1.0000
  H   H666      1.0  0.13065  0.55549  0.32879  1.0000
  H   H667      1.0  0.15406  0.55496  0.33454  1.0000
  H   H668      1.0  0.13610  0.57931  0.37024  1.0000
  H   H669      1.0  0.16691  0.60402  0.31469  1.0000
  H   H670      1.0  0.15693  0.59132  0.38636  1.0000
  H   H671      1.0  0.18724  0.61532  0.33151  1.0000
  H   H672      1.0  0.18263  0.60922  0.36736  1.0000
  C   C573      1.0  0.31890  0.63059  0.38525  1.0000
  C   C574      1.0  0.04081  0.70711  0.05348  1.0000
  C   C575      1.0  0.01331  0.60833  0.00813  1.0000
  H   H673      1.0  0.27610  0.61875  0.31735  1.0000
  H   H674      1.0  0.30813  0.65057  0.28500  1.0000
  H   H675      1.0  0.12890  0.68215  0.23433  1.0000
  H   H676      1.0  0.02447  0.62024  0.02854  1.0000
  H   H677      1.0  0.01225  0.63562  0.11435  1.0000
  H   H678      1.0  0.21662  0.62665  0.44123  1.0000
  H   H679      1.0  0.11763  0.53746  0.23445  1.0000
  H   H680      1.0  0.05300  0.52403  0.19746  1.0000
  C   C576      1.0  0.12115  0.69374  0.22523  1.0000
  C   C577      1.0  0.24613  0.64421  0.47569  1.0000
  H   H681      1.0  0.21012  0.62117  0.46698  1.0000
  H   H682      1.0  0.01514  0.64134  0.98270  1.0000
  C   C578      1.0  0.25494  0.61575  0.43925  1.0000
  H   H683      1.0  0.24081  0.69317  0.46430  1.0000
  N   N39       1.0  0.16347  0.63037  0.14665  1.0000
  C   C579      1.0  0.15260  0.62745  0.16672  1.0000
  C   C580      1.0  0.18258  0.61741  0.14604  1.0000
  C   C581      1.0  0.16712  0.65058  0.14195  1.0000
  C   C582      1.0  0.15255  0.62568  0.13325  1.0000
  C   C583      1.0  0.14763  0.60703  0.13609  1.0000
  C   C584      1.0  0.14713  0.63894  0.11680  1.0000
  C   C585      1.0  0.13832  0.60175  0.12314  1.0000
  C   C586      1.0  0.13779  0.63350  0.10391  1.0000
  C   C587      1.0  0.13348  0.61493  0.10702  1.0000
  H   H684      1.0  0.15092  0.61214  0.17227  1.0000
  H   H685      1.0  0.16020  0.63150  0.17700  1.0000
  H   H686      1.0  0.13790  0.63645  0.16774  1.0000
  H   H687      1.0  0.18114  0.60197  0.15100  1.0000
  H   H688      1.0  0.19145  0.62083  0.15558  1.0000
  H   H689      1.0  0.19104  0.61866  0.13109  1.0000
  H   H690      1.0  0.25240  0.63475  0.24084  1.0000
  S   S150      1.0  0.30168  0.63971  0.44065  1.0000
  C   C588      1.0  0.27054  0.63263  0.26202  1.0000
  C   C589      1.0  0.25762  0.59773  0.27818  1.0000
  H   H691      1.0  0.25623  0.60064  0.43695  1.0000
  C   C590      1.0  0.01660  0.58711  0.13292  1.0000
  H   H692      1.0  0.17010  0.66123  0.28483  1.0000
  H   H693      1.0  0.14298  0.54082  0.25056  1.0000
  S   S151      1.0  0.08002  0.50411  0.37727  1.0000
  H   H694      1.0  0.10366  0.49236  0.16686  1.0000
  C   C591      1.0  0.27739  0.62175  0.27894  1.0000
  C   C592      1.0  0.01668  0.59195  0.99882  1.0000
  C   C593      1.0  0.09788  0.49961  0.03977  1.0000
  H   H695      1.0  0.30523  0.64468  0.26282  1.0000
  H   H696      1.0  0.09067  0.69404  0.26417  1.0000
  H   H697      1.0  0.07711  0.71304  0.21145  1.0000
  S   S152      1.0  0.10477  0.65219  0.47632  1.0000
  C   C594      1.0  0.28107  0.63177  0.30801  1.0000
  C   C595      1.0  0.09227  0.71073  0.21250  1.0000
  S   S153      1.0  0.99698  0.67189  0.03736  1.0000
  N   N40       1.0  0.29089  0.62822  0.28844  1.0000
  C   C596      1.0  0.29770  0.64630  0.27774  1.0000
  N   N41       1.0  0.24080  0.61978  0.45683  1.0000
  H   H698      1.0  0.06010  0.56121  0.14465  1.0000
  H   H699      1.0  0.10268  0.52809  0.25576  1.0000
  S   S154      1.0  0.13301  0.50247  0.07724  1.0000
  H   H700      1.0  0.08509  0.57343  0.46168  1.0000
  C   C597      1.0  0.24044  0.67846  0.46307  1.0000
  H   H701      1.0  0.10880  0.67292  0.26088  1.0000
  C   C598      1.0  0.30236  0.63963  0.41608  1.0000
  H   H702      1.0  0.03378  0.54925  0.16578  1.0000
  C   C599      1.0  0.15864  0.48727  0.24020  1.0000
  H   H703      1.0  0.18734  0.49257  0.02970  1.0000
  C   C600      1.0  0.00803  0.62160  0.11991  1.0000
  H   H704      1.0  0.11070  0.51431  0.23648  1.0000
  H   H705      1.0  0.31387  0.71468  0.35711  1.0000
  C   C601      1.0  0.10510  0.50526  0.05428  1.0000
  Fe  Fe75      1.0  0.10180  0.49587  0.35158  1.0000
  H   H706      1.0  0.14770  0.70416  0.21140  1.0000
  C   C602      1.0  0.30224  0.63881  0.37712  1.0000
  C   C603      1.0  0.02611  0.60834  0.02087  1.0000
  H   H707      1.0  0.18758  0.49825  0.10539  1.0000
  C   C604      1.0  0.04113  0.59287  0.02430  1.0000
  S   S155      1.0  0.30223  0.63892  0.35262  1.0000
  C   C605      1.0  0.03185  0.57658  0.00227  1.0000
  S   S156      1.0  0.06962  0.52094  0.15834  1.0000
  C   C606      1.0  0.13967  0.52794  0.26146  1.0000
  C   C607      1.0  0.13210  0.70630  0.21210  1.0000
  H   H708      1.0  0.07195  0.69901  0.04687  1.0000
  S   S157      1.0  0.08017  0.49815  0.33245  1.0000
  C   C608      1.0  0.12647  0.49857  0.26911  1.0000
  C   C609      1.0  0.23450  0.65567  0.44526  1.0000
  H   H709      1.0  0.31817  0.67284  0.36051  1.0000
  H   H710      1.0  0.30369  0.69936  0.37783  1.0000
  H   H711      1.0  0.22091  0.60234  0.45309  1.0000
  H   H712      1.0  0.11413  0.50453  0.27977  1.0000
  H   H713      1.0  0.19042  0.48865  0.19767  1.0000
  H   H714      1.0  0.13827  0.49151  0.27748  1.0000
  C   C610      1.0  0.16849  0.49096  0.01058  1.0000
  H   H715      1.0  0.31553  0.60920  0.27596  1.0000
  H   H716      1.0  0.12140  0.48739  0.26357  1.0000
  H   H717      1.0  0.17925  0.48941  0.08760  1.0000
  C   C611      1.0  0.02326  0.56180  0.16001  1.0000
  H   H718      1.0  0.29089  0.63633  0.31580  1.0000
  S   S158      1.0  0.08854  0.72481  0.06204  1.0000
  C   C612      1.0  0.31687  0.70593  0.37125  1.0000
  C   C613      1.0  0.10028  0.48610  0.19804  1.0000
  S   S159      1.0  0.12250  0.72944  0.09664  1.0000
  N   N42       1.0  0.99727  0.62478  0.00511  1.0000
  H   H719      1.0  0.00776  0.59060  0.98888  1.0000
  H   H720      1.0  0.13191  0.73025  0.18857  1.0000
  H   H721      1.0  0.31918  0.61792  0.29655  1.0000
  H   H722      1.0  0.26157  0.60515  0.47528  1.0000
  H   H723      1.0  0.16211  0.50337  0.10333  1.0000
  C   C614      1.0  0.09485  0.49579  0.18030  1.0000
  C   C615      1.0  0.31903  0.63118  0.40468  1.0000
  H   H724      1.0  0.09649  0.60160  0.46265  1.0000
  C   C616      1.0  0.00534  0.64273  0.99675  1.0000
  C   C617      1.0  0.10341  0.72314  0.19934  1.0000
  H   H725      1.0  0.03416  0.56417  0.99509  1.0000
  H   H726      1.0  0.99363  0.65544  0.99422  1.0000
  C   C618      1.0  0.07493  0.64434  0.53972  1.0000
  H   H727      1.0  0.08242  0.67275  0.56541  1.0000
  C   C619      1.0  0.04112  0.58900  0.50251  1.0000
  C   C620      1.0  0.10237  0.63555  0.51482  1.0000
  S   S160      1.0  0.18557  0.67616  0.60165  1.0000
  H   H728      1.0  0.13840  0.64058  0.53581  1.0000
  Fe  Fe76      1.0  0.01068  0.68853  0.59498  1.0000
  S   S161      1.0  0.02603  0.68944  0.56430  1.0000
  H   H729      1.0  0.23644  0.60703  0.48703  1.0000
  Fe  Fe77      1.0  0.03337  0.65726  0.57214  1.0000
  S   S162      1.0  0.01988  0.65646  0.60361  1.0000
  C   C621      1.0  0.12029  0.69358  0.53930  1.0000
  H   H730      1.0  0.24615  0.69365  0.69429  1.0000
  H   H731      1.0  0.11638  0.62694  0.51078  1.0000
  C   C622      1.0  0.05919  0.70891  0.63019  1.0000
  H   H732      1.0  0.30231  0.67044  0.55699  1.0000
  Fe  Fe78      1.0  0.25630  0.64726  0.59221  1.0000
  S   S163      1.0  0.27550  0.63290  0.61485  1.0000
  Fe  Fe79      1.0  0.23965  0.64360  0.55659  1.0000
  S   S164      1.0  0.22414  0.67431  0.55335  1.0000
  S   S165      1.0  0.24061  0.62665  0.53285  1.0000
  Fe  Fe80      1.0  0.25153  0.68078  0.55923  1.0000
  S   S166      1.0  0.26589  0.70600  0.54457  1.0000
  S   S167      1.0  0.26784  0.65061  0.56036  1.0000
  S   S168      1.0  0.22964  0.63681  0.58875  1.0000
  C   C623      1.0  0.28741  0.69997  0.52850  1.0000
  C   C624      1.0  0.29056  0.68382  0.51937  1.0000
  H   H733      1.0  0.26898  0.66308  0.70009  1.0000
  H   H734      1.0  0.30925  0.62982  0.58058  1.0000
  C   C625      1.0  0.30184  0.71133  0.52519  1.0000
  H   H735      1.0  0.15140  0.69719  0.62169  1.0000
  H   H736      1.0  0.12551  0.69476  0.60218  1.0000
  C   C626      1.0  0.19400  0.60145  0.51578  1.0000
  C   C627      1.0  0.20460  0.59104  0.53011  1.0000
  C   C628      1.0  0.21789  0.59935  0.53632  1.0000
  C   C629      1.0  0.22065  0.61826  0.52840  1.0000
  C   C630      1.0  0.20990  0.62883  0.51418  1.0000
  C   C631      1.0  0.19646  0.62053  0.50801  1.0000
  H   H737      1.0  0.20285  0.57628  0.53616  1.0000
  H   H738      1.0  0.22659  0.59080  0.54675  1.0000
  H   H739      1.0  0.21243  0.64321  0.50747  1.0000
  C   C632      1.0  0.09176  0.57610  0.49622  1.0000
  C   C633      1.0  0.06611  0.65785  0.52575  1.0000
  H   H740      1.0  0.13641  0.65414  0.50206  1.0000
  S   S169      1.0  0.17781  0.58992  0.50843  1.0000
  H   H741      1.0  0.05207  0.66643  0.52985  1.0000
  H   H742      1.0  0.04268  0.68976  0.62356  1.0000
  H   H743      1.0  0.31801  0.66835  0.60231  1.0000
  H   H744      1.0  0.31043  0.66688  0.49962  1.0000
  C   C634      1.0  0.16031  0.66923  0.49778  1.0000
  C   C635      1.0  0.03014  0.71957  0.61565  1.0000
  C   C636      1.0  0.32407  0.56330  0.66407  1.0000
  H   H745      1.0  0.10447  0.67320  0.53399  1.0000
  S   S170      1.0  0.06361  0.64085  0.56413  1.0000
  C   C637      1.0  0.29690  0.66732  0.65167  1.0000
  C   C638      1.0  0.28559  0.67700  0.63759  1.0000
  C   C639      1.0  0.27923  0.66669  0.62602  1.0000
  C   C640      1.0  0.28365  0.64652  0.62878  1.0000
  C   C641      1.0  0.29471  0.63685  0.64309  1.0000
  C   C642      1.0  0.30162  0.64717  0.65421  1.0000
  H   H746      1.0  0.28184  0.69258  0.63555  1.0000
  H   H747      1.0  0.27091  0.67442  0.61502  1.0000
  H   H748      1.0  0.29769  0.62131  0.64595  1.0000
  C   C643      1.0  0.31957  0.63415  0.56723  1.0000
  C   C644      1.0  0.17836  0.70094  0.60259  1.0000
  C   C645      1.0  0.18158  0.64880  0.56393  1.0000
  H   H749      1.0  0.18757  0.66954  0.53084  1.0000
  C   C646      1.0  0.16328  0.65345  0.53694  1.0000
  Fe  Fe81      1.0  0.21593  0.66819  0.58561  1.0000
  H   H750      1.0  0.14736  0.64667  0.58557  1.0000
  C   C647      1.0  0.16621  0.62354  0.56006  1.0000
  H   H751      1.0  0.18820  0.62878  0.49711  1.0000
  H   H752      1.0  0.29948  0.72380  0.53221  1.0000
  H   H753      1.0  0.31002  0.63951  0.66523  1.0000
  S   S171      1.0  0.00706  0.65140  0.56320  1.0000
  H   H754      1.0  0.27936  0.67512  0.52168  1.0000
  H   H755      1.0  0.16834  0.61645  0.57497  1.0000
  H   H756      1.0  0.19549  0.64316  0.55495  1.0000
  C   C648      1.0  0.14683  0.65267  0.57006  1.0000
  C   C649      1.0  0.09360  0.68173  0.56179  1.0000
  C   C650      1.0  0.15439  0.72724  0.61433  1.0000
  H   H757      1.0  0.10473  0.57077  0.48588  1.0000
  C   C651      1.0  0.30812  0.67919  0.50682  1.0000
  H   H758      1.0  0.06944  0.69724  0.63646  1.0000
  H   H759      1.0  0.04742  0.62021  0.53830  1.0000
  H   H760      1.0  0.12986  0.69378  0.52543  1.0000
  H   H761      1.0  0.24658  0.63907  0.66158  1.0000
  H   H762      1.0  0.18246  0.64181  0.57915  1.0000
  C   C652      1.0  0.16050  0.70746  0.61362  1.0000
  H   H763      1.0  0.15316  0.61898  0.55749  1.0000
  N   N43       1.0  0.16459  0.64484  0.55735  1.0000
  C   C653      1.0  0.24569  0.68178  0.68725  1.0000
  S   S172      1.0  0.00937  0.71470  0.60894  1.0000
  C   C654      1.0  0.07546  0.66023  0.50637  1.0000
  H   H764      1.0  0.17878  0.61730  0.54996  1.0000
  N   N44       1.0  0.21912  0.67187  0.65038  1.0000
  C   C655      1.0  0.22258  0.65581  0.63922  1.0000
  C   C656      1.0  0.19883  0.67361  0.66082  1.0000
  C   C657      1.0  0.22125  0.68989  0.63624  1.0000
  C   C658      1.0  0.23251  0.66894  0.66439  1.0000
  S   S173      1.0  0.30389  0.68077  0.66647  1.0000
  C   C659      1.0  0.23268  0.68394  0.67453  1.0000
  C   C660      1.0  0.31945  0.70652  0.51299  1.0000
  H   H765      1.0  0.21969  0.64201  0.64868  1.0000
  H   H766      1.0  0.21290  0.65872  0.62826  1.0000
  H   H767      1.0  0.23778  0.65354  0.63129  1.0000
  H   H768      1.0  0.19664  0.66042  0.67169  1.0000
  H   H769      1.0  0.18835  0.67568  0.65070  1.0000
  H   H770      1.0  0.19476  0.68611  0.66865  1.0000
  H   H771      1.0  0.23673  0.68996  0.62944  1.0000
  H   H772      1.0  0.21265  0.69164  0.62450  1.0000
  H   H773      1.0  0.21604  0.70311  0.64286  1.0000
  C   C661      1.0  0.02566  0.59445  0.51693  1.0000
  H   H774      1.0  0.22295  0.69756  0.67251  1.0000
  C   C662      1.0  0.11252  0.70636  0.60318  1.0000
  H   H775      1.0  0.18470  0.68250  0.49749  1.0000
  S   S174      1.0  0.08005  0.73261  0.63955  1.0000
  H   H776      1.0  0.08492  0.69284  0.58809  1.0000
  N   N45       1.0  0.07640  0.58859  0.48606  1.0000
  H   H777      1.0  0.14508  0.66865  0.56837  1.0000
  H   H778      1.0  0.13342  0.71384  0.54745  1.0000
  C   C663      1.0  0.17451  0.67351  0.50614  1.0000
  C   C664      1.0  0.10603  0.68196  0.54408  1.0000
  H   H779      1.0  0.06856  0.67069  0.49560  1.0000
  C   C665      1.0  0.12213  0.70513  0.55215  1.0000
  H   H780      1.0  0.15939  0.67491  0.48272  1.0000
  C   C666      1.0  0.09355  0.64902  0.50081  1.0000
  C   C667      1.0  0.04406  0.70463  0.62284  1.0000
  Fe  Fe82      1.0  0.99835  0.68369  0.55843  1.0000
  H   H781      1.0  0.18080  0.66452  0.56360  1.0000
  C   C668      1.0  0.12664  0.72913  0.57772  1.0000
  C   C669      1.0  0.09312  0.63328  0.53422  1.0000
  H   H782      1.0  0.31879  0.55106  0.66173  1.0000
  H   H783      1.0  0.09998  0.62278  0.54498  1.0000
  H   H784      1.0  0.29580  0.56736  0.64155  1.0000
  C   C670      1.0  0.05943  0.59473  0.50056  1.0000
  C   C671      1.0  0.17598  0.66589  0.52546  1.0000
  N   N46       1.0  0.11033  0.71806  0.58390  1.0000
  C   C672      1.0  0.14876  0.64969  0.52801  1.0000
  C   C673      1.0  0.25816  0.64922  0.68161  1.0000
  C   C674      1.0  0.18415  0.73400  0.59324  1.0000
  H   H785      1.0  0.20402  0.70936  0.58384  1.0000
  H   H786      1.0  0.29628  0.58107  0.61766  1.0000
  H   H787      1.0  0.13349  0.64920  0.56682  1.0000
  C   C675      1.0  0.19022  0.71423  0.59245  1.0000
  H   H788      1.0  0.31862  0.61067  0.61955  1.0000
  C   C676      1.0  0.09523  0.69326  0.57471  1.0000
  C   C677      1.0  0.10951  0.70539  0.57028  1.0000
  H   H789      1.0  0.01188  0.58976  0.51830  1.0000
  S   S175      1.0  0.24169  0.67805  0.59120  1.0000
  C   C678      1.0  0.24549  0.65132  0.66855  1.0000
  C   C679      1.0  0.04563  0.61157  0.52820  1.0000
  C   C680      1.0  0.14739  0.65745  0.50872  1.0000
  H   H790      1.0  0.26833  0.63589  0.68420  1.0000
  C   C681      1.0  0.32261  0.69054  0.50369  1.0000
  C   C682      1.0  0.09203  0.73222  0.58586  1.0000
  H   H791      1.0  0.11415  0.71538  0.61350  1.0000
  H   H792      1.0  0.25094  0.63321  0.48725  1.0000
  C   C683      1.0  0.25849  0.66451  0.69068  1.0000
  H   H793      1.0  0.07906  0.72511  0.59122  1.0000
  H   H794      1.0  0.07468  0.61093  0.51348  1.0000
  C   C684      1.0  0.06117  0.60620  0.51387  1.0000
  H   H795      1.0  0.01600  0.60973  0.54103  1.0000
  C   C685      1.0  0.02792  0.60568  0.52976  1.0000
  H   H796      1.0  0.14098  0.71935  0.57640  1.0000
  C   C686      1.0  0.30059  0.58033  0.63190  1.0000
  C   C687      1.0  0.06089  0.72814  0.62989  1.0000
  H   H797      1.0  0.29208  0.59321  0.63796  1.0000
  H   H798      1.0  0.31405  0.68154  0.57028  1.0000
  H   H799      1.0  0.32337  0.59646  0.60111  1.0000
  H   H800      1.0  0.29853  0.66409  0.58261  1.0000
  H   H801      1.0  0.99341  0.72869  0.55380  1.0000
  H   H802      1.0  0.09695  0.58381  0.50558  1.0000
  H   H803      1.0  0.08644  0.56320  0.50557  1.0000
  H   H804      1.0  0.09966  0.69954  0.61018  1.0000
  C   C688      1.0  0.30971  0.66765  0.56974  1.0000
  H   H805      1.0  0.31188  0.63638  0.55472  1.0000
  Fe  Fe83      1.0  0.16343  0.60120  0.48203  1.0000
  N   N47       1.0  0.32173  0.57985  0.62995  1.0000
  S   S176      1.0  0.13201  0.59970  0.48400  1.0000
  H   H806      1.0  0.14056  0.73215  0.62281  1.0000
  H   H807      1.0  0.03840  0.58017  0.49318  1.0000
  C   C689      1.0  0.32662  0.57941  0.64915  1.0000
  H   H808      1.0  0.25087  0.66619  0.48976  1.0000
  H   H809      1.0  0.00939  0.73173  0.56881  1.0000
  H   H810      1.0  0.08962  0.61401  0.48271  1.0000
  Fe  Fe84      1.0  0.08517  0.77571  0.10363  1.0000
  S   S177      1.0  0.10361  0.77122  0.07524  1.0000
  S   S178      1.0  0.06899  0.80597  0.10282  1.0000
  C   C690      1.0  0.08794  0.80340  0.02383  1.0000
  Fe  Fe85      1.0  0.12765  0.76026  0.09260  1.0000
  S   S179      1.0  0.15384  0.77502  0.07925  1.0000
  Fe  Fe86      1.0  0.09627  0.74142  0.08232  1.0000
  S   S180      1.0  0.10926  0.76579  0.12093  1.0000
  C   C691      1.0  0.31355  0.87358  0.05416  1.0000
  H   H811      1.0  0.26923  0.90068  0.13182  1.0000
  H   H812      1.0  0.24935  0.94675  0.01877  1.0000
  Fe  Fe87      1.0  0.30693  0.90365  0.21212  1.0000
  S   S181      1.0  0.00888  0.90366  0.03887  1.0000
  C   C692      1.0  0.29920  0.92878  0.05824  1.0000
  H   H813      1.0  0.08619  0.79078  0.03555  1.0000
  S   S182      1.0  0.27929  0.89475  0.20835  1.0000
  C   C693      1.0  0.29783  0.92271  0.09337  1.0000
  H   H814      1.0  0.20817  0.76906  0.06205  1.0000
  H   H815      1.0  0.30437  0.88044  0.12491  1.0000
  Fe  Fe88      1.0  0.24979  0.85357  0.07789  1.0000
  S   S183      1.0  0.24943  0.87870  0.09186  1.0000
  S   S184      1.0  0.26684  0.85281  0.04781  1.0000
  Fe  Fe89      1.0  0.21991  0.83675  0.11046  1.0000
  S   S185      1.0  0.21755  0.86085  0.12725  1.0000
  S   S186      1.0  0.20191  0.81285  0.12284  1.0000
  Fe  Fe90      1.0  0.21725  0.87995  0.09819  1.0000
  S   S187      1.0  0.19867  0.90921  0.09283  1.0000
  Fe  Fe91      1.0  0.25015  0.85737  0.11955  1.0000
  S   S188      1.0  0.27415  0.85702  0.13652  1.0000
  S   S189      1.0  0.21739  0.85631  0.08216  1.0000
  S   S190      1.0  0.25268  0.83171  0.10481  1.0000
  Fe  Fe92      1.0  0.11833  0.88718  0.01773  1.0000
  S   S191      1.0  0.11471  0.91925  0.00795  1.0000
  S   S192      1.0  0.09799  0.87280  0.04244  1.0000
  Fe  Fe93      1.0  0.14664  0.91556  0.00801  1.0000
  S   S193      1.0  0.16011  0.93680  0.01773  1.0000
  S   S194      1.0  0.14962  0.88412  0.02045  1.0000
  C   C694      1.0  0.18763  0.91599  0.07212  1.0000
  C   C695      1.0  0.18696  0.90269  0.06052  1.0000
  C   C696      1.0  0.17805  0.90881  0.04405  1.0000
  C   C697      1.0  0.17014  0.92830  0.03893  1.0000
  C   C698      1.0  0.17120  0.94159  0.05029  1.0000
  C   C699      1.0  0.17966  0.93542  0.06695  1.0000
  H   H816      1.0  0.19316  0.88772  0.06424  1.0000
  H   H817      1.0  0.17776  0.89853  0.03508  1.0000
  H   H818      1.0  0.16524  0.95669  0.04634  1.0000
  H   H819      1.0  0.18016  0.94579  0.07579  1.0000
  C   C700      1.0  0.05820  0.82464  0.03522  1.0000
  C   C701      1.0  0.31330  0.87733  0.01993  1.0000
  C   C702      1.0  0.29700  0.86818  0.02404  1.0000
  C   C703      1.0  0.28844  0.86242  0.04322  1.0000
  C   C704      1.0  0.29670  0.86518  0.05830  1.0000
  H   H820      1.0  0.29033  0.86054  0.07314  1.0000
  C   C705      1.0  0.23483  0.90898  0.00707  1.0000
  H   H821      1.0  0.29075  0.86601  0.01232  1.0000
  C   C706      1.0  0.27477  0.86693  0.15716  1.0000
  C   C707      1.0  0.25820  0.87673  0.16752  1.0000
  C   C708      1.0  0.25976  0.88515  0.18317  1.0000
  C   C709      1.0  0.27793  0.88430  0.18833  1.0000
  C   C710      1.0  0.29449  0.87466  0.17784  1.0000
  C   C711      1.0  0.29285  0.86572  0.16264  1.0000
  H   H822      1.0  0.24417  0.87773  0.16356  1.0000
  C   C712      1.0  0.21745  0.84660  0.03366  1.0000
  N   N48       1.0  0.07965  0.82218  0.03049  1.0000
  H   H823      1.0  0.30574  0.85789  0.15500  1.0000
  C   C713      1.0  0.30725  0.77051  0.33544  1.0000
  H   H824      1.0  0.08309  0.85192  0.01968  1.0000
  H   H825      1.0  0.00158  0.83058  0.04973  1.0000
  C   C714      1.0  0.03348  0.89425  0.03999  1.0000
  C   C715      1.0  0.03919  0.88094  0.05582  1.0000
  C   C716      1.0  0.05903  0.87463  0.05665  1.0000
  C   C717      1.0  0.07320  0.88145  0.04160  1.0000
  C   C718      1.0  0.06746  0.89462  0.02574  1.0000
  C   C719      1.0  0.04767  0.90106  0.02500  1.0000
  H   H826      1.0  0.02837  0.87558  0.06744  1.0000
  H   H827      1.0  0.06340  0.86446  0.06897  1.0000
  C   C720      1.0  0.18749  0.80358  0.11070  1.0000
  C   C721      1.0  0.17736  0.78872  0.12090  1.0000
  C   C722      1.0  0.16644  0.78029  0.11166  1.0000
  C   C723      1.0  0.16571  0.78651  0.09201  1.0000
  C   C724      1.0  0.17533  0.80178  0.08195  1.0000
  C   C725      1.0  0.18604  0.81039  0.09126  1.0000
  H   H828      1.0  0.17830  0.78343  0.13597  1.0000
  H   H829      1.0  0.15913  0.76855  0.11959  1.0000
  H   H830      1.0  0.17481  0.80676  0.06677  1.0000
  H   H831      1.0  0.19357  0.82194  0.08329  1.0000
  C   C726      1.0  0.04462  0.80998  0.10007  1.0000
  C   C727      1.0  0.03340  0.79527  0.10561  1.0000
  C   C728      1.0  0.01354  0.79953  0.10429  1.0000
  C   C729      1.0  0.00511  0.81837  0.09710  1.0000
  C   C730      1.0  0.01666  0.83267  0.09073  1.0000
  C   C731      1.0  0.03623  0.82860  0.09251  1.0000
  H   H832      1.0  0.03986  0.78083  0.11147  1.0000
  S   S195      1.0  0.31423  0.93549  0.00598  1.0000
  H   H833      1.0  0.08104  0.80174  0.01184  1.0000
  H   H834      1.0  0.04493  0.83990  0.08787  1.0000
  N   N49       1.0  0.11845  0.83521  0.09563  1.0000
  C   C732      1.0  0.09892  0.84750  0.09720  1.0000
  C   C733      1.0  0.12268  0.82753  0.07728  1.0000
  C   C734      1.0  0.11757  0.81854  0.11174  1.0000
  C   C735      1.0  0.13333  0.84681  0.09575  1.0000
  C   C736      1.0  0.13489  0.86414  0.08226  1.0000
  C   C737      1.0  0.14669  0.84133  0.10891  1.0000
  C   C738      1.0  0.14832  0.87571  0.08258  1.0000
  C   C739      1.0  0.16019  0.85291  0.10896  1.0000
  C   C740      1.0  0.16083  0.87018  0.09602  1.0000
  H   H835      1.0  0.09745  0.85909  0.08445  1.0000
  H   H836      1.0  0.08728  0.83898  0.09815  1.0000
  H   H837      1.0  0.09565  0.85445  0.11028  1.0000
  H   H838      1.0  0.12168  0.83923  0.06452  1.0000
  H   H839      1.0  0.11240  0.81783  0.07718  1.0000
  H   H840      1.0  0.13755  0.81890  0.07514  1.0000
  H   H841      1.0  0.10579  0.81055  0.11166  1.0000
  H   H842      1.0  0.13122  0.80780  0.11061  1.0000
  H   H843      1.0  0.11465  0.82328  0.12604  1.0000
  H   H844      1.0  0.12569  0.86892  0.07136  1.0000
  H   H845      1.0  0.14723  0.82805  0.11922  1.0000
  H   H846      1.0  0.14899  0.88907  0.07237  1.0000
  H   H847      1.0  0.17033  0.84838  0.11907  1.0000
  H   H848      1.0  0.17114  0.87922  0.09639  1.0000
  C   C741      1.0  0.30426  0.88984  0.11059  1.0000
  H   H849      1.0  0.31962  0.88957  0.10336  1.0000
  H   H850      1.0  0.01671  0.85803  0.03022  1.0000
  H   H851      1.0  0.10291  0.83496  0.01109  1.0000
  C   C742      1.0  0.04899  0.80951  0.04699  1.0000
  H   H852      1.0  0.21623  0.92647  0.03885  1.0000
  N   N50       1.0  0.24295  0.91858  0.01926  1.0000
  C   C743      1.0  0.02545  0.94090  0.05625  1.0000
  C   C744      1.0  0.21498  0.91429  0.00517  1.0000
  H   H853      1.0  0.26865  0.91655  0.03159  1.0000
  H   H854      1.0  0.22922  0.90255  0.04548  1.0000
  H   H855      1.0  0.22805  0.94709  0.00920  1.0000
  H   H856      1.0  0.28616  0.75241  0.33622  1.0000
  H   H857      1.0  0.23746  0.92334  0.04896  1.0000
  H   H858      1.0  0.30505  0.94669  0.10372  1.0000
  H   H859      1.0  0.31089  0.96671  0.07209  1.0000
  C   C745      1.0  0.30057  0.91585  0.12814  1.0000
  H   H860      1.0  0.21532  0.85886  0.02154  1.0000
  S   S196      1.0  0.07568  0.74695  0.10936  1.0000
  C   C746      1.0  0.08725  0.82248  0.04808  1.0000
  H   H861      1.0  0.01538  0.94285  0.04577  1.0000
  H   H862      1.0  0.30855  0.87370  0.18170  1.0000
  H   H863      1.0  0.31631  0.91666  0.12469  1.0000
  H   H864      1.0  0.31198  0.88811  0.32992  1.0000
  N   N51       1.0  0.01486  0.94001  0.07647  1.0000
  C   C747      1.0  0.24624  0.89469  0.99634  1.0000
  C   C748      1.0  0.01719  0.82888  0.04546  1.0000
  H   H865      1.0  0.04335  0.91138  0.01272  1.0000
  H   H866      1.0  0.01753  0.74450  0.07651  1.0000
  C   C749      1.0  0.27291  0.90993  0.11761  1.0000
  H   H867      1.0  0.24683  0.89243  0.19129  1.0000
  H   H868      1.0  0.01272  0.91024  0.07786  1.0000
  H   H869      1.0  0.08075  0.83867  0.00166  1.0000
  H   H870      1.0  0.30772  0.95559  0.04274  1.0000
  H   H871      1.0  0.01068  0.84682  0.08403  1.0000
  H   H872      1.0  0.22758  0.85040  0.04156  1.0000
  H   H873      1.0  0.32085  0.87269  0.31201  1.0000
  H   H874      1.0  0.08296  0.81084  0.06010  1.0000
  C   C750      1.0  0.02574  0.84429  0.03451  1.0000
  N   N52       1.0  0.22496  0.82788  0.02671  1.0000
  C   C751      1.0  0.21281  0.82652  0.01271  1.0000
  H   H875      1.0  0.07826  0.89985  0.01398  1.0000
  C   C752      1.0  0.24508  0.82806  0.01613  1.0000
  C   C753      1.0  0.22502  0.81178  0.04334  1.0000
  C   C754      1.0  0.21561  0.79574  0.04486  1.0000
  C   C755      1.0  0.23493  0.81172  0.05859  1.0000
  C   C756      1.0  0.21601  0.78082  0.06081  1.0000
  C   C757      1.0  0.23502  0.79686  0.07456  1.0000
  C   C758      1.0  0.22556  0.78145  0.07568  1.0000
  H   H876      1.0  0.19730  0.82684  0.01961  1.0000
  H   H877      1.0  0.21305  0.83887  0.00047  1.0000
  H   H878      1.0  0.21809  0.81326  0.00609  1.0000
  N   N53       1.0  0.29407  0.90988  0.11218  1.0000
  H   H879      1.0  0.25129  0.81419  0.01079  1.0000
  H   H880      1.0  0.24574  0.84002  0.00354  1.0000
  H   H881      1.0  0.25495  0.83010  0.02540  1.0000
  H   H882      1.0  0.20750  0.79451  0.03417  1.0000
  H   H883      1.0  0.24256  0.82329  0.05840  1.0000
  C   C759      1.0  0.24296  0.93908  0.01027  1.0000
  H   H884      1.0  0.24209  0.79750  0.08637  1.0000
  C   C760      1.0  0.23095  0.91769  0.03888  1.0000
  H   H885      1.0  0.05154  0.85495  0.02123  1.0000
  H   H886      1.0  0.31959  0.88204  0.00510  1.0000
  H   H887      1.0  0.30685  0.81560  0.26757  1.0000
  C   C761      1.0  0.31652  0.84567  0.22531  1.0000
  H   H888      1.0  0.18616  0.95884  0.98248  1.0000
  H   H889      1.0  0.29711  0.78040  0.34378  1.0000
  H   H890      1.0  0.10388  0.80200  0.01856  1.0000
  C   C762      1.0  0.20684  0.90532  0.99401  1.0000
  C   C763      1.0  0.32411  0.88456  0.31802  1.0000
  H   H891      1.0  0.25168  0.94025  0.99541  1.0000
  H   H892      1.0  0.19152  0.90950  0.99313  1.0000
  H   H893      1.0  0.26385  0.89415  0.02825  1.0000
  C   C764      1.0  0.32221  0.97691  0.27160  1.0000
  H   H894      1.0  0.31392  0.95837  0.25555  1.0000
  C   C765      1.0  0.04860  0.73560  0.07100  1.0000
  H   H895      1.0  0.22516  0.77026  0.08837  1.0000
  H   H896      1.0  0.29712  0.88236  0.10259  1.0000
  C   C766      1.0  0.30328  0.94107  0.09147  1.0000
  H   H897      1.0  0.30912  0.85743  0.21593  1.0000
  C   C767      1.0  0.00336  0.92423  0.08045  1.0000
  H   H898      1.0  0.20324  0.84625  0.04353  1.0000
  H   H899      1.0  0.03426  0.95267  0.05213  1.0000
  C   C768      1.0  0.26312  0.90964  0.02176  1.0000
  H   H900      1.0  0.29213  0.92994  0.13159  1.0000
  H   H901      1.0  0.00473  0.78831  0.10906  1.0000
  Fe  Fe94      1.0  0.15603  0.87997  0.98955  1.0000
  H   H902      1.0  0.29823  0.90541  0.14190  1.0000
  C   C769      1.0  0.02880  0.81155  0.05171  1.0000
  C   C770      1.0  0.02965  0.93496  0.08931  1.0000
  C   C771      1.0  0.04594  0.84230  0.02941  1.0000
  H   H903      1.0  0.26468  0.92475  0.11861  1.0000
  H   H904      1.0  0.02216  0.79986  0.06094  1.0000
  H   H905      1.0  0.04038  0.92187  0.08609  1.0000
  S   S197      1.0  0.30606  0.93252  0.22056  1.0000
  H   H906      1.0  0.26720  0.90428  0.10701  1.0000
  H   H907      1.0  0.20553  0.92553  0.01225  1.0000
  H   H908      1.0  0.08147  0.83636  0.05349  1.0000
  C   C772      1.0  0.30102  0.75462  0.33122  1.0000
  H   H909      1.0  0.27350  0.91103  0.00784  1.0000
  H   H910      1.0  0.05730  0.79614  0.05311  1.0000
  Fe  Fe95      1.0  0.10201  0.73611  0.12364  1.0000
  C   C773      1.0  0.08679  0.83758  0.01502  1.0000
  H   H911      1.0  0.99555  0.92194  0.09561  1.0000
  H   H912      1.0  0.10337  0.82068  0.04527  1.0000
  H   H913      1.0  0.26159  0.89005  0.99643  1.0000
  H   H914      1.0  0.29056  0.84167  0.24567  1.0000
  H   H915      1.0  0.02317  0.93161  0.10481  1.0000
  C   C774      1.0  0.00176  0.95824  0.08019  1.0000
  H   H916      1.0  0.32065  0.78550  0.27787  1.0000
  C   C775      1.0  0.32298  0.95925  0.26560  1.0000
  C   C776      1.0  0.30608  0.83675  0.24215  1.0000
  H   H917      1.0  0.00483  0.97418  0.05040  1.0000
  C   C777      1.0  0.29545  0.91716  0.07624  1.0000
  C   C778      1.0  0.30661  0.95279  0.07337  1.0000
  C   C779      1.0  0.21830  0.89121  0.98392  1.0000
  S   S198      1.0  0.12497  0.88001  0.98772  1.0000
  H   H918      1.0  0.29786  0.92379  0.04540  1.0000
  H   H919      1.0  0.29070  0.90370  0.07662  1.0000
  C   C780      1.0  0.30477  0.94658  0.05677  1.0000
  H   H920      1.0  0.05145  0.74670  0.07769  1.0000
  H   H921      1.0  0.03570  0.92723  0.05413  1.0000
  C   C781      1.0  0.23799  0.88600  0.98496  1.0000
  C   C782      1.0  0.31388  0.74209  0.31995  1.0000
  H   H922      1.0  0.03782  0.94702  0.08759  1.0000
  H   H923      1.0  0.32383  0.89699  0.30587  1.0000
  C   C783      1.0  0.31553  0.82176  0.25448  1.0000
  C   C784      1.0  0.99822  0.97434  0.06533  1.0000
  C   C785      1.0  0.32172  0.87988  0.03497  1.0000
  C   C786      1.0  0.32643  0.77377  0.32874  1.0000
  H   H924      1.0  0.32011  0.87539  0.06582  1.0000
  Fe  Fe96      1.0  0.18009  0.87720  0.74860  1.0000
  S   S199      1.0  0.15352  0.86449  0.74899  1.0000
  S   S200      1.0  0.19965  0.86120  0.77015  1.0000
  Fe  Fe97      1.0  0.16846  0.91186  0.71865  1.0000
  S   S201      1.0  0.14118  0.90215  0.71731  1.0000
  S   S202      1.0  0.17159  0.94096  0.70073  1.0000
  Fe  Fe98      1.0  0.13799  0.89502  0.74938  1.0000
  S   S203      1.0  0.10810  0.90356  0.76567  1.0000
  Fe  Fe99      1.0  0.15915  0.87274  0.71659  1.0000
  S   S204      1.0  0.15727  0.85835  0.69157  1.0000
  S   S205      1.0  0.16388  0.90716  0.75101  1.0000
  S   S206      1.0  0.18717  0.88297  0.71601  1.0000
  H   H925      1.0  0.24031  0.93094  0.89308  1.0000
  H   H926      1.0  0.00744  0.78663  0.56340  1.0000
  Fe  Fe100     1.0  0.23977  0.87776  0.87750  1.0000
  S   S207      1.0  0.24693  0.90558  0.85950  1.0000
  S   S208      1.0  0.20807  0.88098  0.89011  1.0000
  Fe  Fe101     1.0  0.28017  0.85590  0.86536  1.0000
  S   S209      1.0  0.28975  0.88211  0.84597  1.0000
  S   S210      1.0  0.30113  0.82780  0.86973  1.0000
  Fe  Fe102     1.0  0.27500  0.89734  0.87095  1.0000
  S   S211      1.0  0.29033  0.91808  0.87984  1.0000
  Fe  Fe103     1.0  0.26061  0.88734  0.83673  1.0000
  S   S212      1.0  0.25522  0.89775  0.80590  1.0000
  S   S213      1.0  0.26672  0.87088  0.89088  1.0000
  S   S214      1.0  0.25217  0.85984  0.85422  1.0000
  C   C787      1.0  0.99879  0.98385  0.58841  1.0000
  C   C788      1.0  0.00397  0.83170  0.61030  1.0000
  H   H927      1.0  0.19697  0.76006  0.65539  1.0000
  H   H928      1.0  0.10244  0.86822  0.69356  1.0000
  H   H929      1.0  0.19652  0.94134  0.90100  1.0000
  Fe  Fe104     1.0  0.10491  0.78861  0.65637  1.0000
  S   S215      1.0  0.11844  0.80392  0.62807  1.0000
  S   S216      1.0  0.10665  0.79730  0.68473  1.0000
  Fe  Fe105     1.0  0.09002  0.76137  0.63630  1.0000
  S   S217      1.0  0.10214  0.77563  0.60663  1.0000
  H   H930      1.0  0.22790  0.95291  0.90157  1.0000
  Fe  Fe106     1.0  0.12836  0.77458  0.61962  1.0000
  S   S218      1.0  0.15882  0.76546  0.60451  1.0000
  Fe  Fe107     1.0  0.09075  0.80332  0.61833  1.0000
  S   S219      1.0  0.07658  0.83213  0.60403  1.0000
  S   S220      1.0  0.11705  0.75907  0.64875  1.0000
  S   S221      1.0  0.07639  0.78931  0.64716  1.0000
  H   H931      1.0  0.04707  0.94879  0.55911  1.0000
  H   H932      1.0  0.30639  0.94652  0.92986  1.0000
  S   S222      1.0  0.01459  0.83733  0.55149  1.0000
  C   C789      1.0  0.31891  0.82224  0.84975  1.0000
  H   H933      1.0  0.16041  0.81279  0.63700  1.0000
  H   H934      1.0  0.30635  0.77508  0.84327  1.0000
  H   H935      1.0  0.24695  0.87519  0.97688  1.0000
  C   C790      1.0  0.14386  0.96154  0.65498  1.0000
  H   H936      1.0  0.15550  0.95167  0.75891  1.0000
  C   C791      1.0  0.04563  0.95186  0.58871  1.0000
  S   S223      1.0  0.10651  0.92971  0.95510  1.0000
  C   C792      1.0  0.15038  0.96388  0.74780  1.0000
  H   H937      1.0  0.15619  0.91444  0.64930  1.0000
  H   H938      1.0  0.10144  0.91795  0.57246  1.0000
  H   H939      1.0  0.06233  0.88221  0.60843  1.0000
  H   H940      1.0  0.03757  0.78996  0.50546  1.0000
  S   S224      1.0  0.09231  0.97126  0.60030  1.0000
  C   C793      1.0  0.06122  0.83282  0.58766  1.0000
  C   C794      1.0  0.05210  0.85084  0.57933  1.0000
  C   C795      1.0  0.02449  0.93493  0.57785  1.0000
  C   C796      1.0  0.03387  0.83536  0.56385  1.0000
  C   C797      1.0  0.04343  0.81722  0.57166  1.0000
  C   C798      1.0  0.05723  0.81595  0.58351  1.0000
  C   C799      1.0  0.04746  0.74312  0.62193  1.0000
  H   H941      1.0  0.03981  0.80421  0.56900  1.0000
  H   H942      1.0  0.06439  0.80199  0.58981  1.0000
  C   C800      1.0  0.16942  0.79198  0.68417  1.0000
  C   C801      1.0  0.00129  0.98271  0.56890  1.0000
  H   H943      1.0  0.27094  0.90259  0.95066  1.0000
  C   C802      1.0  0.02095  0.93717  0.61184  1.0000
  C   C803      1.0  0.20133  0.87390  0.91505  1.0000
  C   C804      1.0  0.18236  0.88047  0.92376  1.0000
  C   C805      1.0  0.17670  0.87594  0.94378  1.0000
  C   C806      1.0  0.18986  0.86444  0.95513  1.0000
  C   C807      1.0  0.20879  0.85759  0.94643  1.0000
  C   C808      1.0  0.21459  0.86244  0.92636  1.0000
  H   H944      1.0  0.17203  0.88923  0.91503  1.0000
  H   H945      1.0  0.16201  0.88110  0.95038  1.0000
  H   H946      1.0  0.21897  0.84863  0.95519  1.0000
  H   H947      1.0  0.22921  0.85722  0.91965  1.0000
  C   C809      1.0  0.28879  0.92472  0.94256  1.0000
  C   C810      1.0  0.29907  0.93584  0.92710  1.0000
  C   C811      1.0  0.29921  0.93375  0.90799  1.0000
  C   C812      1.0  0.28950  0.92021  0.90415  1.0000
  H   H948      1.0  0.21165  0.92036  0.89287  1.0000
  C   C813      1.0  0.11459  0.95699  0.70722  1.0000
  H   H949      1.0  0.30681  0.94278  0.89611  1.0000
  C   C814      1.0  0.14784  0.93381  0.90692  1.0000
  C   C815      1.0  0.13845  0.92837  0.92591  1.0000
  H   H950      1.0  0.16317  0.92881  0.90290  1.0000
  H   H951      1.0  0.14659  0.91929  0.93652  1.0000
  C   C816      1.0  0.14210  0.84217  0.69021  1.0000
  C   C817      1.0  0.14209  0.83763  0.67207  1.0000
  C   C818      1.0  0.13079  0.82445  0.67018  1.0000
  C   C819      1.0  0.11987  0.81509  0.68649  1.0000
  C   C820      1.0  0.11968  0.81975  0.70465  1.0000
  C   C821      1.0  0.13061  0.83337  0.70651  1.0000
  H   H952      1.0  0.15117  0.84412  0.65945  1.0000
  H   H953      1.0  0.13076  0.82127  0.65617  1.0000
  H   H954      1.0  0.11119  0.81267  0.71738  1.0000
  H   H955      1.0  0.13054  0.83666  0.72059  1.0000
  C   C822      1.0  0.21416  0.87235  0.78019  1.0000
  C   C823      1.0  0.22081  0.88942  0.77069  1.0000
  C   C824      1.0  0.23348  0.89702  0.77865  1.0000
  C   C825      1.0  0.23920  0.88790  0.79636  1.0000
  C   C826      1.0  0.23213  0.87112  0.80605  1.0000
  C   C827      1.0  0.21989  0.86327  0.79787  1.0000
  H   H956      1.0  0.21659  0.89647  0.75698  1.0000
  H   H957      1.0  0.23883  0.91004  0.77106  1.0000
  H   H958      1.0  0.23630  0.86397  0.81969  1.0000
  H   H959      1.0  0.21482  0.85004  0.80528  1.0000
  C   C828      1.0  0.10355  0.92453  0.77611  1.0000
  C   C829      1.0  0.08431  0.93341  0.78103  1.0000
  C   C830      1.0  0.08006  0.95025  0.78917  1.0000
  C   C831      1.0  0.09498  0.95811  0.79289  1.0000
  C   C832      1.0  0.11428  0.94915  0.78825  1.0000
  C   C833      1.0  0.11857  0.93249  0.77961  1.0000
  H   H960      1.0  0.07264  0.92730  0.77843  1.0000
  H   H961      1.0  0.06511  0.95712  0.79273  1.0000
  H   H962      1.0  0.12586  0.95513  0.79113  1.0000
  H   H963      1.0  0.13341  0.92551  0.77626  1.0000
  C   C834      1.0  0.16273  0.94280  0.67924  1.0000
  C   C835      1.0  0.16381  0.92621  0.67145  1.0000
  C   C836      1.0  0.99861  0.78327  0.63205  1.0000
  C   C837      1.0  0.15329  0.96059  0.67060  1.0000
  H   H964      1.0  0.17129  0.91246  0.67788  1.0000
  C   C838      1.0  0.02306  0.78955  0.53488  1.0000
  C   C839      1.0  0.31982  0.83480  0.83207  1.0000
  H   H965      1.0  0.99911  0.74905  0.52625  1.0000
  C   C840      1.0  0.11021  0.90313  0.60951  1.0000
  C   C841      1.0  0.10803  0.94612  0.91702  1.0000
  N   N54       1.0  0.16283  0.97900  0.74304  1.0000
  C   C842      1.0  0.07028  0.86663  0.66563  1.0000
  C   C843      1.0  0.13748  0.94587  0.89312  1.0000
  C   C844      1.0  0.06484  0.89690  0.60102  1.0000
  H   H966      1.0  0.04875  0.75795  0.62150  1.0000
  H   H967      1.0  0.23654  0.93642  0.94486  1.0000
  C   C845      1.0  0.12322  0.87812  0.63396  1.0000
  H   H968      1.0  0.11049  0.91769  0.60179  1.0000
  Fe  Fe108     1.0  0.31416  0.93390  0.97510  1.0000
  C   C846      1.0  0.20430  0.92664  0.90603  1.0000
  C   C847      1.0  0.03865  0.85210  0.56730  1.0000
  H   H969      1.0  0.09259  0.95083  0.92090  1.0000
  S   S225      1.0  0.04222  0.95695  0.62658  1.0000
  H   H970      1.0  0.06343  0.85621  0.66166  1.0000
  H   H971      1.0  0.07672  0.92094  0.56946  1.0000
  S   S226      1.0  0.15010  0.95357  0.86994  1.0000
  H   H972      1.0  0.13189  0.90598  0.62514  1.0000
  H   H973      1.0  0.13280  0.87323  0.64452  1.0000
  C   C848      1.0  0.09818  0.89103  0.60619  1.0000
  C   C849      1.0  0.09911  0.87232  0.61762  1.0000
  N   N55       1.0  0.08531  0.89712  0.59150  1.0000
  H   H974      1.0  0.08198  0.92789  0.59010  1.0000
  C   C850      1.0  0.18225  0.97097  0.73315  1.0000
  H   H975      1.0  0.07070  0.91457  0.65667  1.0000
  H   H976      1.0  0.14942  0.97964  0.70953  1.0000
  C   C851      1.0  0.08649  0.91685  0.58043  1.0000
  C   C852      1.0  0.22090  0.94027  0.94774  1.0000
  C   C853      1.0  0.27956  0.90874  0.91963  1.0000
  N   N56       1.0  0.00579  0.81739  0.62825  1.0000
  C   C854      1.0  0.08350  0.86043  0.67832  1.0000
  C   C855      1.0  0.12261  0.89660  0.62310  1.0000
  H   H977      1.0  0.16456  0.79930  0.71267  1.0000
  C   C856      1.0  0.15520  0.92733  0.65530  1.0000
  H   H978      1.0  0.11183  0.85168  0.63982  1.0000
  C   C857      1.0  0.19818  0.81503  0.67525  1.0000
  H   H979      1.0  0.10943  0.96075  0.88741  1.0000
  H   H980      1.0  0.16029  0.97517  0.91523  1.0000
  H   H981      1.0  0.08683  0.84519  0.68425  1.0000
  C   C858      1.0  0.11751  0.95178  0.89811  1.0000
  C   C859      1.0  0.18740  0.81249  0.69381  1.0000
  C   C860      1.0  0.11854  0.93475  0.93108  1.0000
  H   H982      1.0  0.15261  0.97350  0.67642  1.0000
  H   H983      1.0  0.99968  0.75971  0.58722  1.0000
  C   C861      1.0  0.18872  0.94120  0.94128  1.0000
  S   S227      1.0  0.28716  0.92821  0.96659  1.0000
  C   C862      1.0  0.02740  0.78339  0.51707  1.0000
  C   C863      1.0  0.11146  0.86602  0.63126  1.0000
  H   H984      1.0  0.05513  0.86393  0.58240  1.0000
  C   C864      1.0  0.03984  0.94541  0.57386  1.0000
  H   H985      1.0  0.08147  0.88796  0.56584  1.0000
  H   H986      1.0  0.06036  0.90676  0.61190  1.0000
  H   H987      1.0  0.23852  0.90623  0.93396  1.0000
  H   H988      1.0  0.09030  0.86235  0.61606  1.0000
  C   C865      1.0  0.21267  0.94853  0.96423  1.0000
  C   C866      1.0  0.09059  0.88359  0.57739  1.0000
  H   H989      1.0  0.24607  0.93679  0.91372  1.0000
  H   H990      1.0  0.26820  0.82722  0.82670  1.0000
  S   S228      1.0  0.15522  0.91133  0.97718  1.0000
  H   H991      1.0  0.10193  0.98028  0.94469  1.0000
  H   H992      1.0  0.10607  0.88287  0.57035  1.0000
  C   C867      1.0  0.22695  0.90700  0.92549  1.0000
  H   H993      1.0  0.12468  0.88782  0.68526  1.0000
  H   H994      1.0  0.08996  0.74157  0.57177  1.0000
  H   H995      1.0  0.20903  0.82433  0.67181  1.0000
  S   S229      1.0  0.13162  0.94505  0.62920  1.0000
  C   C868      1.0  0.14461  0.94482  0.64751  1.0000
  Fe  Fe109     1.0  0.10833  0.97091  0.62410  1.0000
  H   H996      1.0  0.17045  0.97040  0.77167  1.0000
  C   C869      1.0  0.27891  0.91125  0.93876  1.0000
  H   H997      1.0  0.03126  0.80012  0.61456  1.0000
  N   N57       1.0  0.18345  0.90270  0.83712  1.0000
  C   C870      1.0  0.19181  0.88230  0.84380  1.0000
  C   C871      1.0  0.19680  0.91083  0.82013  1.0000
  C   C872      1.0  0.18262  0.91360  0.85286  1.0000
  C   C873      1.0  0.16436  0.90369  0.83160  1.0000
  C   C874      1.0  0.14697  0.91470  0.84013  1.0000
  C   C875      1.0  0.16282  0.89367  0.81695  1.0000
  C   C876      1.0  0.12922  0.91537  0.83446  1.0000
  C   C877      1.0  0.14498  0.89440  0.81145  1.0000
  C   C878      1.0  0.12820  0.90512  0.82029  1.0000
  H   H998      1.0  0.19419  0.87320  0.83249  1.0000
  H   H999      1.0  0.20617  0.88106  0.84816  1.0000
  H   H1000     1.0  0.18212  0.87576  0.85662  1.0000
  H   H1001     1.0  0.19908  0.90285  0.80792  1.0000
  H   H1002     1.0  0.21141  0.91033  0.82362  1.0000
  H   H1003     1.0  0.19097  0.92618  0.81474  1.0000
  H   H1004     1.0  0.17764  0.92932  0.84840  1.0000
  H   H1005     1.0  0.17286  0.90828  0.86627  1.0000
  H   H1006     1.0  0.19713  0.91212  0.85695  1.0000
  H   H1007     1.0  0.14664  0.92295  0.85123  1.0000
  H   H1008     1.0  0.17542  0.88520  0.80954  1.0000
  H   H1009     1.0  0.11615  0.92396  0.84108  1.0000
  H   H1010     1.0  0.14415  0.88667  0.80020  1.0000
  H   H1011     1.0  0.11439  0.90566  0.81597  1.0000
  N   N58       1.0  0.17610  0.78575  0.64944  1.0000
  C   C879      1.0  0.15923  0.77547  0.65553  1.0000
  C   C880      1.0  0.17215  0.80094  0.63259  1.0000
  C   C881      1.0  0.19332  0.77159  0.64310  1.0000
  C   C882      1.0  0.17996  0.79452  0.66496  1.0000
  H   H1012     1.0  0.27231  0.89805  0.91685  1.0000
  C   C883      1.0  0.14518  0.98163  0.91543  1.0000
  C   C884      1.0  0.16521  0.98355  0.76162  1.0000
  H   H1013     1.0  0.16758  0.79511  0.62130  1.0000
  H   H1014     1.0  0.13601  0.97516  0.64874  1.0000
  H   H1015     1.0  0.15656  0.76926  0.64354  1.0000
  C   C885      1.0  0.11099  0.95518  0.72726  1.0000
  H   H1016     1.0  0.14565  0.78536  0.66025  1.0000
  C   C886      1.0  0.30197  0.78691  0.83214  1.0000
  H   H1017     1.0  0.32256  0.86070  0.87297  1.0000
  H   H1018     1.0  0.26576  0.82145  0.77978  1.0000
  H   H1019     1.0  0.15772  0.78375  0.68859  1.0000
  C   C887      1.0  0.06590  0.88619  0.65807  1.0000
  H   H1020     1.0  0.07265  0.98213  0.93451  1.0000
  H   H1021     1.0  0.19349  0.91725  0.91354  1.0000
  C   C888      1.0  0.01522  0.93058  0.59698  1.0000
  H   H1022     1.0  0.18969  0.81999  0.70462  1.0000
  N   N59       1.0  0.21826  0.92717  0.91857  1.0000
  H   H1023     1.0  0.00335  0.92255  0.60026  1.0000
  C   C889      1.0  0.03602  0.94806  0.60773  1.0000
  H   H1024     1.0  0.18508  0.80752  0.62526  1.0000
  H   H1025     1.0  0.12649  0.91262  0.68160  1.0000
  H   H1026     1.0  0.05729  0.96008  0.58546  1.0000
  C   C890      1.0  0.17321  0.80084  0.69830  1.0000
  H   H1027     1.0  0.27804  0.80016  0.85127  1.0000
  S   S230      1.0  0.01741  0.92815  0.55825  1.0000
  H   H1028     1.0  0.17857  0.93833  0.93339  1.0000
  C   C891      1.0  0.20919  0.93660  0.93556  1.0000
  H   H1029     1.0  0.23345  0.89901  0.91326  1.0000
  H   H1030     1.0  0.05468  0.90175  0.59041  1.0000
  H   H1031     1.0  0.03632  0.81877  0.62485  1.0000
  C   C892      1.0  0.23373  0.93742  0.90630  1.0000
  H   H1032     1.0  0.28071  0.86674  0.78480  1.0000
  H   H1033     1.0  0.12402  0.90235  0.66180  1.0000
  H   H1034     1.0  0.03183  0.86613  0.56082  1.0000
  H   H1035     1.0  0.16504  0.95241  0.96228  1.0000
  H   H1036     1.0  0.08856  0.86862  0.58421  1.0000
  H   H1037     1.0  0.09179  0.74174  0.59638  1.0000
  S   S231      1.0  0.14098  0.97389  0.81722  1.0000
  H   H1038     1.0  0.30965  0.84814  0.83059  1.0000
  S   S232      1.0  0.08150  0.97368  0.64640  1.0000
  H   H1039     1.0  0.02918  0.79779  0.64049  1.0000
  H   H1040     1.0  0.20637  0.77844  0.63705  1.0000
  C   C893      1.0  0.28485  0.85379  0.79563  1.0000
  C   C894      1.0  0.29142  0.81875  0.80336  1.0000
  C   C895      1.0  0.30763  0.80404  0.79928  1.0000
  C   C896      1.0  0.16618  0.74057  0.60407  1.0000
  C   C897      1.0  0.31271  0.78838  0.81352  1.0000
  C   C898      1.0  0.26588  0.83486  0.78526  1.0000
  H   H1041     1.0  0.25487  0.83509  0.79865  1.0000
  Fe  Fe110     1.0  0.99723  0.86737  0.55187  1.0000
  C   C899      1.0  0.18067  0.94932  0.95792  1.0000
  H   H1042     1.0  0.01361  0.77662  0.63197  1.0000
  C   C900      1.0  0.10037  0.97062  0.73619  1.0000
  H   H1043     1.0  0.02138  0.75045  0.60948  1.0000
  C   C901      1.0  0.02649  0.80801  0.62701  1.0000
  N   N60       1.0  0.28548  0.83552  0.78868  1.0000
  H   H1044     1.0  0.05546  0.89101  0.64834  1.0000
  H   H1045     1.0  0.20345  0.80848  0.64687  1.0000
  H   H1046     1.0  0.15042  0.95711  0.73519  1.0000
  H   H1047     1.0  0.31698  0.80444  0.78538  1.0000
  H   H1048     1.0  0.13513  0.96993  0.75348  1.0000
  C   C902      1.0  0.28601  0.80104  0.83661  1.0000
  Fe  Fe111     1.0  0.99603  0.90839  0.55819  1.0000
  N   N61       1.0  0.09770  0.90762  0.68217  1.0000
  C   C903      1.0  0.09248  0.92791  0.67259  1.0000
  C   C904      1.0  0.09200  0.90701  0.70335  1.0000
  C   C905      1.0  0.11908  0.90228  0.67752  1.0000
  C   C906      1.0  0.08835  0.89380  0.67607  1.0000
  H   H1049     1.0  0.16156  0.76313  0.66749  1.0000
  C   C907      1.0  0.07480  0.89966  0.66308  1.0000
  H   H1050     1.0  0.29405  0.84908  0.75920  1.0000
  H   H1051     1.0  0.02220  0.76387  0.50038  1.0000
  H   H1052     1.0  0.01341  0.93414  0.62654  1.0000
  H   H1053     1.0  0.07667  0.93346  0.67623  1.0000
  H   H1054     1.0  0.10016  0.93786  0.67707  1.0000
  H   H1055     1.0  0.09678  0.92940  0.65658  1.0000
  H   H1056     1.0  0.07593  0.91000  0.70763  1.0000
  H   H1057     1.0  0.09806  0.91781  0.70843  1.0000
  H   H1058     1.0  0.26061  0.84746  0.77457  1.0000
  H   H1059     1.0  0.09737  0.89272  0.71169  1.0000
  H   H1060     1.0  0.27405  0.85545  0.80898  1.0000
  H   H1061     1.0  0.21576  0.89902  0.93505  1.0000
  C   C908      1.0  0.19469  0.80606  0.66104  1.0000
  C   C909      1.0  0.29878  0.83615  0.76977  1.0000
  H   H1062     1.0  0.13581  0.96727  0.94420  1.0000
  H   H1063     1.0  0.01512  0.84124  0.60696  1.0000
  C   C910      1.0  0.09241  0.87376  0.68352  1.0000
  H   H1064     1.0  0.11001  0.97558  0.68038  1.0000
  Fe  Fe112     1.0  0.13488  0.97637  0.84871  1.0000
  H   H1065     1.0  0.02981  0.80104  0.53698  1.0000
  C   C911      1.0  0.28068  0.81665  0.82245  1.0000
  H   H1066     1.0  0.19078  0.76454  0.63154  1.0000
  C   C912      1.0  0.10744  0.97419  0.69600  1.0000
  H   H1067     1.0  0.29924  0.82332  0.76310  1.0000
  H   H1068     1.0  0.12299  0.94504  0.70039  1.0000
  C   C913      1.0  0.00081  0.82780  0.64493  1.0000
  H   H1069     1.0  0.11640  0.94164  0.73596  1.0000
  C   C914      1.0  0.19258  0.95295  0.96937  1.0000
  C   C915      1.0  0.01870  0.76876  0.51423  1.0000
  H   H1070     1.0  0.29919  0.85467  0.79879  1.0000
  C   C916      1.0  0.00559  0.76028  0.52919  1.0000
  S   S233      1.0  0.00195  0.89471  0.53135  1.0000
  C   C917      1.0  0.00100  0.76604  0.54763  1.0000
  C   C918      1.0  0.03200  0.73882  0.61508  1.0000
  H   H1071     1.0  0.09800  0.96814  0.75176  1.0000
  H   H1072     1.0  0.19333  0.74424  0.58524  1.0000
  H   H1073     1.0  0.00564  0.82442  0.59761  1.0000
  C   C919      1.0  0.01009  0.78108  0.55002  1.0000
  C   C920      1.0  0.13141  0.97727  0.93173  1.0000
  Fe  Fe113     1.0  0.06536  0.97591  0.62206  1.0000
  H   H1074     1.0  0.31381  0.83687  0.77133  1.0000
  S   S234      1.0  0.08891  0.97994  0.80189  1.0000
  H   H1075     1.0  0.00137  0.81751  0.65879  1.0000
  C   C921      1.0  0.11176  0.98490  0.93177  1.0000
  H   H1076     1.0  0.06426  0.97697  0.55136  1.0000
  H   H1077     1.0  0.18898  0.95765  0.74205  1.0000
  H   H1078     1.0  0.18159  0.96703  0.71914  1.0000
  H   H1079     1.0  0.21188  0.88438  0.97523  1.0000
  H   H1080     1.0  0.12681  0.73841  0.58837  1.0000
  H   H1081     1.0  0.32318  0.89455  0.85677  1.0000
  H   H1082     1.0  0.08172  0.98424  0.89834  1.0000
  H   H1083     1.0  0.32549  0.77765  0.81025  1.0000
  H   H1084     1.0  0.01099  0.83796  0.64389  1.0000
  H   H1085     1.0  0.19228  0.98165  0.72992  1.0000
  Fe  Fe114     1.0  0.12360  0.91209  0.97794  1.0000
  H   H1086     1.0  0.12549  0.73914  0.56380  1.0000
  H   H1087     1.0  0.22193  0.95116  0.97326  1.0000
  S   S235      1.0  0.18282  0.85915  0.98025  1.0000
  C   C922      1.0  0.99410  0.73533  0.56627  1.0000
  S   S236      1.0  0.99348  0.88037  0.57857  1.0000
  Fe  Fe115     1.0  0.35349  0.10941  0.20963  1.0000
  C   C923      1.0  0.59416  0.17860  0.00109  1.0000
  S   S237      1.0  0.35642  0.07764  0.22157  1.0000
  Fe  Fe116     1.0  0.36662  0.14828  0.19818  1.0000
  C   C924      1.0  0.34481  0.09680  0.10873  1.0000
  S   S238      1.0  0.38976  0.16598  0.19590  1.0000
  H   H1088     1.0  0.65543  0.06201  0.05222  1.0000
  H   H1089     1.0  0.64454  0.15015  0.03766  1.0000
  C   C925      1.0  0.45853  0.20395  0.06260  1.0000
  S   S239      1.0  0.35305  0.13254  0.22659  1.0000
  S   S240      1.0  0.37010  0.12368  0.18209  1.0000
  Fe  Fe117     1.0  0.39563  0.02555  0.06665  1.0000
  S   S241      1.0  0.42147  0.02002  0.08174  1.0000
  S   S242      1.0  0.39691  0.00542  0.04531  1.0000
  Fe  Fe118     1.0  0.37505  0.05711  0.09040  1.0000
  S   S243      1.0  0.39870  0.05352  0.10761  1.0000
  S   S244      1.0  0.34801  0.07937  0.09381  1.0000
  Fe  Fe119     1.0  0.41852  0.05227  0.07909  1.0000
  S   S245      1.0  0.44303  0.06971  0.06784  1.0000
  Fe  Fe120     1.0  0.39947  0.02180  0.10884  1.0000
  S   S246      1.0  0.40335  0.99921  0.13534  1.0000
  S   S247      1.0  0.39459  0.05775  0.06150  1.0000
  S   S248      1.0  0.37391  0.02550  0.09400  1.0000
  C   C926      1.0  0.61806  0.18103  0.06924  1.0000
  Fe  Fe121     1.0  0.38780  0.02069  0.31004  1.0000
  S   S249      1.0  0.35587  0.02992  0.31741  1.0000
  S   S250      1.0  0.40158  0.04525  0.29165  1.0000
  Fe  Fe122     1.0  0.35938  0.01587  0.34764  1.0000
  S   S251      1.0  0.34408  0.03465  0.37021  1.0000
  C   C927      1.0  0.56262  0.18641  0.02059  1.0000
  S   S252      1.0  0.39173  0.00788  0.34058  1.0000
  Fe  Fe123     1.0  0.35339  0.00121  0.31162  1.0000
  C   C928      1.0  0.61178  0.10390  0.06868  1.0000
  Fe  Fe124     1.0  0.36579  0.13387  0.43049  1.0000
  S   S253      1.0  0.35045  0.10850  0.43740  1.0000
  S   S254      1.0  0.35759  0.15822  0.40701  1.0000
  Fe  Fe125     1.0  0.37998  0.09056  0.43724  1.0000
  S   S255      1.0  0.39002  0.06376  0.42297  1.0000
  H   H1090     1.0  0.37254  0.13214  0.10414  1.0000
  S   S256      1.0  0.39554  0.11598  0.42806  1.0000
  C   C929      1.0  0.41954  0.21038  0.08086  1.0000
  H   H1091     1.0  0.43021  0.01327  0.98756  1.0000
  C   C930      1.0  0.34794  0.99015  0.15112  1.0000
  C   C931      1.0  0.38124  0.02475  0.99254  1.0000
  C   C932      1.0  0.40596  0.14314  0.12532  1.0000
  H   H1092     1.0  0.52824  0.17241  0.03509  1.0000
  S   S257      1.0  0.36389  0.13725  0.46125  1.0000
  Fe  Fe126     1.0  0.51700  0.17116  0.10815  1.0000
  S   S258      1.0  0.52869  0.17995  0.07690  1.0000
  S   S259      1.0  0.51878  0.18861  0.13061  1.0000
  Fe  Fe127     1.0  0.49754  0.13962  0.09952  1.0000
  S   S260      1.0  0.50860  0.14588  0.06759  1.0000
  S   S261      1.0  0.47580  0.11960  0.11400  1.0000
  Fe  Fe128     1.0  0.53649  0.14809  0.07639  1.0000
  Fe  Fe129     1.0  0.49986  0.17696  0.07134  1.0000
  S   S262      1.0  0.52627  0.13926  0.10827  1.0000
  S   S263      1.0  0.48732  0.17076  0.10258  1.0000
  H   H1093     1.0  0.38296  0.09414  0.23686  1.0000
  H   H1094     1.0  0.33291  0.17700  0.37885  1.0000
  H   H1095     1.0  0.42411  0.17986  0.09192  1.0000
  H   H1096     1.0  0.45856  0.17421  0.07602  1.0000
  C   C933      1.0  0.53924  0.19919  0.13002  1.0000
  H   H1097     1.0  0.34592  0.02176  0.18147  1.0000
  C   C934      1.0  0.57103  0.21507  0.13397  1.0000
  C   C935      1.0  0.57392  0.19671  0.12877  1.0000
  C   C936      1.0  0.55813  0.18889  0.12657  1.0000
  H   H1098     1.0  0.58839  0.18834  0.12673  1.0000
  H   H1099     1.0  0.56048  0.17454  0.12303  1.0000
  C   C937      1.0  0.58176  0.13048  0.00013  1.0000
  C   C938      1.0  0.59656  0.13126  0.00987  1.0000
  C   C939      1.0  0.59208  0.13360  0.02934  1.0000
  C   C940      1.0  0.57286  0.13490  0.03916  1.0000
  C   C941      1.0  0.55818  0.13365  0.02955  1.0000
  C   C942      1.0  0.56261  0.13159  0.01001  1.0000
  C   C943      1.0  0.59472  0.20751  0.08097  1.0000
  H   H1100     1.0  0.54346  0.13408  0.03723  1.0000
  H   H1101     1.0  0.55120  0.13073  0.00255  1.0000
  C   C944      1.0  0.38112  0.22412  0.18977  1.0000
  C   C945      1.0  0.33016  0.11283  0.10616  1.0000
  H   H1102     1.0  0.37618  0.10513  0.30678  1.0000
  C   C946      1.0  0.34429  0.00356  0.03217  1.0000
  C   C947      1.0  0.37966  0.00692  0.21839  1.0000
  C   C948      1.0  0.39757  0.10409  0.07903  1.0000
  H   H1103     1.0  0.36915  0.03377  0.00006  1.0000
  H   H1104     1.0  0.33355  0.17699  0.23087  1.0000
  H   H1105     1.0  0.42404  0.21688  0.11630  1.0000
  C   C949      1.0  0.61199  0.11613  0.08149  1.0000
  N   N62       1.0  0.53160  0.19114  0.00744  1.0000
  C   C950      1.0  0.35747  0.04312  0.38400  1.0000
  C   C951      1.0  0.37563  0.03311  0.38777  1.0000
  C   C952      1.0  0.38545  0.03974  0.39957  1.0000
  C   C953      1.0  0.37729  0.05645  0.40769  1.0000
  C   C954      1.0  0.35925  0.06663  0.40367  1.0000
  C   C955      1.0  0.34946  0.06001  0.39182  1.0000
  H   H1106     1.0  0.38194  0.02002  0.38192  1.0000
  H   H1107     1.0  0.39938  0.03174  0.40260  1.0000
  H   H1108     1.0  0.35280  0.07959  0.40968  1.0000
  C   C956      1.0  0.43843  0.21694  0.11855  1.0000
  C   C957      1.0  0.37777  0.99873  0.03717  1.0000
  C   C958      1.0  0.35869  0.00874  0.04001  1.0000
  H   H1109     1.0  0.33563  0.06807  0.38863  1.0000
  H   H1110     1.0  0.39727  0.10317  0.31743  1.0000
  C   C959      1.0  0.45266  0.08245  0.08140  1.0000
  C   C960      1.0  0.44559  0.08291  0.10103  1.0000
  C   C961      1.0  0.45298  0.09413  0.11089  1.0000
  C   C962      1.0  0.46739  0.10512  0.10123  1.0000
  C   C963      1.0  0.47442  0.10466  0.08161  1.0000
  C   C964      1.0  0.46716  0.09333  0.07181  1.0000
  H   H1111     1.0  0.43444  0.07463  0.10862  1.0000
  H   H1112     1.0  0.44744  0.09440  0.12605  1.0000
  H   H1113     1.0  0.48553  0.11296  0.07400  1.0000
  H   H1114     1.0  0.47272  0.09310  0.05663  1.0000
  H   H1115     1.0  0.60983  0.17510  0.99970  1.0000
  H   H1116     1.0  0.52184  0.22557  0.13787  1.0000
  H   H1117     1.0  0.61094  0.07003  0.03164  1.0000
  C   C965      1.0  0.57959  0.19839  0.07984  1.0000
  H   H1118     1.0  0.34659  0.11358  0.32698  1.0000
  C   C966      1.0  0.38455  0.13623  0.06447  1.0000
  C   C967      1.0  0.38250  0.19062  0.18731  1.0000
  C   C968      1.0  0.37175  0.19665  0.17223  1.0000
  H   H1119     1.0  0.34196  0.03131  0.15695  1.0000
  C   C969      1.0  0.44599  0.99639  0.41796  1.0000
  C   C970      1.0  0.38742  0.20439  0.19584  1.0000
  H   H1120     1.0  0.36816  0.18608  0.16537  1.0000
  H   H1121     1.0  0.59082  0.22104  0.08640  1.0000
  H   H1122     1.0  0.39576  0.19980  0.20746  1.0000
  H   H1123     1.0  0.63297  0.05635  0.06659  1.0000
  C   C971      1.0  0.64691  0.09820  0.06221  1.0000
  C   C972      1.0  0.34653  0.12516  0.37030  1.0000
  C   C973      1.0  0.35609  0.09507  0.12306  1.0000
  C   C974      1.0  0.35232  0.10927  0.13498  1.0000
  H   H1124     1.0  0.63999  0.05167  0.04216  1.0000
  H   H1125     1.0  0.52754  0.18017  0.98292  1.0000
  H   H1126     1.0  0.40103  0.15429  0.44650  1.0000
  H   H1127     1.0  0.36748  0.08273  0.12513  1.0000
  H   H1128     1.0  0.36107  0.10806  0.14592  1.0000
  H   H1129     1.0  0.44168  0.15663  0.15160  1.0000
  C   C975      1.0  0.36942  0.06911  0.24072  1.0000
  C   C976      1.0  0.36750  0.05092  0.25168  1.0000
  C   C977      1.0  0.37736  0.04366  0.26728  1.0000
  C   C978      1.0  0.38946  0.05444  0.27188  1.0000
  C   C979      1.0  0.39146  0.07269  0.26090  1.0000
  C   C980      1.0  0.38132  0.08011  0.24538  1.0000
  H   H1130     1.0  0.35809  0.04254  0.24833  1.0000
  H   H1131     1.0  0.37571  0.02960  0.27564  1.0000
  H   H1132     1.0  0.40087  0.08105  0.26435  1.0000
  H   H1133     1.0  0.38658  0.06094  0.35525  1.0000
  S   S264      1.0  0.56763  0.13781  0.06350  1.0000
  C   C981      1.0  0.40057  0.16525  0.43311  1.0000
  H   H1134     1.0  0.35516  0.02083  0.04771  1.0000
  C   C982      1.0  0.60279  0.17202  0.06822  1.0000
  C   C983      1.0  0.62931  0.09466  0.05849  1.0000
  C   C984      1.0  0.40293  0.13141  0.09071  1.0000
  N   N63       1.0  0.34141  0.05287  0.17410  1.0000
  H   H1135     1.0  0.50797  0.19781  0.99130  1.0000
  H   H1136     1.0  0.64054  0.07983  0.01468  1.0000
  H   H1137     1.0  0.53145  0.22124  0.00718  1.0000
  C   C985      1.0  0.58364  0.18062  0.07363  1.0000
  C   C986      1.0  0.33782  0.03374  0.17219  1.0000
  C   C987      1.0  0.44738  0.20317  0.13270  1.0000
  C   C988      1.0  0.43106  0.17364  0.43530  1.0000
  C   C989      1.0  0.34032  0.19022  0.22657  1.0000
  Fe  Fe130     1.0  0.34076  0.13772  0.17531  1.0000
  H   H1138     1.0  0.46949  0.15943  0.45992  1.0000
  H   H1139     1.0  0.39510  0.08468  0.30480  1.0000
  H   H1140     1.0  0.60349  0.13471  0.03669  1.0000
  C   C990      1.0  0.61445  0.19905  0.07585  1.0000
  N   N64       1.0  0.40110  0.12426  0.07331  1.0000
  Fe  Fe131     1.0  0.39265  0.11724  0.45971  1.0000
  C   C991      1.0  0.42789  0.22569  0.06916  1.0000
  C   C992      1.0  0.52414  0.20917  0.01570  1.0000
  H   H1141     1.0  0.43381  0.18409  0.39710  1.0000
  H   H1142     1.0  0.36538  0.99253  0.25512  1.0000
  H   H1143     1.0  0.38576  0.15181  0.06160  1.0000
  C   C993      1.0  0.45007  0.18858  0.07407  1.0000
  H   H1144     1.0  0.52602  0.20740  0.03100  1.0000
  H   H1145     1.0  0.50821  0.21381  0.01606  1.0000
  C   C994      1.0  0.41870  0.12449  0.05810  1.0000
  C   C995      1.0  0.43053  0.19175  0.08298  1.0000
  C   C996      1.0  0.33717  0.01115  0.23355  1.0000
  C   C997      1.0  0.55223  0.22570  0.13668  1.0000
  H   H1146     1.0  0.65308  0.19509  0.05772  1.0000
  C   C998      1.0  0.52347  0.17504  0.02085  1.0000
  H   H1147     1.0  0.39199  0.16066  0.42405  1.0000
  H   H1148     1.0  0.59839  0.12330  0.08880  1.0000
  H   H1149     1.0  0.43636  0.14166  0.11365  1.0000
  C   C999      1.0  0.46652  0.20473  0.13406  1.0000
  H   H1150     1.0  0.42897  0.20398  0.16900  1.0000
  H   H1151     1.0  0.33859  0.07379  0.46768  1.0000
  H   H1152     1.0  0.37455  0.01799  0.22795  1.0000
  H   H1153     1.0  0.64026  0.21672  0.10113  1.0000
  C   C1000     1.0  0.64289  0.19245  0.14604  1.0000
  H   H1154     1.0  0.45799  0.19182  0.46877  1.0000
  C   C1001     1.0  0.44755  0.16199  0.44251  1.0000
  H   H1155     1.0  0.41674  0.11970  0.04492  1.0000
  H   H1156     1.0  0.33240  0.07104  0.19617  1.0000
  C   C1002     1.0  0.64368  0.21190  0.14459  1.0000
  H   H1157     1.0  0.42191  0.14394  0.40718  1.0000
  C   C1003     1.0  0.42470  0.19208  0.44095  1.0000
  C   C1004     1.0  0.33182  0.03655  0.44882  1.0000
  H   H1158     1.0  0.42262  0.13917  0.05371  1.0000
  S   S265      1.0  0.33835  0.16335  0.18946  1.0000
  H   H1159     1.0  0.39222  0.17901  0.43744  1.0000
  C   C1005     1.0  0.58528  0.17824  0.98567  1.0000
  H   H1160     1.0  0.32701  0.14666  0.43732  1.0000
  H   H1161     1.0  0.45124  0.18696  0.17009  1.0000
  H   H1162     1.0  0.40719  0.14723  0.13868  1.0000
  S   S266      1.0  0.59113  0.22374  0.13790  1.0000
  S   S267      1.0  0.38530  0.99277  0.30200  1.0000
  C   C1006     1.0  0.45081  0.18698  0.45916  1.0000
  H   H1163     1.0  0.35268  0.08339  0.32049  1.0000
  H   H1164     1.0  0.43134  0.11421  0.06297  1.0000
  H   H1165     1.0  0.37103  0.06265  0.31980  1.0000
  C   C1007     1.0  0.52409  0.19376  0.98908  1.0000
  H   H1166     1.0  0.35783  0.08310  0.17775  1.0000
  H   H1167     1.0  0.50731  0.17800  0.02368  1.0000
  N   N65       1.0  0.33572  0.19958  0.11146  1.0000
  C   C1008     1.0  0.37780  0.01225  0.98150  1.0000
  C   C1009     1.0  0.37043  0.23021  0.17469  1.0000
  C   C1010     1.0  0.63997  0.06208  0.05174  1.0000
  H   H1168     1.0  0.43676  0.01218  0.44165  1.0000
  H   H1169     1.0  0.37541  0.14259  0.13353  1.0000
  C   C1011     1.0  0.36441  0.99835  0.14239  1.0000
  H   H1170     1.0  0.60579  0.15817  0.06337  1.0000
  C   C1012     1.0  0.65839  0.14180  0.03255  1.0000
  N   N66       1.0  0.63017  0.20870  0.07794  1.0000
  H   H1171     1.0  0.40929  0.09476  0.08640  1.0000
  H   H1172     1.0  0.35766  0.22115  0.15410  1.0000
  C   C1013     1.0  0.62766  0.21163  0.09824  1.0000
  H   H1173     1.0  0.35429  0.18058  0.13030  1.0000
  C   C1014     1.0  0.58285  0.18258  0.01855  1.0000
  H   H1174     1.0  0.38365  0.10296  0.08911  1.0000
  H   H1175     1.0  0.35544  0.06643  0.34226  1.0000
  C   C1015     1.0  0.38809  0.14051  0.12240  1.0000
  H   H1176     1.0  0.38388  0.13204  0.05054  1.0000
  C   C1016     1.0  0.42095  0.13427  0.09416  1.0000
  H   H1177     1.0  0.39555  0.00259  0.21838  1.0000
  H   H1178     1.0  0.40451  0.07619  0.34413  1.0000
  H   H1179     1.0  0.36290  0.01203  0.13280  1.0000
  H   H1180     1.0  0.41205  0.17647  0.39464  1.0000
  H   H1181     1.0  0.62966  0.12901  0.09447  1.0000
  C   C1017     1.0  0.45728  0.16872  0.45413  1.0000
  C   C1018     1.0  0.38656  0.13464  0.10542  1.0000
  C   C1019     1.0  0.47597  0.21913  0.12197  1.0000
  C   C1020     1.0  0.36221  0.11167  0.37594  1.0000
  H   H1182     1.0  0.33621  0.06609  0.14548  1.0000
  H   H1183     1.0  0.59762  0.10225  0.06684  1.0000
  H   H1184     1.0  0.43435  0.13172  0.08413  1.0000
  C   C1021     1.0  0.42233  0.14003  0.11124  1.0000
  H   H1185     1.0  0.38461  0.23472  0.19670  1.0000
  H   H1186     1.0  0.44962  0.16686  0.12689  1.0000
  H   H1187     1.0  0.36685  0.18950  0.10723  1.0000
  H   H1188     1.0  0.37026  0.13448  0.07367  1.0000
  H   H1189     1.0  0.61132  0.13063  0.00222  1.0000
  Fe  Fe132     1.0  0.35120  0.11000  0.46818  1.0000
  H   H1190     1.0  0.39988  0.05901  0.33158  1.0000
  H   H1191     1.0  0.34330  0.01760  0.24274  1.0000
  C   C1022     1.0  0.34854  0.99637  0.22355  1.0000
  C   C1023     1.0  0.44343  0.99838  0.43727  1.0000
  H   H1192     1.0  0.56464  0.20486  0.08435  1.0000
  C   C1024     1.0  0.46679  0.23227  0.10818  1.0000
  C   C1025     1.0  0.35128  0.11247  0.34060  1.0000
  C   C1026     1.0  0.62952  0.11935  0.08471  1.0000
  H   H1193     1.0  0.33158  0.08267  0.16216  1.0000
  H   H1194     1.0  0.49057  0.22008  0.12319  1.0000
  C   C1027     1.0  0.32674  0.12712  0.11766  1.0000
  H   H1195     1.0  0.62573  0.19801  0.10855  1.0000
  C   C1028     1.0  0.43448  0.19859  0.45270  1.0000
  C   C1029     1.0  0.33883  0.98791  0.21285  1.0000
  C   C1030     1.0  0.36711  0.09823  0.34605  1.0000
  C   C1031     1.0  0.38266  0.98910  0.14644  1.0000
  C   C1032     1.0  0.36596  0.21646  0.16573  1.0000
  C   C1033     1.0  0.53640  0.21764  0.13499  1.0000
  H   H1196     1.0  0.63072  0.22624  0.04977  1.0000
  S   S268      1.0  0.39581  0.21437  0.09392  1.0000
  N   N67       1.0  0.62971  0.08165  0.04477  1.0000
  H   H1197     1.0  0.61482  0.22270  0.10205  1.0000
  C   C1034     1.0  0.41562  0.01310  0.98560  1.0000
  H   H1198     1.0  0.57191  0.17337  0.07319  1.0000
  H   H1199     1.0  0.60157  0.07343  0.05606  1.0000
  C   C1035     1.0  0.35447  0.19351  0.11869  1.0000
  H   H1200     1.0  0.32971  0.01175  0.03395  1.0000
  C   C1036     1.0  0.61012  0.07967  0.04224  1.0000
  C   C1037     1.0  0.37240  0.09833  0.36409  1.0000
  C   C1038     1.0  0.33760  0.12531  0.13222  1.0000
  H   H1201     1.0  0.64816  0.13398  0.00929  1.0000
  H   H1202     1.0  0.33296  0.05825  0.27847  1.0000
  C   C1039     1.0  0.36221  0.05469  0.16944  1.0000
  C   C1040     1.0  0.37700  0.04028  0.16187  1.0000
  C   C1041     1.0  0.36821  0.07144  0.17222  1.0000
  C   C1042     1.0  0.39649  0.04251  0.15767  1.0000
  C   C1043     1.0  0.38774  0.07352  0.16792  1.0000
  C   C1044     1.0  0.40185  0.05911  0.16062  1.0000
  H   H1203     1.0  0.52811  0.16137  0.01488  1.0000
  C   C1045     1.0  0.39276  0.06955  0.34147  1.0000
  C   C1046     1.0  0.38687  0.09482  0.31475  1.0000
  H   H1204     1.0  0.33449  0.10929  0.28076  1.0000
  C   C1047     1.0  0.41913  0.18145  0.40477  1.0000
  H   H1205     1.0  0.60174  0.09383  0.03657  1.0000
  H   H1206     1.0  0.34858  0.08538  0.28092  1.0000
  C   C1048     1.0  0.56505  0.18218  0.98750  1.0000
  H   H1207     1.0  0.34864  0.22256  0.23286  1.0000
  H   H1208     1.0  0.37397  0.02720  0.15888  1.0000
  H   H1209     1.0  0.47453  0.19462  0.14421  1.0000
  H   H1210     1.0  0.40752  0.03140  0.15176  1.0000
  H   H1211     1.0  0.39200  0.08637  0.17030  1.0000
  H   H1212     1.0  0.41697  0.06082  0.15714  1.0000
  C   C1049     1.0  0.35068  0.22001  0.08152  1.0000
  C   C1050     1.0  0.33564  0.09524  0.27603  1.0000
  H   H1213     1.0  0.32863  0.14863  0.25795  1.0000
  H   H1214     1.0  0.46370  0.16622  0.14503  1.0000
  H   H1215     1.0  0.33271  0.17041  0.11099  1.0000
  N   N68       1.0  0.42047  0.16713  0.42278  1.0000
  H   H1216     1.0  0.63252  0.17342  0.06502  1.0000
  H   H1217     1.0  0.33382  0.99741  0.14792  1.0000
  S   S269      1.0  0.35324  0.98773  0.34279  1.0000
  S   S270      1.0  0.41894  0.12049  0.47149  1.0000
  H   H1218     1.0  0.39705  0.09767  0.06632  1.0000
  C   C1051     1.0  0.64993  0.19755  0.07297  1.0000
  C   C1052     1.0  0.33054  0.06776  0.16084  1.0000
  H   H1219     1.0  0.35178  0.06563  0.44586  1.0000
  S   S271      1.0  0.48323  0.20027  0.05208  1.0000
  H   H1220     1.0  0.36244  0.20819  0.07888  1.0000
  N   N69       1.0  0.43756  0.18782  0.14559  1.0000
  C   C1053     1.0  0.43662  0.18942  0.16607  1.0000
  C   C1054     1.0  0.41737  0.18872  0.14269  1.0000
  C   C1055     1.0  0.44861  0.16859  0.14216  1.0000
  C   C1056     1.0  0.55307  0.18676  0.00498  1.0000
  C   C1057     1.0  0.34109  0.12561  0.35265  1.0000
  H   H1221     1.0  0.45292  0.14739  0.43990  1.0000
  H   H1222     1.0  0.33945  0.17999  0.45318  1.0000
  H   H1223     1.0  0.62898  0.18793  0.14760  1.0000
  C   C1058     1.0  0.36350  0.07382  0.32875  1.0000
  H   H1224     1.0  0.40254  0.03413  0.00405  1.0000
  H   H1225     1.0  0.42860  0.17857  0.17619  1.0000
  N   N70       1.0  0.37746  0.08431  0.33313  1.0000
  H   H1226     1.0  0.40810  0.20276  0.14537  1.0000
  H   H1227     1.0  0.41031  0.17721  0.15281  1.0000
  H   H1228     1.0  0.41694  0.18678  0.12778  1.0000
  C   C1059     1.0  0.64023  0.08905  0.02548  1.0000
  C   C1060     1.0  0.34237  0.06132  0.45983  1.0000
  C   C1061     1.0  0.42985  0.14818  0.41704  1.0000
  H   H1229     1.0  0.44501  0.14849  0.40934  1.0000
  H   H1230     1.0  0.34262  0.04657  0.20450  1.0000
  H   H1231     1.0  0.55449  0.18868  0.03465  1.0000
  H   H1232     1.0  0.63332  0.10396  0.01994  1.0000
  H   H1233     1.0  0.37770  0.01410  0.20345  1.0000
  H   H1234     1.0  0.41189  0.20148  0.43665  1.0000
  H   H1235     1.0  0.41026  0.19556  0.40753  1.0000
  H   H1236     1.0  0.42913  0.21249  0.45729  1.0000
  C   C1062     1.0  0.44730  0.22243  0.05985  1.0000
  C   C1063     1.0  0.62924  0.22780  0.06515  1.0000
  H   H1237     1.0  0.65187  0.18329  0.08263  1.0000
  C   C1064     1.0  0.44800  0.23131  0.10661  1.0000
  H   H1238     1.0  0.34640  0.19150  0.21090  1.0000
  C   C1065     1.0  0.34870  0.98815  0.02174  1.0000
  C   C1066     1.0  0.33337  0.05586  0.19427  1.0000
  H   H1239     1.0  0.65565  0.08949  0.02561  1.0000
  H   H1240     1.0  0.44127  0.00868  0.40739  1.0000
  H   H1241     1.0  0.35295  0.18780  0.23408  1.0000
  H   H1242     1.0  0.58978  0.18215  0.03073  1.0000
  H   H1243     1.0  0.38419  0.08812  0.36958  1.0000
  C   C1067     1.0  0.64693  0.11024  0.07524  1.0000
  S   S272      1.0  0.33298  0.14411  0.14570  1.0000
  H   H1244     1.0  0.36642  0.11149  0.38968  1.0000
  H   H1245     1.0  0.35801  0.20535  0.12456  1.0000
  H   H1246     1.0  0.43002  0.13635  0.42982  1.0000
  H   H1247     1.0  0.33867  0.09815  0.25992  1.0000
  H   H1248     1.0  0.34521  0.18206  0.08898  1.0000
  S   S273      1.0  0.33292  0.00067  0.29159  1.0000
  S   S274      1.0  0.37971  0.08994  0.46885  1.0000
  H   H1249     1.0  0.33863  0.13532  0.37964  1.0000
  C   C1068     1.0  0.33571  0.21812  0.09784  1.0000
  H   H1250     1.0  0.35345  0.98596  0.08415  1.0000
  H   H1251     1.0  0.34172  0.03876  0.43464  1.0000
  H   H1252     1.0  0.35143  0.04974  0.46860  1.0000
  H   H1253     1.0  0.35833  0.98746  0.10701  1.0000
  C   C1069     1.0  0.33240  0.16137  0.40794  1.0000
  N   N71       1.0  0.36939  0.99012  0.22485  1.0000
  H   H1254     1.0  0.34117  0.22790  0.20992  1.0000
  H   H1255     1.0  0.34022  0.02538  0.45858  1.0000
  C   C1070     1.0  0.33316  0.18455  0.10122  1.0000
  C   C1071     1.0  0.40006  0.02501  0.99478  1.0000
  H   H1256     1.0  0.63030  0.22228  0.14504  1.0000
  H   H1257     1.0  0.34522  0.20117  0.26158  1.0000
  C   C1072     1.0  0.33578  0.22462  0.22575  1.0000
  H   H1258     1.0  0.32891  0.13625  0.34827  1.0000
  H   H1259     1.0  0.45377  0.23434  0.05099  1.0000
  H   H1260     1.0  0.32770  0.14541  0.29312  1.0000
  C   C1073     1.0  0.32976  0.20161  0.26581  1.0000
  H   H1261     1.0  0.33186  0.19606  0.29611  1.0000
  H   H1262     1.0  0.39504  0.15761  0.47967  1.0000
  H   H1263     1.0  0.45936  0.23327  0.16980  1.0000
  H   H1264     1.0  0.65934  0.16373  0.14666  1.0000
  H   H1265     1.0  0.36276  0.01239  0.98104  1.0000
  C   C1074     1.0  0.65992  0.17890  0.14557  1.0000
  Fe  Fe133     1.0  0.48031  0.20597  0.54801  1.0000
  S   S275      1.0  0.48429  0.18167  0.57263  1.0000
  C   C1075     1.0  0.56422  0.06757  0.92249  1.0000
  Fe  Fe134     1.0  0.45642  0.18400  0.53021  1.0000
  S   S276      1.0  0.45939  0.15829  0.55373  1.0000
  S   S277      1.0  0.43463  0.18711  0.51010  1.0000
  Fe  Fe135     1.0  0.45308  0.18012  0.57366  1.0000
  S   S278      1.0  0.42820  0.18239  0.59834  1.0000
  Fe  Fe136     1.0  0.49031  0.16288  0.54986  1.0000
  S   S279      1.0  0.51776  0.14106  0.54574  1.0000
  S   S280      1.0  0.44862  0.20554  0.55047  1.0000
  S   S281      1.0  0.48793  0.18744  0.52481  1.0000
  H   H1266     1.0  0.57765  0.04820  0.72532  1.0000
  H   H1267     1.0  0.58176  0.16902  0.71425  1.0000
  H   H1268     1.0  0.61604  0.08561  0.91469  1.0000
  S   S282      1.0  0.57025  0.03100  0.84308  1.0000
  S   S283      1.0  0.58692  0.99373  0.82107  1.0000
  C   C1076     1.0  0.63147  0.08527  0.84994  1.0000
  C   C1077     1.0  0.61050  0.00957  0.56724  1.0000
  C   C1078     1.0  0.60911  0.06875  0.89608  1.0000
  H   H1269     1.0  0.39449  0.20764  0.61431  1.0000
  C   C1079     1.0  0.58383  0.99046  0.75438  1.0000
  H   H1270     1.0  0.54615  0.02373  0.90498  1.0000
  S   S284      1.0  0.62652  0.11736  0.93194  1.0000
  S   S285      1.0  0.62215  0.02397  0.57705  1.0000
  H   H1271     1.0  0.59486  0.04865  0.95449  1.0000
  S   S286      1.0  0.63826  0.13301  0.71824  1.0000
  S   S287      1.0  0.58638  0.04153  0.78479  1.0000
  Fe  Fe137     1.0  0.59398  0.03542  0.64529  1.0000
  S   S288      1.0  0.62202  0.04116  0.62634  1.0000
  Fe  Fe138     1.0  0.56953  0.06380  0.61842  1.0000
  S   S289      1.0  0.59567  0.07195  0.59750  1.0000
  S   S290      1.0  0.53829  0.07638  0.61623  1.0000
  Fe  Fe139     1.0  0.60695  0.03983  0.60198  1.0000
  Fe  Fe140     1.0  0.60797  0.07237  0.62398  1.0000
  S   S291      1.0  0.61981  0.09763  0.62917  1.0000
  S   S292      1.0  0.57993  0.03175  0.62135  1.0000
  S   S293      1.0  0.58085  0.06657  0.64441  1.0000
  H   H1272     1.0  0.34626  0.14099  0.53117  1.0000
  C   C1080     1.0  0.54749  0.23361  0.53794  1.0000
  H   H1273     1.0  0.41786  0.18092  0.55583  1.0000
  H   H1274     1.0  0.55649  0.08139  0.91643  1.0000
  C   C1081     1.0  0.58659  0.18286  0.71099  1.0000
  H   H1275     1.0  0.59241  0.99928  0.75933  1.0000
  H   H1276     1.0  0.59183  0.99029  0.90585  1.0000
  C   C1082     1.0  0.59429  0.00189  0.57783  1.0000
  C   C1083     1.0  0.63122  0.11016  0.65815  1.0000
  C   C1084     1.0  0.62824  0.01154  0.71999  1.0000
  H   H1277     1.0  0.35807  0.16851  0.54735  1.0000
  H   H1278     1.0  0.61334  0.11180  0.81108  1.0000
  H   H1279     1.0  0.62229  0.12382  0.65378  1.0000
  C   C1085     1.0  0.60685  0.09957  0.77534  1.0000
  C   C1086     1.0  0.61642  0.08570  0.76388  1.0000
  C   C1087     1.0  0.61016  0.06782  0.76685  1.0000
  C   C1088     1.0  0.59454  0.06366  0.78148  1.0000
  C   C1089     1.0  0.58518  0.07742  0.79312  1.0000
  C   C1090     1.0  0.59115  0.09543  0.78988  1.0000
  H   H1280     1.0  0.62862  0.08874  0.75271  1.0000
  H   H1281     1.0  0.61761  0.05709  0.75802  1.0000
  H   H1282     1.0  0.57305  0.07432  0.80438  1.0000
  S   S294      1.0  0.60004  0.04870  0.87137  1.0000
  C   C1091     1.0  0.63536  0.05837  0.91471  1.0000
  H   H1283     1.0  0.58611  0.07734  0.68770  1.0000
  C   C1092     1.0  0.62943  0.03766  0.89392  1.0000
  C   C1093     1.0  0.64002  0.04102  0.90715  1.0000
  H   H1284     1.0  0.63343  0.02442  0.88799  1.0000
  H   H1285     1.0  0.65738  0.11294  0.62182  1.0000
  C   C1094     1.0  0.56165  0.01727  0.90092  1.0000
  H   H1286     1.0  0.35082  0.12340  0.50376  1.0000
  H   H1287     1.0  0.37115  0.21197  0.57484  1.0000
  C   C1095     1.0  0.52884  0.23057  0.53733  1.0000
  C   C1096     1.0  0.53206  0.06245  0.55665  1.0000
  C   C1097     1.0  0.42567  0.20415  0.60709  1.0000
  Fe  Fe141     1.0  0.64085  0.12601  0.74955  1.0000
  H   H1288     1.0  0.60032  0.16471  0.62436  1.0000
  C   C1098     1.0  0.62755  0.19698  0.64536  1.0000
  C   C1099     1.0  0.63360  0.21176  0.65138  1.0000
  C   C1100     1.0  0.64159  0.20788  0.66835  1.0000
  C   C1101     1.0  0.64345  0.18928  0.67938  1.0000
  C   C1102     1.0  0.63681  0.17467  0.67365  1.0000
  C   C1103     1.0  0.62894  0.17851  0.65662  1.0000
  C   C1104     1.0  0.61788  0.00541  0.54852  1.0000
  H   H1289     1.0  0.36162  0.99931  0.95525  1.0000
  H   H1290     1.0  0.63831  0.16029  0.68199  1.0000
  H   H1291     1.0  0.62427  0.16703  0.65203  1.0000
  C   C1105     1.0  0.52337  0.12361  0.56571  1.0000
  C   C1106     1.0  0.50957  0.12051  0.58240  1.0000
  C   C1107     1.0  0.51436  0.10604  0.59790  1.0000
  C   C1108     1.0  0.53307  0.09502  0.59697  1.0000
  C   C1109     1.0  0.54702  0.09860  0.58050  1.0000
  C   C1110     1.0  0.54207  0.11262  0.56478  1.0000
  H   H1292     1.0  0.49509  0.12893  0.58319  1.0000
  H   H1293     1.0  0.50351  0.10331  0.61063  1.0000
  H   H1294     1.0  0.56148  0.09027  0.57964  1.0000
  H   H1295     1.0  0.55273  0.11492  0.55182  1.0000
  C   C1111     1.0  0.42925  0.16751  0.50167  1.0000
  C   C1112     1.0  0.44221  0.15004  0.50127  1.0000
  C   C1113     1.0  0.60659  0.08224  0.71178  1.0000
  H   H1296     1.0  0.55827  0.05759  0.58003  1.0000
  C   C1114     1.0  0.53354  0.15804  0.58753  1.0000
  H   H1297     1.0  0.39305  0.16561  0.53661  1.0000
  H   H1298     1.0  0.45545  0.14792  0.50708  1.0000
  H   H1299     1.0  0.62041  0.12010  0.83029  1.0000
  C   C1115     1.0  0.58394  0.18250  0.60331  1.0000
  H   H1300     1.0  0.65733  0.09292  0.89715  1.0000
  H   H1301     1.0  0.41497  0.99033  0.93848  1.0000
  H   H1302     1.0  0.51107  0.05568  0.58281  1.0000
  C   C1116     1.0  0.36220  0.20657  0.56742  1.0000
  Fe  Fe142     1.0  0.60726  0.23180  0.61123  1.0000
  H   H1303     1.0  0.63427  0.14337  0.62518  1.0000
  H   H1304     1.0  0.59463  0.09449  0.70879  1.0000
  Fe  Fe143     1.0  0.65963  0.11111  0.97042  1.0000
  H   H1305     1.0  0.58693  0.05932  0.74090  1.0000
  H   H1306     1.0  0.58361  0.10613  0.79871  1.0000
  H   H1307     1.0  0.61006  0.06449  0.68058  1.0000
  C   C1117     1.0  0.44200  0.21215  0.60690  1.0000
  C   C1118     1.0  0.56483  0.04413  0.54644  1.0000
  H   H1308     1.0  0.45632  0.20484  0.60156  1.0000
  H   H1309     1.0  0.58887  0.00433  0.59249  1.0000
  C   C1119     1.0  0.61382  0.05153  0.88836  1.0000
  H   H1310     1.0  0.54798  0.07558  0.52912  1.0000
  S   S295      1.0  0.61693  0.02196  0.82492  1.0000
  N   N72       1.0  0.55047  0.16676  0.57640  1.0000
  C   C1120     1.0  0.57544  0.06675  0.93646  1.0000
  H   H1311     1.0  0.52596  0.02596  0.57392  1.0000
  C   C1121     1.0  0.36847  0.18868  0.56062  1.0000
  C   C1122     1.0  0.57365  0.03251  0.92329  1.0000
  C   C1123     1.0  0.60859  0.99449  0.54011  1.0000
  H   H1312     1.0  0.53983  0.04384  0.59217  1.0000
  C   C1124     1.0  0.39344  0.16066  0.55231  1.0000
  H   H1313     1.0  0.56647  0.19545  0.69200  1.0000
  C   C1125     1.0  0.51415  0.06559  0.56949  1.0000
  N   N73       1.0  0.38784  0.17721  0.56303  1.0000
  H   H1314     1.0  0.56519  0.13996  0.56697  1.0000
  H   H1315     1.0  0.56342  0.03176  0.58361  1.0000
  H   H1316     1.0  0.55923  0.18111  0.97511  1.0000
  H   H1317     1.0  0.65204  0.03021  0.91141  1.0000
  C   C1126     1.0  0.61700  0.04667  0.71523  1.0000
  C   C1127     1.0  0.50306  0.09517  0.54879  1.0000
  H   H1318     1.0  0.63154  0.98677  0.67579  1.0000
  H   H1319     1.0  0.40850  0.15299  0.55344  1.0000
  C   C1128     1.0  0.40719  0.21372  0.61412  1.0000
  C   C1129     1.0  0.56421  0.16651  0.58936  1.0000
  S   S296      1.0  0.64937  0.06224  0.93096  1.0000
  H   H1320     1.0  0.53749  0.14242  0.59327  1.0000
  H   H1321     1.0  0.56817  0.00571  0.78466  1.0000
  N   N74       1.0  0.60141  0.06335  0.71129  1.0000
  C   C1130     1.0  0.42168  0.13832  0.48425  1.0000
  H   H1322     1.0  0.52249  0.15890  0.57837  1.0000
  C   C1131     1.0  0.58448  0.21619  0.69327  1.0000
  H   H1323     1.0  0.55479  0.05259  0.90466  1.0000
  H   H1324     1.0  0.54927  0.01409  0.56403  1.0000
  C   C1132     1.0  0.40824  0.15542  0.48553  1.0000
  H   H1325     1.0  0.52631  0.16552  0.59993  1.0000
  H   H1326     1.0  0.59796  0.98670  0.70622  1.0000
  C   C1133     1.0  0.61567  0.10784  0.82628  1.0000
  C   C1134     1.0  0.56040  0.15537  0.56103  1.0000
  H   H1327     1.0  0.53517  0.19588  0.57760  1.0000
  H   H1328     1.0  0.58996  0.13458  0.62160  1.0000
  H   H1329     1.0  0.63272  0.22600  0.64268  1.0000
  H   H1330     1.0  0.64673  0.21920  0.67275  1.0000
  C   C1135     1.0  0.58578  0.04913  0.94395  1.0000
  S   S297      1.0  0.59523  0.01753  0.67471  1.0000
  S   S298      1.0  0.64097  0.13945  0.96135  1.0000
  C   C1136     1.0  0.58455  0.14824  0.61307  1.0000
  H   H1331     1.0  0.54816  0.00578  0.77307  1.0000
  C   C1137     1.0  0.59959  0.21827  0.70245  1.0000
  S   S299      1.0  0.59838  0.99359  0.86328  1.0000
  Fe  Fe144     1.0  0.59871  0.02553  0.85404  1.0000
  H   H1332     1.0  0.44900  0.12248  0.49158  1.0000
  H   H1333     1.0  0.64338  0.12086  0.80234  1.0000
  S   S300      1.0  0.63625  0.09315  0.97412  1.0000
  H   H1334     1.0  0.49227  0.10799  0.54605  1.0000
  H   H1335     1.0  0.63057  0.01109  0.54027  1.0000
  H   H1336     1.0  0.56158  0.00341  0.89618  1.0000
  H   H1337     1.0  0.63626  0.14646  0.59946  1.0000
  H   H1338     1.0  0.57559  0.03097  0.55023  1.0000
  Fe  Fe145     1.0  0.65109  0.13270  0.93128  1.0000
  C   C1138     1.0  0.57097  0.18335  0.59088  1.0000
  H   H1339     1.0  0.60977  0.08283  0.72615  1.0000
  Fe  Fe146     1.0  0.58864  0.02526  0.81478  1.0000
  C   C1139     1.0  0.33682  0.12552  0.51299  1.0000
  Fe  Fe147     1.0  0.61400  0.99064  0.83314  1.0000
  C   C1140     1.0  0.65412  0.09093  0.67837  1.0000
  S   S301      1.0  0.58675  0.12869  0.97551  1.0000
  C   C1141     1.0  0.63517  0.04867  0.71908  1.0000
  C   C1142     1.0  0.39904  0.99088  0.94041  1.0000
  C   C1143     1.0  0.60778  0.20306  0.71548  1.0000
  H   H1340     1.0  0.63006  0.05948  0.82902  1.0000
  C   C1144     1.0  0.58477  0.03222  0.93767  1.0000
  H   H1341     1.0  0.58202  0.99700  0.65003  1.0000
  C   C1145     1.0  0.62195  0.07408  0.82434  1.0000
  C   C1146     1.0  0.64937  0.09088  0.81742  1.0000
  H   H1342     1.0  0.62819  0.99243  0.79109  1.0000
  C   C1147     1.0  0.65427  0.07499  0.66975  1.0000
  C   C1148     1.0  0.55900  0.99628  0.78151  1.0000
  H   H1343     1.0  0.57215  0.05667  0.54540  1.0000
  H   H1344     1.0  0.53320  0.02785  0.54818  1.0000
  H   H1345     1.0  0.60659  0.07383  0.83152  1.0000
  H   H1346     1.0  0.53012  0.20539  0.97815  1.0000
  H   H1347     1.0  0.64206  0.12087  0.67920  1.0000
  S   S302      1.0  0.65471  0.18461  0.69981  1.0000
  C   C1149     1.0  0.58374  0.06103  0.72601  1.0000
  C   C1150     1.0  0.64234  0.10849  0.67267  1.0000
  C   C1151     1.0  0.59031  0.99410  0.67782  1.0000
  N   N75       1.0  0.62991  0.08969  0.82918  1.0000
  H   H1348     1.0  0.57196  0.07373  0.72411  1.0000
  H   H1349     1.0  0.57547  0.00036  0.74372  1.0000
  C   C1152     1.0  0.61988  0.07224  0.90899  1.0000
  N   N76       1.0  0.39027  0.98567  0.96096  1.0000
  H   H1350     1.0  0.55881  0.23231  0.52545  1.0000
  C   C1153     1.0  0.53839  0.02753  0.56187  1.0000
  C   C1154     1.0  0.41239  0.00070  0.97432  1.0000
  H   H1351     1.0  0.57346  0.16124  0.55262  1.0000
  C   C1155     1.0  0.59052  0.16508  0.61455  1.0000
  C   C1156     1.0  0.56335  0.05078  0.91586  1.0000
  S   S303      1.0  0.65970  0.15370  0.90439  1.0000
  H   H1352     1.0  0.55069  0.15554  0.55066  1.0000
  S   S304      1.0  0.61881  0.20102  0.62349  1.0000
  H   H1353     1.0  0.38529  0.18124  0.59254  1.0000
  H   H1354     1.0  0.56200  0.04345  0.53194  1.0000
  C   C1157     1.0  0.59679  0.06424  0.69186  1.0000
  H   H1355     1.0  0.54622  0.22586  0.69003  1.0000
  N   N77       1.0  0.57251  0.01430  0.91718  1.0000
  H   H1356     1.0  0.40221  0.16058  0.58629  1.0000
  H   H1357     1.0  0.59038  0.05168  0.69097  1.0000
  Fe  Fe148     1.0  0.57124  0.99882  0.85034  1.0000
  C   C1158     1.0  0.49993  0.08172  0.56558  1.0000
  H   H1358     1.0  0.55455  0.19353  0.55707  1.0000
  S   S305      1.0  0.61451  0.12196  0.77226  1.0000
  C   C1159     1.0  0.54282  0.18646  0.56683  1.0000
  H   H1359     1.0  0.64376  0.06439  0.64841  1.0000
  H   H1360     1.0  0.53212  0.18617  0.55761  1.0000
  H   H1361     1.0  0.63895  0.06255  0.71886  1.0000
  C   C1160     1.0  0.57167  0.14887  0.60061  1.0000
  C   C1161     1.0  0.65399  0.10790  0.80470  1.0000
  C   C1162     1.0  0.43989  0.22935  0.61419  1.0000
  H   H1362     1.0  0.56831  0.02674  0.88802  1.0000
  H   H1363     1.0  0.59289  0.01893  0.94415  1.0000
  H   H1364     1.0  0.56653  0.19739  0.58262  1.0000
  C   C1163     1.0  0.56261  0.00181  0.93374  1.0000
  C   C1164     1.0  0.59190  0.98747  0.55046  1.0000
  H   H1365     1.0  0.65910  0.00140  0.67553  1.0000
  C   C1165     1.0  0.64565  0.01397  0.72424  1.0000
  H   H1366     1.0  0.52299  0.10350  0.52319  1.0000
  C   C1166     1.0  0.34411  0.21778  0.56506  1.0000
  H   H1367     1.0  0.57078  0.99761  0.94599  1.0000
  H   H1368     1.0  0.62558  0.99710  0.72041  1.0000
  C   C1167     1.0  0.63173  0.09432  0.64923  1.0000
  N   N78       1.0  0.54672  0.04504  0.56103  1.0000
  H   H1369     1.0  0.56762  0.13536  0.59984  1.0000
  H   H1370     1.0  0.37650  0.16041  0.58984  1.0000
  H   H1371     1.0  0.64674  0.00276  0.64798  1.0000
  C   C1168     1.0  0.60147  0.18535  0.71958  1.0000
  C   C1169     1.0  0.38792  0.16950  0.58380  1.0000
  H   H1372     1.0  0.60833  0.17348  0.72928  1.0000
  Fe  Fe149     1.0  0.65802  0.15418  0.71625  1.0000
  H   H1373     1.0  0.54786  0.00937  0.93925  1.0000
  C   C1170     1.0  0.61412  0.02761  0.71552  1.0000
  H   H1374     1.0  0.63858  0.09598  0.85391  1.0000
  H   H1375     1.0  0.39255  0.00576  0.93424  1.0000
  H   H1376     1.0  0.59704  0.07957  0.89198  1.0000
  H   H1377     1.0  0.32679  0.18819  0.54399  1.0000
  C   C1171     1.0  0.55223  0.04452  0.57999  1.0000
  Fe  Fe150     1.0  0.64597  0.09040  0.94265  1.0000
  C   C1172     1.0  0.52046  0.09259  0.53590  1.0000
  H   H1378     1.0  0.56839  0.21331  0.66253  1.0000
  H   H1379     1.0  0.48658  0.08407  0.57584  1.0000
  H   H1380     1.0  0.40214  0.20041  0.56528  1.0000
  H   H1381     1.0  0.61690  0.08557  0.85913  1.0000
  H   H1382     1.0  0.60084  0.02502  0.71230  1.0000
  C   C1173     1.0  0.40302  0.18956  0.55595  1.0000
  H   H1383     1.0  0.38390  0.14961  0.55811  1.0000
  H   H1384     1.0  0.57646  0.07986  0.94121  1.0000
  C   C1174     1.0  0.39333  0.99958  0.97225  1.0000
  H   H1385     1.0  0.40217  0.19726  0.54094  1.0000
  H   H1386     1.0  0.60114  0.10640  0.83518  1.0000
  H   H1387     1.0  0.61965  0.20477  0.72194  1.0000
  H   H1388     1.0  0.61939  0.08521  0.70065  1.0000
  C   C1175     1.0  0.33424  0.13545  0.52854  1.0000
  C   C1176     1.0  0.35506  0.18225  0.55224  1.0000
  C   C1177     1.0  0.53481  0.07651  0.53965  1.0000
  C   C1178     1.0  0.43853  0.13565  0.49241  1.0000
  H   H1389     1.0  0.65306  0.00787  0.61266  1.0000
  H   H1390     1.0  0.58901  0.19545  0.60419  1.0000
  Fe  Fe151     1.0  0.61838  0.12125  0.96301  1.0000
  C   C1179     1.0  0.64310  0.07664  0.65528  1.0000
  C   C1180     1.0  0.58456  0.98738  0.66326  1.0000
  H   H1391     1.0  0.60034  0.01298  0.89870  1.0000
  C   C1181     1.0  0.64253  0.14962  0.61122  1.0000
  H   H1392     1.0  0.63958  0.16557  0.61043  1.0000
  H   H1393     1.0  0.63982  0.07064  0.85409  1.0000
  C   C1182     1.0  0.65642  0.99155  0.64097  1.0000
  C   C1183     1.0  0.57641  0.22537  0.66099  1.0000
  H   H1394     1.0  0.53529  0.99230  0.82966  1.0000
  S   S306      1.0  0.65779  0.14952  0.74821  1.0000
  C   C1184     1.0  0.59229  0.00386  0.91086  1.0000
  H   H1395     1.0  0.62246  0.07584  0.80847  1.0000
  C   C1185     1.0  0.58502  0.99098  0.56946  1.0000
  N   N79       1.0  0.57529  0.23200  0.67952  1.0000
  C   C1186     1.0  0.57806  0.19806  0.69816  1.0000
  C   C1187     1.0  0.65991  0.99464  0.62076  1.0000
  C   C1188     1.0  0.64918  0.03249  0.72358  1.0000
  H   H1396     1.0  0.62635  0.98830  0.60790  1.0000
  C   C1189     1.0  0.33689  0.19348  0.55020  1.0000
  H   H1397     1.0  0.60116  0.99954  0.92252  1.0000
  C   C1190     1.0  0.41215  0.17002  0.49395  1.0000
  H   H1398     1.0  0.55112  0.99039  0.79581  1.0000
  H   H1399     1.0  0.56088  0.98819  0.92961  1.0000
  H   H1400     1.0  0.59172  0.22037  0.65459  1.0000
  C   C1191     1.0  0.33150  0.21126  0.55641  1.0000
  H   H1401     1.0  0.40203  0.18346  0.49421  1.0000
  H   H1402     1.0  0.52586  0.22712  0.52435  1.0000
  H   H1403     1.0  0.61395  0.99207  0.52541  1.0000
  H   H1404     1.0  0.62697  0.98792  0.75814  1.0000
  H   H1405     1.0  0.65638  0.00147  0.72818  1.0000
  C   C1192     1.0  0.40503  0.23128  0.62077  1.0000
  H   H1406     1.0  0.33967  0.23147  0.57026  1.0000
  H   H1407     1.0  0.60567  0.23134  0.69960  1.0000
  H   H1408     1.0  0.42493  0.99176  0.96749  1.0000
  H   H1409     1.0  0.59410  0.17422  0.97239  1.0000
  S   S307      1.0  0.48957  0.23367  0.55053  1.0000
  C   C1193     1.0  0.51379  0.23325  0.55293  1.0000
  H   H1410     1.0  0.45261  0.23524  0.61437  1.0000
  H   H1411     1.0  0.57226  0.98543  0.57767  1.0000
  H   H1412     1.0  0.43727  0.25530  0.14928  1.0000
  Fe  Fe152     1.0  0.63368  0.43683  0.46048  1.0000
  H   H1413     1.0  0.34563  0.38996  0.01494  1.0000
  H   H1414     1.0  0.38753  0.34739  0.01830  1.0000
  C   C1194     1.0  0.52455  0.47401  0.10323  1.0000
  Fe  Fe153     1.0  0.36934  0.26389  0.13573  1.0000
  S   S308      1.0  0.35565  0.25350  0.11527  1.0000
  Fe  Fe154     1.0  0.65237  0.36818  0.22272  1.0000
  Fe  Fe155     1.0  0.39853  0.28205  0.10383  1.0000
  S   S309      1.0  0.38753  0.27260  0.08077  1.0000
  S   S310      1.0  0.42536  0.29581  0.09422  1.0000
  Fe  Fe156     1.0  0.35801  0.28266  0.09704  1.0000
  S   S311      1.0  0.33699  0.30027  0.07791  1.0000
  Fe  Fe157     1.0  0.38628  0.24451  0.10094  1.0000
  C   C1195     1.0  0.33974  0.36336  0.03449  1.0000
  S   S312      1.0  0.36910  0.29411  0.11886  1.0000
  S   S313      1.0  0.39978  0.25301  0.12271  1.0000
  Fe  Fe158     1.0  0.61379  0.28566  0.11737  1.0000
  C   C1196     1.0  0.63362  0.46223  0.17984  1.0000
  Fe  Fe159     1.0  0.57048  0.29746  0.13029  1.0000
  S   S314      1.0  0.57077  0.27561  0.15767  1.0000
  S   S315      1.0  0.54108  0.31622  0.12853  1.0000
  Fe  Fe160     1.0  0.59767  0.28626  0.15983  1.0000
  S   S316      1.0  0.60190  0.29253  0.18843  1.0000
  Fe  Fe161     1.0  0.59005  0.25542  0.13877  1.0000
  S   S317      1.0  0.59628  0.30912  0.13356  1.0000
  S   S318      1.0  0.58784  0.27646  0.11119  1.0000
  Fe  Fe162     1.0  0.44872  0.39417  0.08635  1.0000
  S   S319      1.0  0.45496  0.38541  0.05717  1.0000
  S   S320      1.0  0.42731  0.37932  0.10925  1.0000
  Fe  Fe163     1.0  0.47703  0.42391  0.07436  1.0000
  S   S321      1.0  0.48400  0.41727  0.04400  1.0000
  S   S322      1.0  0.49972  0.43777  0.08275  1.0000
  Fe  Fe164     1.0  0.45192  0.41719  0.04623  1.0000
  S   S323      1.0  0.43121  0.43241  0.02513  1.0000
  Fe  Fe165     1.0  0.48592  0.38616  0.05834  1.0000
  S   S324      1.0  0.51170  0.36275  0.05195  1.0000
  S   S325      1.0  0.44464  0.42620  0.07566  1.0000
  S   S326      1.0  0.47976  0.39270  0.08829  1.0000
  H   H1415     1.0  0.58158  0.46338  0.46339  1.0000
  S   S327      1.0  0.65603  0.43910  0.20559  1.0000
  Fe  Fe166     1.0  0.65521  0.40972  0.22437  1.0000
  Fe  Fe167     1.0  0.63209  0.38688  0.25796  1.0000
  C   C1197     1.0  0.35519  0.37748  0.08138  1.0000
  S   S328      1.0  0.60748  0.39110  0.28258  1.0000
  H   H1416     1.0  0.34983  0.33028  0.09307  1.0000
  C   C1198     1.0  0.58584  0.39559  0.21079  1.0000
  C   C1199     1.0  0.65465  0.27922  0.18034  1.0000
  S   S329      1.0  0.63013  0.39476  0.22652  1.0000
  H   H1417     1.0  0.33703  0.26667  0.06109  1.0000
  H   H1418     1.0  0.62605  0.37501  0.34288  1.0000
  H   H1419     1.0  0.58899  0.40890  0.21437  1.0000
  S   S330      1.0  0.61716  0.26367  0.14384  1.0000
  C   C1200     1.0  0.65592  0.39337  0.33678  1.0000
  C   C1201     1.0  0.50583  0.39348  0.12580  1.0000
  C   C1202     1.0  0.63405  0.44894  0.19713  1.0000
  H   H1420     1.0  0.65547  0.36297  0.31867  1.0000
  C   C1203     1.0  0.61605  0.46925  0.17277  1.0000
  H   H1421     1.0  0.58304  0.41401  0.11986  1.0000
  C   C1204     1.0  0.59937  0.45032  0.20067  1.0000
  C   C1205     1.0  0.61679  0.44357  0.20775  1.0000
  C   C1206     1.0  0.63438  0.46986  0.24774  1.0000
  C   C1207     1.0  0.65798  0.25220  0.09644  1.0000
  H   H1422     1.0  0.58611  0.44586  0.20899  1.0000
  H   H1423     1.0  0.61688  0.43431  0.22156  1.0000
  C   C1208     1.0  0.59830  0.41590  0.28070  1.0000
  C   C1209     1.0  0.59692  0.42716  0.26254  1.0000
  C   C1210     1.0  0.59081  0.44719  0.26075  1.0000
  C   C1211     1.0  0.58655  0.45606  0.27714  1.0000
  C   C1212     1.0  0.58789  0.44482  0.29534  1.0000
  C   C1213     1.0  0.59337  0.42470  0.29717  1.0000
  H   H1424     1.0  0.60023  0.42028  0.24995  1.0000
  H   H1425     1.0  0.58965  0.45580  0.24667  1.0000
  H   H1426     1.0  0.58447  0.45161  0.30806  1.0000
  H   H1427     1.0  0.59414  0.41606  0.31128  1.0000
  H   H1428     1.0  0.47243  0.47035  0.09779  1.0000
  C   C1214     1.0  0.41677  0.42195  0.01399  1.0000
  C   C1215     1.0  0.42061  0.40230  0.01269  1.0000
  C   C1216     1.0  0.40923  0.39475  0.00309  1.0000
  C   C1217     1.0  0.39388  0.40672  0.99467  1.0000
  H   H1429     1.0  0.61989  0.47857  0.25204  1.0000
  C   C1218     1.0  0.40128  0.43387  0.00573  1.0000
  H   H1430     1.0  0.43268  0.39300  0.01865  1.0000
  H   H1431     1.0  0.41263  0.37961  0.00186  1.0000
  S   S331      1.0  0.65134  0.35361  0.19747  1.0000
  C   C1219     1.0  0.38979  0.42629  0.99628  1.0000
  C   C1220     1.0  0.61425  0.31077  0.19085  1.0000
  C   C1221     1.0  0.62274  0.32263  0.17473  1.0000
  C   C1222     1.0  0.63346  0.33614  0.17709  1.0000
  C   C1223     1.0  0.63563  0.33813  0.19560  1.0000
  C   C1224     1.0  0.62647  0.32684  0.21178  1.0000
  C   C1225     1.0  0.61592  0.31315  0.20938  1.0000
  H   H1432     1.0  0.62126  0.32111  0.16048  1.0000
  H   H1433     1.0  0.35542  0.36692  0.99592  1.0000
  H   H1434     1.0  0.62810  0.32813  0.22609  1.0000
  H   H1435     1.0  0.60933  0.30409  0.22196  1.0000
  C   C1226     1.0  0.53352  0.32824  0.10671  1.0000
  C   C1227     1.0  0.51407  0.33715  0.10739  1.0000
  C   C1228     1.0  0.50724  0.34708  0.09052  1.0000
  C   C1229     1.0  0.51992  0.34879  0.07286  1.0000
  C   C1230     1.0  0.53936  0.33959  0.07207  1.0000
  C   C1231     1.0  0.54616  0.32926  0.08898  1.0000
  H   H1436     1.0  0.50418  0.33624  0.12104  1.0000
  H   H1437     1.0  0.49207  0.35325  0.09115  1.0000
  H   H1438     1.0  0.54921  0.34071  0.05840  1.0000
  H   H1439     1.0  0.56118  0.32234  0.08832  1.0000
  C   C1232     1.0  0.57740  0.47159  0.44999  1.0000
  C   C1233     1.0  0.42533  0.31894  0.09889  1.0000
  C   C1234     1.0  0.41065  0.32784  0.11202  1.0000
  C   C1235     1.0  0.41142  0.34628  0.11545  1.0000
  C   C1236     1.0  0.42695  0.35574  0.10592  1.0000
  C   C1237     1.0  0.44179  0.34656  0.09319  1.0000
  C   C1238     1.0  0.44083  0.32840  0.08947  1.0000
  H   H1440     1.0  0.39871  0.32058  0.11950  1.0000
  H   H1441     1.0  0.39991  0.35326  0.12538  1.0000
  H   H1442     1.0  0.45417  0.35334  0.08631  1.0000
  H   H1443     1.0  0.45223  0.32165  0.07928  1.0000
  H   H1444     1.0  0.63388  0.41145  0.29758  1.0000
  C   C1239     1.0  0.57726  0.46213  0.43492  1.0000
  C   C1240     1.0  0.33652  0.25317  0.07108  1.0000
  C   C1241     1.0  0.35444  0.35219  0.00428  1.0000
  H   H1445     1.0  0.57988  0.42659  0.18534  1.0000
  Fe  Fe168     1.0  0.64407  0.39345  0.46849  1.0000
  C   C1242     1.0  0.65783  0.28560  0.16038  1.0000
  H   H1446     1.0  0.59187  0.38819  0.15314  1.0000
  H   H1447     1.0  0.63373  0.42344  0.31711  1.0000
  C   C1243     1.0  0.38632  0.35648  0.07616  1.0000
  H   H1448     1.0  0.53279  0.37057  0.14661  1.0000
  H   H1449     1.0  0.53351  0.44804  0.09063  1.0000
  H   H1450     1.0  0.52613  0.35907  0.12960  1.0000
  H   H1451     1.0  0.37542  0.37166  0.01817  1.0000
  C   C1244     1.0  0.64871  0.40604  0.35045  1.0000
  S   S332      1.0  0.64026  0.29086  0.09525  1.0000
  C   C1245     1.0  0.65251  0.31683  0.12552  1.0000
  H   H1452     1.0  0.57471  0.33266  0.16886  1.0000
  C   C1246     1.0  0.55689  0.43171  0.13145  1.0000
  H   H1453     1.0  0.37651  0.35570  0.04071  1.0000
  H   H1454     1.0  0.62003  0.38374  0.18890  1.0000
  C   C1247     1.0  0.35697  0.34278  0.08807  1.0000
  C   C1248     1.0  0.52003  0.47731  0.04522  1.0000
  C   C1249     1.0  0.57736  0.34548  0.17303  1.0000
  H   H1455     1.0  0.65635  0.41554  0.30220  1.0000
  H   H1456     1.0  0.63653  0.45740  0.25965  1.0000
  H   H1457     1.0  0.37706  0.39883  0.04070  1.0000
  H   H1458     1.0  0.57343  0.46434  0.40613  1.0000
  S   S333      1.0  0.61700  0.48237  0.30580  1.0000
  S   S334      1.0  0.58009  0.48123  0.27463  1.0000
  C   C1250     1.0  0.62482  0.38840  0.33187  1.0000
  H   H1459     1.0  0.49938  0.40730  0.11736  1.0000
  H   H1460     1.0  0.44082  0.24169  0.09594  1.0000
  S   S335      1.0  0.57704  0.46942  0.17412  1.0000
  S   S336      1.0  0.65208  0.35875  0.25480  1.0000
  H   H1461     1.0  0.36620  0.34225  0.99663  1.0000
  N   N80       1.0  0.58979  0.39569  0.18961  1.0000
  H   H1462     1.0  0.61623  0.38623  0.32141  1.0000
  H   H1463     1.0  0.37010  0.32064  0.02607  1.0000
  C   C1251     1.0  0.55769  0.40203  0.11998  1.0000
  H   H1464     1.0  0.40196  0.35349  0.07249  1.0000
  H   H1465     1.0  0.64594  0.24848  0.10751  1.0000
  C   C1252     1.0  0.56737  0.41568  0.12355  1.0000
  H   H1466     1.0  0.51113  0.46736  0.04363  1.0000
  N   N81       1.0  0.38488  0.39302  0.06901  1.0000
  C   C1253     1.0  0.37596  0.40625  0.05318  1.0000
  C   C1254     1.0  0.38223  0.40325  0.08560  1.0000
  C   C1255     1.0  0.40603  0.38861  0.06177  1.0000
  C   C1256     1.0  0.37559  0.37561  0.07527  1.0000
  H   H1467     1.0  0.38552  0.32592  0.08301  1.0000
  S   S337      1.0  0.61296  0.45418  0.35779  1.0000
  H   H1468     1.0  0.38331  0.41907  0.04765  1.0000
  C   C1257     1.0  0.37472  0.35660  0.02554  1.0000
  H   H1469     1.0  0.38836  0.39353  0.09795  1.0000
  H   H1470     1.0  0.36670  0.40856  0.09095  1.0000
  H   H1471     1.0  0.38977  0.41599  0.08177  1.0000
  H   H1472     1.0  0.41250  0.40201  0.05662  1.0000
  H   H1473     1.0  0.41398  0.38002  0.07334  1.0000
  H   H1474     1.0  0.40920  0.38060  0.04944  1.0000
  H   H1475     1.0  0.58174  0.41618  0.16461  1.0000
  S   S338      1.0  0.38020  0.39649  0.98246  1.0000
  N   N82       1.0  0.48599  0.28932  0.11418  1.0000
  C   C1258     1.0  0.47551  0.30835  0.11884  1.0000
  C   C1259     1.0  0.50712  0.28939  0.11187  1.0000
  C   C1260     1.0  0.48212  0.28716  0.09525  1.0000
  C   C1261     1.0  0.47905  0.27380  0.12947  1.0000
  C   C1262     1.0  0.45934  0.27136  0.13282  1.0000
  C   C1263     1.0  0.49129  0.26100  0.14162  1.0000
  H   H1476     1.0  0.37784  0.43561  0.99018  1.0000
  C   C1264     1.0  0.48416  0.24657  0.15596  1.0000
  H   H1477     1.0  0.33053  0.36304  0.09262  1.0000
  H   H1478     1.0  0.47983  0.32044  0.10738  1.0000
  H   H1479     1.0  0.45953  0.30972  0.12027  1.0000
  H   H1480     1.0  0.47845  0.31077  0.13272  1.0000
  H   H1481     1.0  0.51106  0.29246  0.12506  1.0000
  H   H1482     1.0  0.51194  0.30078  0.09981  1.0000
  H   H1483     1.0  0.51594  0.27543  0.10846  1.0000
  H   H1484     1.0  0.48951  0.27291  0.09136  1.0000
  H   H1485     1.0  0.46642  0.28840  0.09509  1.0000
  H   H1486     1.0  0.48729  0.29859  0.08340  1.0000
  H   H1487     1.0  0.65350  0.41667  0.37478  1.0000
  H   H1488     1.0  0.50642  0.26184  0.14039  1.0000
  H   H1489     1.0  0.64695  0.46663  0.17164  1.0000
  H   H1490     1.0  0.41947  0.24009  0.06743  1.0000
  H   H1491     1.0  0.54619  0.46250  0.03031  1.0000
  H   H1492     1.0  0.52858  0.44696  0.14139  1.0000
  H   H1493     1.0  0.34433  0.32419  0.03342  1.0000
  H   H1494     1.0  0.61461  0.40959  0.18664  1.0000
  H   H1495     1.0  0.57037  0.39482  0.21703  1.0000
  H   H1496     1.0  0.54728  0.38377  0.09392  1.0000
  H   H1497     1.0  0.57873  0.36178  0.21347  1.0000
  S   S339      1.0  0.61532  0.41343  0.47034  1.0000
  H   H1498     1.0  0.35980  0.32746  0.04903  1.0000
  H   H1499     1.0  0.63376  0.46354  0.23501  1.0000
  H   H1500     1.0  0.56213  0.41254  0.18445  1.0000
  C   C1265     1.0  0.61717  0.45704  0.38023  1.0000
  H   H1501     1.0  0.36043  0.41208  0.05781  1.0000
  H   H1502     1.0  0.61458  0.39829  0.16666  1.0000
  C   C1266     1.0  0.65316  0.37766  0.30986  1.0000
  H   H1503     1.0  0.56433  0.44249  0.13395  1.0000
  H   H1504     1.0  0.64173  0.30689  0.12948  1.0000
  C   C1267     1.0  0.58307  0.36071  0.15903  1.0000
  C   C1268     1.0  0.62343  0.44275  0.41266  1.0000
  C   C1269     1.0  0.34610  0.36128  0.08776  1.0000
  H   H1505     1.0  0.34611  0.39150  0.08161  1.0000
  C   C1270     1.0  0.52689  0.42075  0.13200  1.0000
  N   N83       1.0  0.52728  0.38946  0.12012  1.0000
  C   C1271     1.0  0.58541  0.37837  0.18424  1.0000
  H   H1506     1.0  0.52724  0.40307  0.09047  1.0000
  C   C1272     1.0  0.57786  0.41341  0.18059  1.0000
  S   S340      1.0  0.36198  0.25495  0.16787  1.0000
  C   C1273     1.0  0.53713  0.40413  0.12410  1.0000
  C   C1274     1.0  0.57981  0.36241  0.19814  1.0000
  C   C1275     1.0  0.61991  0.44081  0.39466  1.0000
  C   C1276     1.0  0.53164  0.38864  0.09914  1.0000
  H   H1507     1.0  0.50141  0.39410  0.14149  1.0000
  H   H1508     1.0  0.61590  0.40032  0.33918  1.0000
  N   N84       1.0  0.64991  0.48175  0.24390  1.0000
  C   C1277     1.0  0.59900  0.46288  0.18302  1.0000
  C   C1278     1.0  0.53435  0.37019  0.13093  1.0000
  C   C1279     1.0  0.48695  0.47125  0.09928  1.0000
  N   N85       1.0  0.64429  0.39264  0.32216  1.0000
  H   H1509     1.0  0.52375  0.37843  0.09542  1.0000
  H   H1510     1.0  0.44907  0.28067  0.12437  1.0000
  H   H1511     1.0  0.57205  0.33405  0.20329  1.0000
  H   H1512     1.0  0.64046  0.34485  0.16452  1.0000
  C   C1280     1.0  0.50254  0.45723  0.09328  1.0000
  C   C1281     1.0  0.53673  0.43417  0.13573  1.0000
  H   H1513     1.0  0.39821  0.44910  0.00658  1.0000
  C   C1282     1.0  0.52132  0.45874  0.09530  1.0000
  H   H1514     1.0  0.54979  0.36460  0.12552  1.0000
  S   S341      1.0  0.65535  0.40409  0.25626  1.0000
  C   C1283     1.0  0.62395  0.46101  0.41634  1.0000
  C   C1284     1.0  0.61798  0.47523  0.38385  1.0000
  C   C1285     1.0  0.61059  0.39691  0.18261  1.0000
  H   H1515     1.0  0.51123  0.42404  0.13498  1.0000
  C   C1286     1.0  0.37703  0.34039  0.08230  1.0000
  C   C1287     1.0  0.64196  0.41161  0.30923  1.0000
  H   H1516     1.0  0.56636  0.38993  0.11365  1.0000
  H   H1517     1.0  0.59521  0.38328  0.21846  1.0000
  C   C1288     1.0  0.57579  0.34631  0.19251  1.0000
  H   H1518     1.0  0.58474  0.35972  0.14389  1.0000
  S   S342      1.0  0.62869  0.46390  0.43853  1.0000
  C   C1289     1.0  0.58710  0.37691  0.16449  1.0000
  H   H1519     1.0  0.62560  0.43015  0.42370  1.0000
  C   C1290     1.0  0.46477  0.24452  0.15874  1.0000
  H   H1520     1.0  0.49889  0.38204  0.12294  1.0000
  H   H1521     1.0  0.61922  0.42670  0.39196  1.0000
  H   H1522     1.0  0.34026  0.34878  0.00310  1.0000
  H   H1523     1.0  0.63480  0.41546  0.35037  1.0000
  Fe  Fe169     1.0  0.60352  0.48103  0.33698  1.0000
  H   H1524     1.0  0.58139  0.44654  0.43672  1.0000
  N   N86       1.0  0.35628  0.35060  0.02480  1.0000
  H   H1525     1.0  0.64633  0.32943  0.13300  1.0000
  H   H1526     1.0  0.53906  0.47485  0.10473  1.0000
  H   H1527     1.0  0.58358  0.48467  0.21624  1.0000
  C   C1291     1.0  0.35762  0.32987  0.03373  1.0000
  H   H1528     1.0  0.61585  0.47902  0.15914  1.0000
  C   C1292     1.0  0.62116  0.47724  0.40194  1.0000
  S   S343      1.0  0.64973  0.36423  0.45994  1.0000
  H   H1529     1.0  0.64379  0.37713  0.29940  1.0000
  H   H1530     1.0  0.65353  0.32200  0.10967  1.0000
  C   C1293     1.0  0.33629  0.38352  0.02741  1.0000
  H   H1531     1.0  0.61535  0.23765  0.06887  1.0000
  C   C1294     1.0  0.45237  0.25691  0.14720  1.0000
  C   C1295     1.0  0.57263  0.47265  0.41732  1.0000
  C   C1296     1.0  0.65835  0.27166  0.08812  1.0000
  H   H1532     1.0  0.32814  0.34134  0.05751  1.0000
  H   H1533     1.0  0.65344  0.47447  0.27391  1.0000
  H   H1534     1.0  0.65940  0.28284  0.20792  1.0000
  H   H1535     1.0  0.54982  0.23978  0.14083  1.0000
  H   H1536     1.0  0.65056  0.27961  0.15181  1.0000
  H   H1537     1.0  0.55368  0.48264  0.38539  1.0000
  H   H1538     1.0  0.64585  0.48129  0.20682  1.0000
  H   H1539     1.0  0.57887  0.48513  0.37693  1.0000
  H   H1540     1.0  0.36310  0.23857  0.05650  1.0000
  C   C1297     1.0  0.35114  0.23733  0.06848  1.0000
  H   H1541     1.0  0.64509  0.26877  0.18662  1.0000
  H   H1542     1.0  0.65868  0.46000  0.38309  1.0000
  H   H1543     1.0  0.46355  0.43265  0.98495  1.0000
  H   H1544     1.0  0.47424  0.24320  0.09866  1.0000
  C   C1298     1.0  0.53983  0.47453  0.03788  1.0000
  C   C1299     1.0  0.65936  0.40695  0.36445  1.0000
  H   H1545     1.0  0.49379  0.23685  0.16495  1.0000
  H   H1546     1.0  0.56669  0.48385  0.03456  1.0000
  H   H1547     1.0  0.64103  0.23539  0.06623  1.0000
  Fe  Fe170     1.0  0.61992  0.41481  0.50003  1.0000
  H   H1548     1.0  0.36799  0.40968  0.65744  1.0000
  S   S344      1.0  0.59978  0.40960  0.52848  1.0000
  C   C1300     1.0  0.53666  0.24063  0.57036  1.0000
  S   S345      1.0  0.64729  0.39302  0.49883  1.0000
  H   H1549     1.0  0.61083  0.36670  0.48631  1.0000
  Fe  Fe171     1.0  0.35268  0.30002  0.65390  1.0000
  Fe  Fe172     1.0  0.38806  0.27693  0.63141  1.0000
  S   S346      1.0  0.37525  0.28338  0.60442  1.0000
  S   S347      1.0  0.41896  0.26120  0.62896  1.0000
  Fe  Fe173     1.0  0.36618  0.31338  0.61143  1.0000
  S   S348      1.0  0.37340  0.34069  0.59189  1.0000
  S   S349      1.0  0.38089  0.30734  0.63712  1.0000
  Fe  Fe174     1.0  0.57395  0.26445  0.61761  1.0000
  S   S350      1.0  0.58039  0.28040  0.58744  1.0000
  S   S351      1.0  0.54723  0.27462  0.63781  1.0000
  H   H1550     1.0  0.64222  0.36489  0.56290  1.0000
  Fe  Fe175     1.0  0.61151  0.27309  0.59205  1.0000
  S   S352      1.0  0.62929  0.29725  0.58005  1.0000
  Fe  Fe176     1.0  0.58488  0.25131  0.57868  1.0000
  S   S353      1.0  0.60450  0.25912  0.62320  1.0000
  Fe  Fe177     1.0  0.35666  0.41268  0.96484  1.0000
  Fe  Fe178     1.0  0.50608  0.37706  0.60159  1.0000
  S   S354      1.0  0.50552  0.36693  0.57435  1.0000
  S   S355      1.0  0.53276  0.36534  0.61499  1.0000
  Fe  Fe179     1.0  0.46736  0.40403  0.60027  1.0000
  S   S356      1.0  0.46385  0.39633  0.57243  1.0000
  S   S357      1.0  0.44396  0.42333  0.61740  1.0000
  Fe  Fe180     1.0  0.47414  0.36594  0.58612  1.0000
  S   S358      1.0  0.46327  0.33870  0.58591  1.0000
  Fe  Fe181     1.0  0.49570  0.39812  0.56321  1.0000
  S   S359      1.0  0.51025  0.40943  0.53316  1.0000
  S   S360      1.0  0.47556  0.37330  0.61460  1.0000
  S   S361      1.0  0.49824  0.40857  0.58987  1.0000
  S   S362      1.0  0.36280  0.41944  0.93221  1.0000
  C   C1301     1.0  0.54286  0.29987  0.63251  1.0000
  C   C1302     1.0  0.52393  0.30999  0.63209  1.0000
  C   C1303     1.0  0.52068  0.33017  0.62663  1.0000
  C   C1304     1.0  0.53629  0.34022  0.62228  1.0000
  C   C1305     1.0  0.55513  0.33008  0.62315  1.0000
  C   C1306     1.0  0.55846  0.30990  0.62781  1.0000
  H   H1551     1.0  0.51187  0.30222  0.63550  1.0000
  H   H1552     1.0  0.50612  0.33797  0.62595  1.0000
  H   H1553     1.0  0.56721  0.33783  0.61981  1.0000
  H   H1554     1.0  0.57312  0.30212  0.62804  1.0000
  H   H1555     1.0  0.42125  0.44620  0.78059  1.0000
  H   H1556     1.0  0.51771  0.32349  0.58909  1.0000
  C   C1307     1.0  0.36407  0.47944  0.68819  1.0000
  C   C1308     1.0  0.34290  0.46287  0.87177  1.0000
  S   S363      1.0  0.35459  0.44097  0.73524  1.0000
  C   C1309     1.0  0.59328  0.34809  0.53357  1.0000
  C   C1310     1.0  0.39846  0.34039  0.58948  1.0000
  C   C1311     1.0  0.41081  0.32304  0.59452  1.0000
  C   C1312     1.0  0.43070  0.32273  0.59297  1.0000
  C   C1313     1.0  0.43835  0.33983  0.58688  1.0000
  C   C1314     1.0  0.42612  0.35722  0.58168  1.0000
  C   C1315     1.0  0.40624  0.35740  0.58256  1.0000
  H   H1557     1.0  0.40514  0.30970  0.59915  1.0000
  H   H1558     1.0  0.44010  0.30921  0.59675  1.0000
  H   H1559     1.0  0.43203  0.37043  0.57665  1.0000
  H   H1560     1.0  0.39690  0.37072  0.57794  1.0000
  C   C1316     1.0  0.55459  0.23782  0.68773  1.0000
  C   C1317     1.0  0.42663  0.46139  0.61517  1.0000
  C   C1318     1.0  0.44072  0.44771  0.60627  1.0000
  C   C1319     1.0  0.45221  0.45362  0.58864  1.0000
  C   C1320     1.0  0.35167  0.38011  0.66422  1.0000
  C   C1321     1.0  0.55143  0.23896  0.55429  1.0000
  H   H1561     1.0  0.41765  0.45689  0.62878  1.0000
  H   H1562     1.0  0.46304  0.44316  0.58164  1.0000
  C   C1322     1.0  0.35926  0.45885  0.83880  1.0000
  H   H1563     1.0  0.54593  0.29822  0.54878  1.0000
  H   H1564     1.0  0.41532  0.39881  0.65457  1.0000
  C   C1323     1.0  0.40439  0.45329  0.75764  1.0000
  C   C1324     1.0  0.41506  0.45764  0.77011  1.0000
  H   H1565     1.0  0.55902  0.34488  0.58398  1.0000
  H   H1566     1.0  0.61864  0.33177  0.49264  1.0000
  H   H1567     1.0  0.63282  0.40916  0.56218  1.0000
  C   C1325     1.0  0.39643  0.44509  0.93953  1.0000
  Fe  Fe182     1.0  0.38046  0.42035  0.74410  1.0000
  C   C1326     1.0  0.37116  0.32134  0.68891  1.0000
  H   H1568     1.0  0.63725  0.33218  0.64493  1.0000
  C   C1327     1.0  0.36925  0.46880  0.67305  1.0000
  C   C1328     1.0  0.57479  0.41076  0.52919  1.0000
  C   C1329     1.0  0.56282  0.40748  0.54720  1.0000
  C   C1330     1.0  0.54301  0.40736  0.54843  1.0000
  C   C1331     1.0  0.53497  0.41047  0.53167  1.0000
  C   C1332     1.0  0.54688  0.41399  0.51358  1.0000
  C   C1333     1.0  0.56679  0.41412  0.51233  1.0000
  H   H1569     1.0  0.56884  0.40485  0.56031  1.0000
  H   H1570     1.0  0.53403  0.40463  0.56243  1.0000
  H   H1571     1.0  0.53957  0.24457  0.58310  1.0000
  C   C1334     1.0  0.42140  0.23905  0.62097  1.0000
  H   H1572     1.0  0.54666  0.28005  0.56966  1.0000
  S   S364      1.0  0.40093  0.42911  0.75987  1.0000
  S   S365      1.0  0.36121  0.26862  0.65100  1.0000
  C   C1335     1.0  0.39044  0.47327  0.95424  1.0000
  H   H1573     1.0  0.61191  0.32415  0.54867  1.0000
  S   S366      1.0  0.34422  0.40581  0.71766  1.0000
  H   H1574     1.0  0.38387  0.45150  0.93207  1.0000
  H   H1575     1.0  0.34292  0.36113  0.71863  1.0000
  H   H1576     1.0  0.61697  0.36283  0.56679  1.0000
  H   H1577     1.0  0.39069  0.23865  0.62601  1.0000
  S   S367      1.0  0.57456  0.24472  0.55332  1.0000
  H   H1578     1.0  0.42591  0.47985  0.77900  1.0000
  C   C1336     1.0  0.63418  0.34290  0.63242  1.0000
  C   C1337     1.0  0.62610  0.35156  0.51749  1.0000
  H   H1579     1.0  0.41070  0.25932  0.58271  1.0000
  H   H1580     1.0  0.39671  0.32772  0.69604  1.0000
  C   C1338     1.0  0.44612  0.45793  0.97150  1.0000
  H   H1581     1.0  0.42697  0.48050  0.95739  1.0000
  C   C1339     1.0  0.64999  0.29226  0.61000  1.0000
  C   C1340     1.0  0.45242  0.43812  0.97603  1.0000
  C   C1341     1.0  0.56844  0.34553  0.57005  1.0000
  H   H1582     1.0  0.39626  0.46252  0.82602  1.0000
  H   H1583     1.0  0.38658  0.35841  0.65588  1.0000
  S   S368      1.0  0.35078  0.47788  0.92090  1.0000
  H   H1584     1.0  0.39484  0.28591  0.56292  1.0000
  C   C1342     1.0  0.41765  0.47673  0.76930  1.0000
  C   C1343     1.0  0.36012  0.43857  0.84484  1.0000
  C   C1344     1.0  0.56261  0.35868  0.55435  1.0000
  C   C1345     1.0  0.35085  0.35013  0.71030  1.0000
  H   H1585     1.0  0.38073  0.46953  0.64273  1.0000
  C   C1346     1.0  0.35092  0.32554  0.69118  1.0000
  H   H1586     1.0  0.42244  0.32252  0.63249  1.0000
  C   C1347     1.0  0.38545  0.47439  0.81975  1.0000
  H   H1587     1.0  0.54863  0.36807  0.55624  1.0000
  Fe  Fe183     1.0  0.34493  0.44840  0.93623  1.0000
  Fe  Fe184     1.0  0.37096  0.38733  0.72740  1.0000
  C   C1348     1.0  0.37960  0.46420  0.89255  1.0000
  H   H1588     1.0  0.36188  0.37995  0.67411  1.0000
  H   H1589     1.0  0.46444  0.30356  0.64185  1.0000
  C   C1349     1.0  0.64513  0.30361  0.59283  1.0000
  H   H1590     1.0  0.48078  0.30006  0.57756  1.0000
  N   N87       1.0  0.36213  0.37673  0.64473  1.0000
  H   H1591     1.0  0.64965  0.32917  0.57201  1.0000
  S   S369      1.0  0.34038  0.44230  0.96872  1.0000
  S   S370      1.0  0.33707  0.30785  0.62842  1.0000
  C   C1350     1.0  0.37325  0.39216  0.63437  1.0000
  C   C1351     1.0  0.37488  0.40790  0.64287  1.0000
  C   C1352     1.0  0.38320  0.39150  0.61520  1.0000
  C   C1353     1.0  0.38578  0.42201  0.63261  1.0000
  C   C1354     1.0  0.39411  0.40563  0.60511  1.0000
  C   C1355     1.0  0.39540  0.42086  0.61382  1.0000
  C   C1356     1.0  0.42067  0.43537  0.67106  1.0000
  H   H1592     1.0  0.53972  0.30626  0.58949  1.0000
  H   H1593     1.0  0.38819  0.46511  0.73448  1.0000
  H   H1594     1.0  0.34138  0.39407  0.66351  1.0000
  H   H1595     1.0  0.62488  0.36444  0.52435  1.0000
  H   H1596     1.0  0.43476  0.26392  0.53093  1.0000
  C   C1357     1.0  0.64530  0.35748  0.62572  1.0000
  S   S371      1.0  0.38971  0.40995  0.71567  1.0000
  H   H1597     1.0  0.33556  0.37420  0.86906  1.0000
  H   H1598     1.0  0.65590  0.43381  0.55772  1.0000
  H   H1599     1.0  0.38267  0.37989  0.60798  1.0000
  H   H1600     1.0  0.46317  0.27965  0.60363  1.0000
  H   H1601     1.0  0.40183  0.40463  0.59056  1.0000
  C   C1358     1.0  0.44984  0.47317  0.58009  1.0000
  N   N88       1.0  0.52080  0.30203  0.57121  1.0000
  H   H1602     1.0  0.45890  0.47767  0.56650  1.0000
  C   C1359     1.0  0.53672  0.28959  0.56033  1.0000
  C   C1360     1.0  0.50924  0.28985  0.58663  1.0000
  C   C1361     1.0  0.48899  0.29050  0.58783  1.0000
  C   C1362     1.0  0.51822  0.27698  0.60131  1.0000
  C   C1363     1.0  0.47861  0.27886  0.60279  1.0000
  C   C1364     1.0  0.50774  0.26540  0.61614  1.0000
  C   C1365     1.0  0.48797  0.26627  0.61684  1.0000
  C   C1366     1.0  0.58625  0.33325  0.56776  1.0000
  C   C1367     1.0  0.41920  0.25503  0.56892  1.0000
  H   H1603     1.0  0.65692  0.35799  0.63314  1.0000
  H   H1604     1.0  0.53087  0.28004  0.55335  1.0000
  S   S372      1.0  0.57592  0.23610  0.60849  1.0000
  C   C1368     1.0  0.44786  0.26427  0.57376  1.0000
  H   H1605     1.0  0.45380  0.29802  0.54683  1.0000
  H   H1606     1.0  0.46732  0.47389  0.62482  1.0000
  H   H1607     1.0  0.38691  0.43384  0.63938  1.0000
  H   H1608     1.0  0.49778  0.32532  0.56387  1.0000
  Fe  Fe185     1.0  0.33886  0.41569  0.74649  1.0000
  H   H1609     1.0  0.61495  0.31833  0.51664  1.0000
  H   H1610     1.0  0.33772  0.43698  0.89174  1.0000
  S   S373      1.0  0.38443  0.35842  0.71801  1.0000
  Fe  Fe186     1.0  0.34762  0.27686  0.62404  1.0000
  C   C1369     1.0  0.57479  0.36012  0.53636  1.0000
  H   H1611     1.0  0.65173  0.39251  0.57246  1.0000
  H   H1612     1.0  0.51855  0.32352  0.54545  1.0000
  S   S374      1.0  0.32848  0.39651  0.90907  1.0000
  C   C1370     1.0  0.37111  0.34597  0.70793  1.0000
  H   H1613     1.0  0.54731  0.25008  0.67796  1.0000
  C   C1371     1.0  0.43124  0.46502  0.96064  1.0000
  H   H1614     1.0  0.53729  0.32472  0.56892  1.0000
  H   H1615     1.0  0.42288  0.42143  0.95474  1.0000
  H   H1616     1.0  0.33664  0.47221  0.88244  1.0000
  H   H1617     1.0  0.53349  0.27584  0.60151  1.0000
  N   N89       1.0  0.60671  0.34929  0.51480  1.0000
  S   S375      1.0  0.63576  0.44005  0.49050  1.0000
  H   H1618     1.0  0.35834  0.47271  0.70253  1.0000
  H   H1619     1.0  0.50268  0.30627  0.54955  1.0000
  H   H1620     1.0  0.33884  0.37474  0.81568  1.0000
  H   H1621     1.0  0.37903  0.31009  0.68088  1.0000
  H   H1622     1.0  0.50614  0.24063  0.58152  1.0000
  C   C1372     1.0  0.38116  0.33137  0.69744  1.0000
  H   H1623     1.0  0.41036  0.31666  0.65681  1.0000
  H   H1624     1.0  0.41953  0.48380  0.92606  1.0000
  H   H1625     1.0  0.58321  0.25613  0.68804  1.0000
  H   H1626     1.0  0.59448  0.32891  0.50489  1.0000
  H   H1627     1.0  0.38500  0.44214  0.80827  1.0000
  H   H1628     1.0  0.41433  0.37605  0.68569  1.0000
  C   C1373     1.0  0.44402  0.42533  0.96955  1.0000
  H   H1629     1.0  0.51505  0.25582  0.62720  1.0000
  C   C1374     1.0  0.37252  0.45373  0.80509  1.0000
  H   H1630     1.0  0.45040  0.24543  0.54414  1.0000
  C   C1375     1.0  0.42442  0.48101  0.60671  1.0000
  H   H1631     1.0  0.42596  0.23960  0.57262  1.0000
  C   C1376     1.0  0.60012  0.36579  0.50004  1.0000
  H   H1632     1.0  0.59823  0.37981  0.50517  1.0000
  H   H1633     1.0  0.36753  0.34604  0.65455  1.0000
  H   H1634     1.0  0.41529  0.42276  0.68084  1.0000
  H   H1635     1.0  0.37803  0.44983  0.90011  1.0000
  C   C1377     1.0  0.58453  0.24952  0.67498  1.0000
  N   N90       1.0  0.40578  0.46026  0.94334  1.0000
  S   S376      1.0  0.36440  0.39552  0.75714  1.0000
  H   H1636     1.0  0.42775  0.31076  0.68382  1.0000
  C   C1378     1.0  0.45668  0.47616  0.63768  1.0000
  H   H1637     1.0  0.44757  0.29519  0.67268  1.0000
  H   H1638     1.0  0.64373  0.27938  0.61602  1.0000
  H   H1639     1.0  0.40410  0.43167  0.60610  1.0000
  S   S377      1.0  0.33792  0.31350  0.68033  1.0000
  H   H1640     1.0  0.38333  0.35392  0.63306  1.0000
  C   C1379     1.0  0.62716  0.37316  0.56472  1.0000
  H   H1641     1.0  0.45717  0.26844  0.53540  1.0000
  H   H1642     1.0  0.43053  0.42986  0.65846  1.0000
  C   C1380     1.0  0.35362  0.48419  0.81114  1.0000
  H   H1643     1.0  0.36705  0.42836  0.83533  1.0000
  C   C1381     1.0  0.39655  0.46822  0.74408  1.0000
  C   C1382     1.0  0.42193  0.45238  0.95430  1.0000
  N   N91       1.0  0.62354  0.38392  0.58104  1.0000
  S   S378      1.0  0.33227  0.25299  0.62098  1.0000
  C   C1383     1.0  0.60307  0.39397  0.58357  1.0000
  C   C1384     1.0  0.63608  0.39897  0.57553  1.0000
  C   C1385     1.0  0.62722  0.37023  0.59888  1.0000
  C   C1386     1.0  0.61612  0.35520  0.60617  1.0000
  C   C1387     1.0  0.64198  0.37100  0.60919  1.0000
  C   C1388     1.0  0.61962  0.34175  0.62267  1.0000
  N   N92       1.0  0.43036  0.44583  0.68105  1.0000
  H   H1644     1.0  0.45757  0.42616  0.67561  1.0000
  H   H1645     1.0  0.40141  0.47768  0.91576  1.0000
  H   H1646     1.0  0.41363  0.43799  0.70943  1.0000
  H   H1647     1.0  0.35335  0.41539  0.86832  1.0000
  H   H1648     1.0  0.57006  0.23714  0.65024  1.0000
  H   H1649     1.0  0.59950  0.40136  0.59639  1.0000
  H   H1650     1.0  0.33181  0.41402  0.82902  1.0000
  C   C1389     1.0  0.34361  0.44302  0.87709  1.0000
  C   C1390     1.0  0.44757  0.43262  0.68756  1.0000
  H   H1651     1.0  0.60480  0.35357  0.59900  1.0000
  C   C1391     1.0  0.37554  0.35801  0.64713  1.0000
  C   C1392     1.0  0.60878  0.33128  0.50693  1.0000
  H   H1652     1.0  0.40334  0.45424  0.87102  1.0000
  Fe  Fe187     1.0  0.36266  0.42898  0.70760  1.0000
  H   H1653     1.0  0.59067  0.32282  0.57999  1.0000
  C   C1393     1.0  0.41318  0.47146  0.92444  1.0000
  C   C1394     1.0  0.42577  0.28833  0.55594  1.0000
  C   C1395     1.0  0.40547  0.29531  0.55780  1.0000
  C   C1396     1.0  0.43822  0.30225  0.54894  1.0000
  C   C1397     1.0  0.39823  0.31502  0.55326  1.0000
  C   C1398     1.0  0.43080  0.32192  0.54451  1.0000
  C   C1399     1.0  0.41084  0.32828  0.54663  1.0000
  H   H1654     1.0  0.56941  0.37097  0.52500  1.0000
  H   H1655     1.0  0.34595  0.39226  0.83936  1.0000
  C   C1400     1.0  0.37659  0.47770  0.65448  1.0000
  H   H1656     1.0  0.40801  0.44501  0.66547  1.0000
  H   H1657     1.0  0.37710  0.46103  0.79007  1.0000
  H   H1658     1.0  0.44055  0.33236  0.53974  1.0000
  H   H1659     1.0  0.40507  0.34358  0.54368  1.0000
  C   C1401     1.0  0.42898  0.43223  0.95885  1.0000
  H   H1660     1.0  0.44333  0.42021  0.69868  1.0000
  H   H1661     1.0  0.65136  0.38173  0.60475  1.0000
  C   C1402     1.0  0.44448  0.26112  0.54183  1.0000
  C   C1403     1.0  0.43640  0.46283  0.66742  1.0000
  C   C1404     1.0  0.45075  0.46035  0.65078  1.0000
  H   H1662     1.0  0.45262  0.46779  0.97674  1.0000
  C   C1405     1.0  0.65344  0.32027  0.58520  1.0000
  H   H1663     1.0  0.44058  0.26954  0.58747  1.0000
  S   S379      1.0  0.61670  0.24516  0.58044  1.0000
  H   H1664     1.0  0.38268  0.32015  0.55545  1.0000
  S   S380      1.0  0.32977  0.40035  0.96520  1.0000
  C   C1406     1.0  0.41673  0.45096  0.69865  1.0000
  H   H1665     1.0  0.58624  0.36449  0.49611  1.0000
  C   C1407     1.0  0.34079  0.33971  0.70221  1.0000
  H   H1666     1.0  0.63330  0.33878  0.52658  1.0000
  N   N93       1.0  0.43920  0.32232  0.65437  1.0000
  C   C1408     1.0  0.44177  0.31067  0.67361  1.0000
  C   C1409     1.0  0.42471  0.31483  0.64715  1.0000
  C   C1410     1.0  0.45818  0.31917  0.64126  1.0000
  C   C1411     1.0  0.43249  0.34322  0.65481  1.0000
  C   C1412     1.0  0.42586  0.35083  0.67231  1.0000
  C   C1413     1.0  0.43182  0.35663  0.63733  1.0000
  C   C1414     1.0  0.41949  0.37063  0.67214  1.0000
  C   C1415     1.0  0.42592  0.37643  0.63735  1.0000
  C   C1416     1.0  0.41980  0.38343  0.65470  1.0000
  H   H1667     1.0  0.60017  0.24615  0.66855  1.0000
  N   N94       1.0  0.43402  0.26754  0.56012  1.0000
  H   H1668     1.0  0.45210  0.31605  0.68008  1.0000
  H   H1669     1.0  0.60012  0.40513  0.57073  1.0000
  H   H1670     1.0  0.44879  0.40992  0.97337  1.0000
  H   H1671     1.0  0.57754  0.26099  0.66431  1.0000
  H   H1672     1.0  0.46894  0.32644  0.64496  1.0000
  H   H1673     1.0  0.45710  0.44614  0.64739  1.0000
  H   H1674     1.0  0.45701  0.32472  0.62587  1.0000
  H   H1675     1.0  0.42541  0.34187  0.68639  1.0000
  H   H1676     1.0  0.43613  0.35198  0.62343  1.0000
  H   H1677     1.0  0.40244  0.45897  0.69520  1.0000
  H   H1678     1.0  0.42636  0.38647  0.62380  1.0000
  H   H1679     1.0  0.42462  0.46221  0.91566  1.0000
  C   C1417     1.0  0.50937  0.31476  0.55694  1.0000
  H   H1680     1.0  0.61124  0.33016  0.62773  1.0000
  C   C1418     1.0  0.52928  0.31461  0.58004  1.0000
  H   H1681     1.0  0.35988  0.44707  0.80474  1.0000
  H   H1682     1.0  0.54070  0.41651  0.50056  1.0000
  H   H1683     1.0  0.63624  0.35349  0.50343  1.0000
  H   H1684     1.0  0.62533  0.38313  0.55089  1.0000
  H   H1685     1.0  0.39073  0.43595  0.95319  1.0000
  C   C1419     1.0  0.35236  0.43088  0.86375  1.0000
  H   H1686     1.0  0.46074  0.27130  0.56770  1.0000
  H   H1687     1.0  0.47985  0.25724  0.62832  1.0000
  H   H1688     1.0  0.57587  0.41678  0.49836  1.0000
  C   C1420     1.0  0.39385  0.46671  0.87602  1.0000
  N   N95       1.0  0.36754  0.46748  0.81901  1.0000
  H   H1689     1.0  0.42917  0.29917  0.64619  1.0000
  C   C1421     1.0  0.33095  0.40064  0.83999  1.0000
  H   H1690     1.0  0.63405  0.40788  0.58705  1.0000
  S   S381      1.0  0.36671  0.44441  0.67681  1.0000
  H   H1691     1.0  0.40907  0.25537  0.55895  1.0000
  H   H1692     1.0  0.55308  0.24249  0.70192  1.0000
  H   H1693     1.0  0.40656  0.43568  0.92993  1.0000
  H   H1694     1.0  0.35419  0.37004  0.61951  1.0000
  C   C1422     1.0  0.34748  0.37508  0.63343  1.0000
  H   H1695     1.0  0.59255  0.38400  0.58549  1.0000
  C   C1423     1.0  0.59842  0.33429  0.54975  1.0000
  C   C1424     1.0  0.42787  0.48213  0.66975  1.0000
  H   H1696     1.0  0.45595  0.44036  0.69402  1.0000
  H   H1697     1.0  0.45388  0.24863  0.57747  1.0000
  C   C1425     1.0  0.35091  0.47070  0.85305  1.0000
  H   H1698     1.0  0.38542  0.46577  0.96905  1.0000
  Fe  Fe188     1.0  0.33430  0.41003  0.93299  1.0000
  C   C1426     1.0  0.51777  0.23824  0.56949  1.0000
  H   H1699     1.0  0.39256  0.48066  0.80516  1.0000
  H   H1700     1.0  0.33784  0.38920  0.63016  1.0000
  C   C1427     1.0  0.36760  0.48032  0.89927  1.0000
  H   H1701     1.0  0.40331  0.48478  0.49483  1.0000
  H   H1702     1.0  0.37750  0.47839  0.94695  1.0000
  H   H1703     1.0  0.33816  0.36429  0.64138  1.0000
  H   H1704     1.0  0.42287  0.45973  0.70626  1.0000
  H   H1705     1.0  0.33062  0.34545  0.89231  1.0000
  H   H1706     1.0  0.34290  0.36866  0.67130  1.0000
  H   H1707     1.0  0.33934  0.47999  0.81170  1.0000
  H   H1708     1.0  0.65978  0.43451  0.52242  1.0000
  C   C1428     1.0  0.39588  0.48528  0.86589  1.0000
  Fe  Fe189     1.0  0.50424  0.67643  0.33983  1.0000
  S   S382      1.0  0.49659  0.68709  0.36808  1.0000
  S   S383      1.0  0.49032  0.69372  0.31487  1.0000
  Fe  Fe190     1.0  0.53636  0.64468  0.35338  1.0000
  S   S384      1.0  0.53139  0.65313  0.38270  1.0000
  S   S385      1.0  0.56227  0.62294  0.34335  1.0000
  Fe  Fe191     1.0  0.49981  0.65580  0.38117  1.0000
  S   S386      1.0  0.47938  0.64593  0.40804  1.0000
  Fe  Fe192     1.0  0.52850  0.68359  0.36681  1.0000
  S   S387      1.0  0.53851  0.70920  0.37256  1.0000
  S   S388      1.0  0.50490  0.64507  0.35286  1.0000
  S   S389      1.0  0.53613  0.67507  0.33755  1.0000
  H   H1709     1.0  0.63599  0.54214  0.18678  1.0000
  C   C1429     1.0  0.42122  0.72108  0.40404  1.0000
  S   S390      1.0  0.62774  0.70797  0.34189  1.0000
  C   C1430     1.0  0.65515  0.63846  0.10015  1.0000
  H   H1710     1.0  0.40478  0.60173  0.44795  1.0000
  H   H1711     1.0  0.44504  0.56884  0.46264  1.0000
  Fe  Fe193     1.0  0.61271  0.61682  0.00732  1.0000
  S   S391      1.0  0.58762  0.60590  0.02838  1.0000
  C   C1431     1.0  0.43671  0.73347  0.34018  1.0000
  Fe  Fe194     1.0  0.61577  0.51379  0.30561  1.0000
  S   S392      1.0  0.58628  0.52302  0.29737  1.0000
  S   S393      1.0  0.64011  0.52761  0.28675  1.0000
  C   C1432     1.0  0.64421  0.49567  0.21001  1.0000
  C   C1433     1.0  0.63171  0.66143  0.29491  1.0000
  H   H1712     1.0  0.63946  0.54815  0.21853  1.0000
  Fe  Fe195     1.0  0.57548  0.51841  0.32928  1.0000
  S   S394      1.0  0.55008  0.53798  0.34360  1.0000
  S   S395      1.0  0.60511  0.51188  0.33759  1.0000
  Fe  Fe196     1.0  0.58087  0.52097  0.11199  1.0000
  S   S396      1.0  0.55204  0.54048  0.11627  1.0000
  S   S397      1.0  0.60301  0.52631  0.08494  1.0000
  H   H1713     1.0  0.42035  0.57883  0.47111  1.0000
  S   S398      1.0  0.54264  0.51314  0.15746  1.0000
  C   C1434     1.0  0.61347  0.70830  0.22579  1.0000
  Fe  Fe197     1.0  0.54006  0.51272  0.12684  1.0000
  H   H1714     1.0  0.63656  0.66987  0.13170  1.0000
  Fe  Fe198     1.0  0.55801  0.53862  0.14619  1.0000
  S   S399      1.0  0.55216  0.56338  0.16311  1.0000
  H   H1715     1.0  0.63232  0.67166  0.10752  1.0000
  S   S400      1.0  0.58759  0.52065  0.14140  1.0000
  S   S401      1.0  0.59496  0.64616  0.20761  1.0000
  Fe  Fe199     1.0  0.61320  0.63613  0.18086  1.0000
  S   S402      1.0  0.60628  0.62550  0.15559  1.0000
  C   C1435     1.0  0.62054  0.65812  0.31370  1.0000
  Fe  Fe200     1.0  0.37052  0.65050  0.43287  1.0000
  S   S403      1.0  0.35888  0.62277  0.43822  1.0000
  S   S404      1.0  0.38974  0.65989  0.40463  1.0000
  C   C1436     1.0  0.57621  0.51132  0.04600  1.0000
  H   H1716     1.0  0.57590  0.61665  0.12488  1.0000
  H   H1717     1.0  0.64520  0.52178  0.24470  1.0000
  C   C1437     1.0  0.43569  0.58042  0.47021  1.0000
  H   H1718     1.0  0.33086  0.68762  0.34069  1.0000
  S   S405      1.0  0.34151  0.66868  0.44073  1.0000
  C   C1438     1.0  0.33597  0.67872  0.38797  1.0000
  S   S406      1.0  0.37787  0.64618  0.46248  1.0000
  H   H1719     1.0  0.40192  0.68424  0.35009  1.0000
  H   H1720     1.0  0.46337  0.61543  0.45343  1.0000
  C   C1439     1.0  0.56132  0.61597  0.08309  1.0000
  C   C1440     1.0  0.64359  0.71572  0.23081  1.0000
  Fe  Fe201     1.0  0.64032  0.64607  0.00007  1.0000
  C   C1441     1.0  0.56852  0.57925  0.16198  1.0000
  C   C1442     1.0  0.56323  0.59342  0.17389  1.0000
  C   C1443     1.0  0.57532  0.60691  0.17291  1.0000
  C   C1444     1.0  0.59279  0.60647  0.15984  1.0000
  C   C1445     1.0  0.59839  0.59195  0.14827  1.0000
  C   C1446     1.0  0.58636  0.57830  0.14941  1.0000
  H   H1721     1.0  0.54949  0.59422  0.18371  1.0000
  H   H1722     1.0  0.57073  0.61814  0.18172  1.0000
  H   H1723     1.0  0.61188  0.59153  0.13810  1.0000
  H   H1724     1.0  0.59068  0.56733  0.14030  1.0000
  C   C1447     1.0  0.63082  0.55148  0.27741  1.0000
  C   C1448     1.0  0.64031  0.56103  0.26013  1.0000
  C   C1449     1.0  0.63214  0.57976  0.25218  1.0000
  C   C1450     1.0  0.61458  0.58890  0.26163  1.0000
  C   C1451     1.0  0.61343  0.56079  0.28689  1.0000
  S   S407      1.0  0.57306  0.48733  0.33084  1.0000
  H   H1725     1.0  0.63939  0.58710  0.23878  1.0000
  H   H1726     1.0  0.60627  0.55367  0.30042  1.0000
  Fe  Fe202     1.0  0.61737  0.62646  0.22337  1.0000
  C   C1452     1.0  0.46181  0.72607  0.31293  1.0000
  H   H1727     1.0  0.58466  0.52143  0.04915  1.0000
  C   C1453     1.0  0.56568  0.61747  0.11488  1.0000
  Fe  Fe203     1.0  0.34781  0.66195  0.47093  1.0000
  C   C1454     1.0  0.39683  0.71079  0.39159  1.0000
  H   H1728     1.0  0.63698  0.49631  0.26803  1.0000
  H   H1729     1.0  0.60508  0.61667  0.31260  1.0000
  C   C1455     1.0  0.45087  0.60412  0.42349  1.0000
  C   C1456     1.0  0.59230  0.58349  0.04343  1.0000
  C   C1457     1.0  0.61105  0.57281  0.04310  1.0000
  C   C1458     1.0  0.61424  0.55523  0.05588  1.0000
  C   C1459     1.0  0.59878  0.54850  0.06924  1.0000
  C   C1460     1.0  0.58009  0.55926  0.06947  1.0000
  C   C1461     1.0  0.57683  0.57654  0.05648  1.0000
  H   H1730     1.0  0.62307  0.57802  0.03296  1.0000
  H   H1731     1.0  0.62873  0.54690  0.05547  1.0000
  H   H1732     1.0  0.56800  0.55415  0.07930  1.0000
  H   H1733     1.0  0.56225  0.58460  0.05658  1.0000
  S   S408      1.0  0.33423  0.63532  0.47959  1.0000
  H   H1734     1.0  0.62146  0.66789  0.05975  1.0000
  C   C1462     1.0  0.55561  0.71162  0.27084  1.0000
  H   H1735     1.0  0.54736  0.53761  0.03111  1.0000
  C   C1463     1.0  0.55714  0.51254  0.23108  1.0000
  H   H1736     1.0  0.57361  0.52720  0.37375  1.0000
  C   C1464     1.0  0.57154  0.72460  0.36405  1.0000
  C   C1465     1.0  0.36993  0.72631  0.34663  1.0000
  H   H1737     1.0  0.60245  0.64000  0.33435  1.0000
  Fe  Fe204     1.0  0.65249  0.60966  0.98254  1.0000
  C   C1466     1.0  0.55897  0.59900  0.34483  1.0000
  C   C1467     1.0  0.57457  0.58551  0.33763  1.0000
  C   C1468     1.0  0.57200  0.56670  0.33734  1.0000
  C   C1469     1.0  0.55383  0.56126  0.34436  1.0000
  C   C1470     1.0  0.53831  0.57461  0.35188  1.0000
  C   C1471     1.0  0.54085  0.59347  0.35208  1.0000
  H   H1738     1.0  0.58863  0.58966  0.33201  1.0000
  H   H1739     1.0  0.58405  0.55649  0.33155  1.0000
  H   H1740     1.0  0.52422  0.57046  0.35732  1.0000
  H   H1741     1.0  0.52876  0.60375  0.35771  1.0000
  C   C1472     1.0  0.45460  0.65132  0.40651  1.0000
  C   C1473     1.0  0.44108  0.65015  0.42363  1.0000
  C   C1474     1.0  0.42122  0.65269  0.42311  1.0000
  C   C1475     1.0  0.41470  0.65666  0.40543  1.0000
  C   C1476     1.0  0.42818  0.65864  0.38821  1.0000
  C   C1477     1.0  0.44815  0.65596  0.38873  1.0000
  H   H1742     1.0  0.44609  0.64719  0.43731  1.0000
  H   H1743     1.0  0.41100  0.65167  0.43638  1.0000
  H   H1744     1.0  0.42325  0.66196  0.37445  1.0000
  H   H1745     1.0  0.45854  0.65704  0.37543  1.0000
  C   C1478     1.0  0.56369  0.70784  0.36630  1.0000
  C   C1479     1.0  0.57579  0.69065  0.36224  1.0000
  C   C1480     1.0  0.59577  0.69037  0.35577  1.0000
  C   C1481     1.0  0.60342  0.70744  0.35255  1.0000
  C   C1482     1.0  0.44690  0.60692  0.40474  1.0000
  H   H1746     1.0  0.51614  0.51611  0.06649  1.0000
  H   H1747     1.0  0.56979  0.67758  0.36419  1.0000
  H   H1748     1.0  0.60518  0.67702  0.35308  1.0000
  C   C1483     1.0  0.62684  0.69639  0.28929  1.0000
  C   C1484     1.0  0.63875  0.53008  0.19829  1.0000
  C   C1485     1.0  0.46885  0.70846  0.32393  1.0000
  C   C1486     1.0  0.45920  0.70305  0.34267  1.0000
  C   C1487     1.0  0.44334  0.71556  0.35081  1.0000
  N   N96       1.0  0.55534  0.51551  0.05464  1.0000
  H   H1749     1.0  0.65386  0.55390  0.25284  1.0000
  H   H1750     1.0  0.52566  0.71332  0.31318  1.0000
  H   H1751     1.0  0.46396  0.68915  0.35096  1.0000
  H   H1752     1.0  0.43638  0.71137  0.36549  1.0000
  H   H1753     1.0  0.40074  0.71932  0.37704  1.0000
  H   H1754     1.0  0.45844  0.60898  0.39245  1.0000
  C   C1488     1.0  0.60535  0.57947  0.27905  1.0000
  H   H1755     1.0  0.60294  0.49838  0.20826  1.0000
  N   N97       1.0  0.57498  0.51519  0.21674  1.0000
  C   C1489     1.0  0.56777  0.49317  0.41439  1.0000
  H   H1756     1.0  0.33172  0.62387  0.37651  1.0000
  N   N98       1.0  0.56278  0.50486  0.39599  1.0000
  C   C1490     1.0  0.58307  0.53134  0.22027  1.0000
  C   C1491     1.0  0.58518  0.54833  0.20635  1.0000
  C   C1492     1.0  0.58876  0.53056  0.23831  1.0000
  C   C1493     1.0  0.59236  0.56352  0.21039  1.0000
  C   C1494     1.0  0.59590  0.54586  0.24219  1.0000
  C   C1495     1.0  0.59759  0.56235  0.22829  1.0000
  C   C1496     1.0  0.64055  0.51122  0.19519  1.0000
  H   H1757     1.0  0.53213  0.50560  0.40569  1.0000
  H   H1758     1.0  0.58312  0.49657  0.05208  1.0000
  H   H1759     1.0  0.57827  0.51288  0.02999  1.0000
  C   C1497     1.0  0.64596  0.49855  0.22852  1.0000
  H   H1760     1.0  0.64064  0.64907  0.26809  1.0000
  H   H1761     1.0  0.56785  0.61303  0.06831  1.0000
  H   H1762     1.0  0.57451  0.52996  0.39756  1.0000
  H   H1763     1.0  0.56007  0.50832  0.24613  1.0000
  H   H1764     1.0  0.58120  0.55034  0.19226  1.0000
  H   H1765     1.0  0.58757  0.51814  0.24964  1.0000
  H   H1766     1.0  0.59379  0.57637  0.19958  1.0000
  H   H1767     1.0  0.60015  0.54497  0.25607  1.0000
  H   H1768     1.0  0.60298  0.57426  0.23139  1.0000
  H   H1769     1.0  0.46572  0.60409  0.42459  1.0000
  H   H1770     1.0  0.59937  0.59356  0.10559  1.0000
  C   C1498     1.0  0.43585  0.60249  0.43990  1.0000
  C   C1499     1.0  0.33179  0.67896  0.35537  1.0000
  H   H1771     1.0  0.55820  0.49817  0.08235  1.0000
  H   H1772     1.0  0.55141  0.60533  0.08944  1.0000
  H   H1773     1.0  0.59188  0.58655  0.28649  1.0000
  C   C1500     1.0  0.61238  0.62906  0.30767  1.0000
  N   N99       1.0  0.57617  0.61473  0.09521  1.0000
  Fe  Fe205     1.0  0.58680  0.49144  0.29964  1.0000
  H   H1774     1.0  0.61873  0.64198  0.04318  1.0000
  H   H1775     1.0  0.46910  0.73024  0.29833  1.0000
  H   H1776     1.0  0.42775  0.62942  0.46277  1.0000
  H   H1777     1.0  0.59156  0.51160  0.38658  1.0000
  C   C1501     1.0  0.56976  0.51822  0.19720  1.0000
  H   H1778     1.0  0.47809  0.49758  0.11136  1.0000
  C   C1502     1.0  0.58894  0.62914  0.08612  1.0000
  H   H1779     1.0  0.65086  0.61006  0.06032  1.0000
  H   H1780     1.0  0.64187  0.69554  0.21282  1.0000
  H   H1781     1.0  0.53935  0.51886  0.08324  1.0000
  C   C1503     1.0  0.65503  0.67811  0.30205  1.0000
  H   H1782     1.0  0.33958  0.68685  0.39802  1.0000
  C   C1504     1.0  0.42805  0.60806  0.40172  1.0000
  H   H1783     1.0  0.41074  0.61339  0.47212  1.0000
  C   C1505     1.0  0.59127  0.72449  0.35680  1.0000
  H   H1784     1.0  0.56122  0.69963  0.24455  1.0000
  C   C1506     1.0  0.43494  0.70387  0.40702  1.0000
  Fe  Fe206     1.0  0.36384  0.61992  0.46867  1.0000
  H   H1785     1.0  0.56434  0.51783  0.42901  1.0000
  N   N100      1.0  0.33457  0.69098  0.36877  1.0000
  H   H1786     1.0  0.34721  0.66552  0.38719  1.0000
  C   C1507     1.0  0.61253  0.65717  0.06717  1.0000
  H   H1787     1.0  0.55239  0.73419  0.32814  1.0000
  C   C1508     1.0  0.41310  0.60608  0.41746  1.0000
  S   S409      1.0  0.63417  0.61469  0.19708  1.0000
  H   H1788     1.0  0.56411  0.52178  0.07942  1.0000
  H   H1789     1.0  0.55575  0.63164  0.11464  1.0000
  H   H1790     1.0  0.59077  0.66632  0.28971  1.0000
  C   C1509     1.0  0.57267  0.49164  0.44762  1.0000
  C   C1510     1.0  0.63376  0.70534  0.22242  1.0000
  H   H1791     1.0  0.54622  0.52608  0.23045  1.0000
  H   H1792     1.0  0.53826  0.52426  0.38570  1.0000
  H   H1793     1.0  0.63930  0.50856  0.18118  1.0000
  H   H1794     1.0  0.63375  0.70952  0.28434  1.0000
  S   S410      1.0  0.63027  0.66049  0.17534  1.0000
  C   C1511     1.0  0.53014  0.72725  0.30546  1.0000
  H   H1795     1.0  0.61619  0.69723  0.27967  1.0000
  N   N101      1.0  0.43943  0.59977  0.45999  1.0000
  S   S411      1.0  0.60350  0.61198  0.25208  1.0000
  H   H1796     1.0  0.39840  0.60724  0.41503  1.0000
  C   C1512     1.0  0.64329  0.62400  0.10425  1.0000
  S   S412      1.0  0.60920  0.64872  0.99637  1.0000
  N   N102      1.0  0.54904  0.62861  0.28627  1.0000
  C   C1513     1.0  0.53195  0.63217  0.30171  1.0000
  C   C1514     1.0  0.56678  0.62916  0.29362  1.0000
  C   C1515     1.0  0.54689  0.64483  0.26984  1.0000
  C   C1516     1.0  0.55071  0.60939  0.28087  1.0000
  C   C1517     1.0  0.54910  0.59278  0.29535  1.0000
  C   C1518     1.0  0.55510  0.60633  0.26135  1.0000
  C   C1519     1.0  0.55136  0.57439  0.29066  1.0000
  C   C1520     1.0  0.55721  0.58787  0.25680  1.0000
  C   C1521     1.0  0.55535  0.57195  0.27141  1.0000
  H   H1797     1.0  0.53401  0.62304  0.31588  1.0000
  H   H1798     1.0  0.52909  0.64728  0.30456  1.0000
  H   H1799     1.0  0.51858  0.62948  0.29779  1.0000
  H   H1800     1.0  0.57010  0.61650  0.30494  1.0000
  H   H1801     1.0  0.56534  0.64232  0.30009  1.0000
  H   H1802     1.0  0.57972  0.62876  0.28200  1.0000
  H   H1803     1.0  0.56023  0.64452  0.25859  1.0000
  H   H1804     1.0  0.53433  0.64451  0.26304  1.0000
  H   H1805     1.0  0.54445  0.65912  0.27455  1.0000
  H   H1806     1.0  0.54656  0.59376  0.31048  1.0000
  H   H1807     1.0  0.55750  0.61785  0.24934  1.0000
  H   H1808     1.0  0.55025  0.56194  0.30208  1.0000
  H   H1809     1.0  0.56065  0.58591  0.24182  1.0000
  H   H1810     1.0  0.55726  0.55764  0.26785  1.0000
  H   H1811     1.0  0.59900  0.61754  0.05921  1.0000
  H   H1812     1.0  0.39803  0.71412  0.43780  1.0000
  C   C1522     1.0  0.65219  0.61776  0.07139  1.0000
  C   C1523     1.0  0.59098  0.64417  0.09540  1.0000
  H   H1813     1.0  0.58413  0.67116  0.25645  1.0000
  C   C1524     1.0  0.54781  0.53584  0.04680  1.0000
  C   C1525     1.0  0.37092  0.68674  0.35916  1.0000
  C   C1526     1.0  0.51171  0.49261  0.05509  1.0000
  H   H1814     1.0  0.64950  0.62717  0.14010  1.0000
  H   H1815     1.0  0.60366  0.66949  0.09312  1.0000
  H   H1816     1.0  0.58370  0.64568  0.10992  1.0000
  C   C1527     1.0  0.56412  0.69766  0.25917  1.0000
  C   C1528     1.0  0.60257  0.65797  0.08594  1.0000
  H   H1817     1.0  0.65998  0.69278  0.26464  1.0000
  C   C1529     1.0  0.62314  0.63188  0.28909  1.0000
  H   H1818     1.0  0.55823  0.53111  0.19490  1.0000
  H   H1819     1.0  0.56403  0.50569  0.19491  1.0000
  H   H1820     1.0  0.37212  0.67130  0.36380  1.0000
  C   C1530     1.0  0.61304  0.73114  0.24708  1.0000
  C   C1531     1.0  0.57707  0.68159  0.26584  1.0000
  N   N103      1.0  0.55159  0.72551  0.30120  1.0000
  N   N104      1.0  0.40025  0.72022  0.40682  1.0000
  S   S413      1.0  0.64839  0.66407  0.01909  1.0000
  C   C1532     1.0  0.42622  0.61460  0.47044  1.0000
  H   H1821     1.0  0.58258  0.51999  0.18561  1.0000
  C   C1533     1.0  0.55859  0.72214  0.31990  1.0000
  S   S414      1.0  0.60054  0.69657  0.21436  1.0000
  C   C1534     1.0  0.52320  0.50496  0.05802  1.0000
  C   C1535     1.0  0.54265  0.51564  0.39940  1.0000
  C   C1536     1.0  0.39389  0.70875  0.42598  1.0000
  H   H1822     1.0  0.55995  0.50231  0.36730  1.0000
  H   H1823     1.0  0.37787  0.70927  0.42920  1.0000
  H   H1824     1.0  0.49636  0.49448  0.06111  1.0000
  H   H1825     1.0  0.62163  0.49137  0.40475  1.0000
  H   H1826     1.0  0.43040  0.69002  0.41138  1.0000
  Fe  Fe207     1.0  0.65055  0.63929  0.19265  1.0000
  C   C1537     1.0  0.35260  0.69912  0.36094  1.0000
  C   C1538     1.0  0.61099  0.64221  0.31992  1.0000
  C   C1539     1.0  0.55417  0.51355  0.07579  1.0000
  H   H1827     1.0  0.55236  0.63067  0.08134  1.0000
  H   H1828     1.0  0.58754  0.72431  0.24019  1.0000
  C   C1540     1.0  0.54345  0.50253  0.05081  1.0000
  C   C1541     1.0  0.50901  0.48817  0.10902  1.0000
  H   H1829     1.0  0.62416  0.62158  0.27959  1.0000
  C   C1542     1.0  0.41690  0.60318  0.43627  1.0000
  H   H1830     1.0  0.38475  0.54572  0.47859  1.0000
  C   C1543     1.0  0.59958  0.62861  0.06715  1.0000
  Fe  Fe208     1.0  0.33033  0.64062  0.44850  1.0000
  C   C1544     1.0  0.56784  0.50231  0.43015  1.0000
  C   C1545     1.0  0.60319  0.72142  0.23799  1.0000
  H   H1831     1.0  0.57652  0.69008  0.31052  1.0000
  C   C1546     1.0  0.61101  0.64252  0.05782  1.0000
  H   H1832     1.0  0.55704  0.54591  0.04852  1.0000
  H   H1833     1.0  0.34378  0.66648  0.35379  1.0000
  Fe  Fe209     1.0  0.61448  0.66803  0.20424  1.0000
  N   N105      1.0  0.64151  0.67851  0.28875  1.0000
  H   H1834     1.0  0.55422  0.70897  0.32951  1.0000
  S   S415      1.0  0.63614  0.64854  0.22109  1.0000
  C   C1547     1.0  0.38759  0.71371  0.34486  1.0000
  C   C1548     1.0  0.58787  0.59500  0.09681  1.0000
  H   H1835     1.0  0.55665  0.60609  0.12155  1.0000
  C   C1549     1.0  0.55146  0.48694  0.04051  1.0000
  H   H1836     1.0  0.40573  0.69619  0.39150  1.0000
  H   H1837     1.0  0.63469  0.62071  0.11841  1.0000
  H   H1838     1.0  0.59507  0.59115  0.08250  1.0000
  C   C1550     1.0  0.64406  0.51801  0.23119  1.0000
  C   C1551     1.0  0.57271  0.69297  0.29627  1.0000
  C   C1552     1.0  0.63331  0.72850  0.24333  1.0000
  H   H1839     1.0  0.46500  0.69066  0.40599  1.0000
  C   C1553     1.0  0.56000  0.70996  0.28959  1.0000
  S   S416      1.0  0.64270  0.61468  0.01313  1.0000
  C   C1554     1.0  0.58103  0.67907  0.28447  1.0000
  C   C1555     1.0  0.45485  0.70411  0.40378  1.0000
  H   H1840     1.0  0.61872  0.69754  0.30411  1.0000
  H   H1841     1.0  0.53293  0.54096  0.05422  1.0000
  S   S417      1.0  0.51243  0.50828  0.11819  1.0000
  H   H1842     1.0  0.61915  0.66789  0.32371  1.0000
  C   C1556     1.0  0.64067  0.53345  0.21619  1.0000
  C   C1557     1.0  0.38811  0.69398  0.35126  1.0000
  H   H1843     1.0  0.40014  0.69313  0.42690  1.0000
  H   H1844     1.0  0.57878  0.58375  0.10382  1.0000
  H   H1845     1.0  0.46171  0.59977  0.47635  1.0000
  C   C1558     1.0  0.57618  0.51897  0.38820  1.0000
  H   H1846     1.0  0.42494  0.61089  0.38716  1.0000
  S   S418      1.0  0.56867  0.49330  0.12083  1.0000
  H   H1847     1.0  0.62508  0.65235  0.12614  1.0000
  C   C1559     1.0  0.63264  0.64782  0.28268  1.0000
  H   H1848     1.0  0.65927  0.71378  0.22762  1.0000
  H   H1849     1.0  0.38141  0.70904  0.39346  1.0000
  H   H1850     1.0  0.47037  0.58956  0.45486  1.0000
  C   C1560     1.0  0.45961  0.60119  0.46114  1.0000
  H   H1851     1.0  0.54581  0.72393  0.26490  1.0000
  H   H1852     1.0  0.47724  0.72155  0.39452  1.0000
  H   H1853     1.0  0.54088  0.52607  0.40939  1.0000
  H   H1854     1.0  0.55027  0.50090  0.22853  1.0000
  H   H1855     1.0  0.64347  0.68082  0.25798  1.0000
  H   H1856     1.0  0.57465  0.72079  0.31787  1.0000
  H   H1857     1.0  0.33945  0.72981  0.35491  1.0000
  C   C1561     1.0  0.35262  0.71923  0.35441  1.0000
  H   H1858     1.0  0.52350  0.73131  0.29217  1.0000
  C   C1562     1.0  0.65290  0.67970  0.26886  1.0000
  Fe  Fe210     1.0  0.57205  0.49524  0.15077  1.0000
  H   H1859     1.0  0.61637  0.48769  0.37264  1.0000
  C   C1563     1.0  0.64206  0.61369  0.09010  1.0000
  H   H1860     1.0  0.64740  0.67928  0.31703  1.0000
  C   C1564     1.0  0.58931  0.49706  0.21879  1.0000
  H   H1861     1.0  0.33186  0.62472  0.41093  1.0000
  H   H1862     1.0  0.39440  0.51290  0.47000  1.0000
  H   H1863     1.0  0.59307  0.49288  0.23349  1.0000
  C   C1565     1.0  0.56393  0.49313  0.38084  1.0000
  C   C1566     1.0  0.63662  0.66133  0.12035  1.0000
  C   C1567     1.0  0.46176  0.72148  0.39731  1.0000
  N   N106      1.0  0.65590  0.64942  0.11530  1.0000
  H   H1864     1.0  0.63299  0.60267  0.09359  1.0000
  H   H1865     1.0  0.40093  0.71930  0.33867  1.0000
  H   H1866     1.0  0.57303  0.49892  0.45934  1.0000
  C   C1568     1.0  0.65084  0.48729  0.26247  1.0000
  C   C1569     1.0  0.49022  0.48669  0.10697  1.0000
  Fe  Fe211     1.0  0.41700  0.52559  0.78092  1.0000
  S   S419      1.0  0.39139  0.52462  0.80484  1.0000
  Fe  Fe212     1.0  0.43773  0.54647  0.80315  1.0000
  S   S420      1.0  0.41350  0.54609  0.82855  1.0000
  S   S421      1.0  0.46285  0.56258  0.80089  1.0000
  Fe  Fe213     1.0  0.41365  0.51574  0.82442  1.0000
  H   H1867     1.0  0.53518  0.65519  0.90920  1.0000
  Fe  Fe214     1.0  0.39412  0.55490  0.80608  1.0000
  S   S422      1.0  0.37101  0.58141  0.80484  1.0000
  S   S423      1.0  0.43941  0.51532  0.80032  1.0000
  S   S424      1.0  0.41823  0.55665  0.78084  1.0000
  Fe  Fe215     1.0  0.38181  0.56708  0.59210  1.0000
  S   S425      1.0  0.41372  0.56458  0.58115  1.0000
  S   S426      1.0  0.35810  0.58292  0.57542  1.0000
  Fe  Fe216     1.0  0.38769  0.54322  0.63115  1.0000
  S   S427      1.0  0.42006  0.53864  0.62328  1.0000
  S   S428      1.0  0.37368  0.53281  0.66142  1.0000
  Fe  Fe217     1.0  0.41554  0.56994  0.61032  1.0000
  S   S429      1.0  0.43563  0.58890  0.61325  1.0000
  Fe  Fe218     1.0  0.41515  0.53348  0.59510  1.0000
  S   S430      1.0  0.43379  0.51129  0.57804  1.0000
  S   S431      1.0  0.38345  0.57511  0.62027  1.0000
  S   S432      1.0  0.38293  0.53548  0.60391  1.0000
  Fe  Fe219     1.0  0.37322  0.66072  0.67555  1.0000
  S   S433      1.0  0.39937  0.66273  0.65219  1.0000
  Fe  Fe220     1.0  0.35247  0.67646  0.71219  1.0000
  S   S434      1.0  0.35197  0.69763  0.73246  1.0000
  S   S435      1.0  0.37576  0.65089  0.70683  1.0000
  S   S436      1.0  0.35174  0.68750  0.68057  1.0000
  Fe  Fe221     1.0  0.62097  0.64029  0.96708  1.0000
  C   C1570     1.0  0.54623  0.71315  0.88947  1.0000
  S   S437      1.0  0.60797  0.65409  0.93985  1.0000
  Fe  Fe222     1.0  0.53354  0.62898  0.88261  1.0000
  S   S438      1.0  0.53209  0.61495  0.85754  1.0000
  S   S439      1.0  0.55155  0.61557  0.90647  1.0000
  Fe  Fe223     1.0  0.50382  0.66398  0.87041  1.0000
  S   S440      1.0  0.50006  0.65358  0.84431  1.0000
  S   S441      1.0  0.48818  0.69153  0.88070  1.0000
  Fe  Fe224     1.0  0.49968  0.62456  0.86325  1.0000
  S   S442      1.0  0.47508  0.60827  0.86415  1.0000
  Fe  Fe225     1.0  0.53243  0.64484  0.84026  1.0000
  S   S443      1.0  0.54942  0.64932  0.81017  1.0000
  S   S444      1.0  0.50095  0.63583  0.89006  1.0000
  S   S445      1.0  0.53636  0.65799  0.86472  1.0000
  H   H1868     1.0  0.38246  0.48583  0.82887  1.0000
  H   H1869     1.0  0.36019  0.51138  0.89412  1.0000
  H   H1870     1.0  0.40638  0.53851  0.55722  1.0000
  S   S446      1.0  0.58891  0.72345  0.78511  1.0000
  H   H1871     1.0  0.38962  0.70564  0.65478  1.0000
  S   S447      1.0  0.62712  0.70516  0.86748  1.0000
  S   S448      1.0  0.65201  0.64088  0.96951  1.0000
  H   H1872     1.0  0.63907  0.65157  0.84693  1.0000
  C   C1571     1.0  0.55886  0.67085  0.80296  1.0000
  C   C1572     1.0  0.55629  0.68394  0.81564  1.0000
  C   C1573     1.0  0.56469  0.70066  0.80989  1.0000
  C   C1574     1.0  0.57608  0.70410  0.79161  1.0000
  C   C1575     1.0  0.57811  0.69135  0.77868  1.0000
  C   C1576     1.0  0.56954  0.67472  0.78437  1.0000
  H   H1873     1.0  0.54778  0.68126  0.82983  1.0000
  H   H1874     1.0  0.56218  0.71091  0.81953  1.0000
  H   H1875     1.0  0.58677  0.69403  0.76445  1.0000
  H   H1876     1.0  0.57146  0.66469  0.77445  1.0000
  C   C1577     1.0  0.43039  0.71758  0.86054  1.0000
  C   C1578     1.0  0.50891  0.71220  0.82359  1.0000
  C   C1579     1.0  0.45017  0.70842  0.88576  1.0000
  C   C1580     1.0  0.46596  0.70091  0.87277  1.0000
  C   C1581     1.0  0.46399  0.70172  0.85359  1.0000
  C   C1582     1.0  0.44633  0.71048  0.84738  1.0000
  C   C1583     1.0  0.37544  0.65186  0.78752  1.0000
  C   C1584     1.0  0.42182  0.60635  0.77403  1.0000
  H   H1877     1.0  0.47608  0.69587  0.84350  1.0000
  H   H1878     1.0  0.44497  0.71126  0.83253  1.0000
  C   C1585     1.0  0.59260  0.64297  0.93058  1.0000
  C   C1586     1.0  0.58681  0.65143  0.91273  1.0000
  C   C1587     1.0  0.57422  0.64333  0.90515  1.0000
  C   C1588     1.0  0.56756  0.62640  0.91519  1.0000
  C   C1589     1.0  0.57381  0.61767  0.93276  1.0000
  C   C1590     1.0  0.58614  0.62594  0.94048  1.0000
  H   H1879     1.0  0.59198  0.66442  0.90476  1.0000
  H   H1880     1.0  0.56978  0.65013  0.89148  1.0000
  H   H1881     1.0  0.56886  0.60452  0.94061  1.0000
  H   H1882     1.0  0.59046  0.61919  0.95420  1.0000
  H   H1883     1.0  0.56129  0.68051  0.93586  1.0000
  C   C1591     1.0  0.40430  0.70234  0.74455  1.0000
  H   H1884     1.0  0.39374  0.49864  0.73221  1.0000
  C   C1592     1.0  0.36444  0.58741  0.55012  1.0000
  C   C1593     1.0  0.38383  0.58427  0.54106  1.0000
  C   C1594     1.0  0.38850  0.58649  0.52085  1.0000
  C   C1595     1.0  0.37381  0.59217  0.50962  1.0000
  C   C1596     1.0  0.35445  0.59598  0.51862  1.0000
  C   C1597     1.0  0.34977  0.59349  0.53884  1.0000
  H   H1885     1.0  0.39524  0.57995  0.54956  1.0000
  H   H1886     1.0  0.40350  0.58372  0.51393  1.0000
  H   H1887     1.0  0.34301  0.60013  0.51002  1.0000
  H   H1888     1.0  0.50868  0.69700  0.94539  1.0000
  C   C1598     1.0  0.36948  0.49887  0.88900  1.0000
  Fe  Fe226     1.0  0.35121  0.63551  0.70749  1.0000
  C   C1599     1.0  0.42500  0.60914  0.62430  1.0000
  C   C1600     1.0  0.40735  0.60962  0.63716  1.0000
  C   C1601     1.0  0.39956  0.62581  0.64623  1.0000
  C   C1602     1.0  0.40906  0.64180  0.64191  1.0000
  C   C1603     1.0  0.42663  0.64128  0.62897  1.0000
  C   C1604     1.0  0.43470  0.62491  0.62040  1.0000
  H   H1889     1.0  0.39990  0.59742  0.64040  1.0000
  H   H1890     1.0  0.38621  0.62592  0.65644  1.0000
  H   H1891     1.0  0.43410  0.65353  0.62562  1.0000
  H   H1892     1.0  0.44839  0.62456  0.61054  1.0000
  H   H1893     1.0  0.64574  0.69925  0.82876  1.0000
  C   C1605     1.0  0.38347  0.50135  0.87221  1.0000
  H   H1894     1.0  0.36126  0.50737  0.69626  1.0000
  H   H1895     1.0  0.54686  0.65313  0.94124  1.0000
  C   C1606     1.0  0.65041  0.69373  0.85820  1.0000
  C   C1607     1.0  0.37260  0.53439  0.55016  1.0000
  H   H1896     1.0  0.47081  0.52496  0.66131  1.0000
  C   C1608     1.0  0.40092  0.66958  0.78651  1.0000
  C   C1609     1.0  0.46637  0.57470  0.81892  1.0000
  C   C1610     1.0  0.48207  0.58476  0.81517  1.0000
  C   C1611     1.0  0.48505  0.59503  0.82883  1.0000
  C   C1612     1.0  0.47232  0.59534  0.84646  1.0000
  C   C1613     1.0  0.45649  0.58550  0.85012  1.0000
  C   C1614     1.0  0.45354  0.57522  0.83648  1.0000
  H   H1897     1.0  0.49208  0.58449  0.80164  1.0000
  H   H1898     1.0  0.49728  0.60253  0.82577  1.0000
  H   H1899     1.0  0.44658  0.58557  0.86372  1.0000
  H   H1900     1.0  0.44145  0.56752  0.83968  1.0000
  C   C1615     1.0  0.36477  0.58754  0.78162  1.0000
  C   C1616     1.0  0.36837  0.57353  0.76976  1.0000
  C   C1617     1.0  0.36393  0.57852  0.75105  1.0000
  C   C1618     1.0  0.35682  0.59773  0.74372  1.0000
  C   C1619     1.0  0.64898  0.61177  0.92707  1.0000
  C   C1620     1.0  0.34159  0.65376  0.61612  1.0000
  H   H1901     1.0  0.37433  0.55875  0.77510  1.0000
  H   H1902     1.0  0.36631  0.56748  0.74220  1.0000
  C   C1621     1.0  0.50875  0.69980  0.81090  1.0000
  C   C1622     1.0  0.37272  0.50802  0.66595  1.0000
  H   H1903     1.0  0.38415  0.50393  0.63663  1.0000
  H   H1904     1.0  0.49833  0.69638  0.78600  1.0000
  C   C1623     1.0  0.39257  0.52015  0.52313  1.0000
  N   N107      1.0  0.42222  0.61567  0.79058  1.0000
  H   H1905     1.0  0.34805  0.56038  0.62222  1.0000
  H   H1906     1.0  0.42222  0.69202  0.65482  1.0000
  C   C1624     1.0  0.40020  0.69196  0.68991  1.0000
  C   C1625     1.0  0.40845  0.63419  0.78974  1.0000
  C   C1626     1.0  0.41423  0.65230  0.78847  1.0000
  C   C1627     1.0  0.33226  0.56223  0.62211  1.0000
  H   H1907     1.0  0.40168  0.59925  0.81012  1.0000
  C   C1628     1.0  0.42392  0.70281  0.66330  1.0000
  H   H1908     1.0  0.33471  0.59578  0.54571  1.0000
  Fe  Fe227     1.0  0.61120  0.72724  0.84647  1.0000
  N   N108      1.0  0.40547  0.70915  0.67607  1.0000
  S   S449      1.0  0.37979  0.59296  0.48455  1.0000
  C   C1629     1.0  0.41649  0.60250  0.80877  1.0000
  C   C1630     1.0  0.39833  0.50157  0.51767  1.0000
  H   H1909     1.0  0.42896  0.65357  0.78865  1.0000
  N   N109      1.0  0.40178  0.55937  0.69647  1.0000
  C   C1631     1.0  0.39062  0.57429  0.68340  1.0000
  C   C1632     1.0  0.38911  0.54498  0.70622  1.0000
  C   C1633     1.0  0.40599  0.56893  0.71124  1.0000
  C   C1634     1.0  0.42031  0.54970  0.68635  1.0000
  C   C1635     1.0  0.43188  0.53402  0.69654  1.0000
  C   C1636     1.0  0.42792  0.55608  0.66664  1.0000
  C   C1637     1.0  0.44980  0.52513  0.68753  1.0000
  C   C1638     1.0  0.44594  0.54721  0.65783  1.0000
  C   C1639     1.0  0.45684  0.53175  0.66822  1.0000
  H   H1910     1.0  0.38721  0.56798  0.67179  1.0000
  H   H1911     1.0  0.37652  0.58087  0.69133  1.0000
  H   H1912     1.0  0.39854  0.58651  0.67682  1.0000
  H   H1913     1.0  0.38707  0.53625  0.69585  1.0000
  H   H1914     1.0  0.37447  0.55202  0.71263  1.0000
  H   H1915     1.0  0.39500  0.53483  0.71839  1.0000
  H   H1916     1.0  0.41664  0.57879  0.70471  1.0000
  H   H1917     1.0  0.39271  0.57780  0.71813  1.0000
  H   H1918     1.0  0.41204  0.55831  0.72309  1.0000
  H   H1919     1.0  0.42730  0.52871  0.71170  1.0000
  H   H1920     1.0  0.42040  0.56803  0.65768  1.0000
  H   H1921     1.0  0.45835  0.51322  0.69570  1.0000
  H   H1922     1.0  0.45148  0.55253  0.64282  1.0000
  H   H1923     1.0  0.41625  0.48555  0.68145  1.0000
  H   H1924     1.0  0.49619  0.67754  0.94557  1.0000
  H   H1925     1.0  0.38385  0.55059  0.51123  1.0000
  C   C1640     1.0  0.40704  0.53482  0.54276  1.0000
  C   C1641     1.0  0.42452  0.72967  0.68761  1.0000
  H   H1926     1.0  0.50418  0.72389  0.85946  1.0000
  H   H1927     1.0  0.64464  0.59870  0.92428  1.0000
  H   H1928     1.0  0.38561  0.69511  0.69888  1.0000
  H   H1929     1.0  0.62770  0.63780  0.90574  1.0000
  C   C1642     1.0  0.53387  0.70067  0.90050  1.0000
  C   C1643     1.0  0.39397  0.51491  0.48466  1.0000
  C   C1644     1.0  0.38163  0.66937  0.78587  1.0000
  C   C1645     1.0  0.53857  0.68829  0.91766  1.0000
  C   C1646     1.0  0.53282  0.66241  0.94592  1.0000
  H   H1930     1.0  0.37150  0.68284  0.78386  1.0000
  C   C1647     1.0  0.60715  0.67572  0.84014  1.0000
  H   H1931     1.0  0.42185  0.52659  0.53863  1.0000
  H   H1932     1.0  0.35114  0.49657  0.81897  1.0000
  C   C1648     1.0  0.39524  0.50536  0.55718  1.0000
  H   H1933     1.0  0.45294  0.50705  0.63030  1.0000
  H   H1934     1.0  0.40563  0.68331  0.78504  1.0000
  C   C1649     1.0  0.37052  0.70449  0.74155  1.0000
  H   H1935     1.0  0.63722  0.61833  0.89234  1.0000
  H   H1936     1.0  0.38314  0.62127  0.79078  1.0000
  H   H1937     1.0  0.52060  0.70072  0.89548  1.0000
  H   H1938     1.0  0.36691  0.63758  0.62726  1.0000
  C   C1650     1.0  0.44263  0.61784  0.78973  1.0000
  H   H1939     1.0  0.39374  0.68271  0.73155  1.0000
  C   C1651     1.0  0.35670  0.60658  0.77465  1.0000
  C   C1652     1.0  0.33101  0.65761  0.60098  1.0000
  C   C1653     1.0  0.35458  0.63392  0.58497  1.0000
  H   H1940     1.0  0.33155  0.62171  0.56542  1.0000
  C   C1654     1.0  0.36508  0.63025  0.60015  1.0000
  C   C1655     1.0  0.56860  0.70180  0.91192  1.0000
  C   C1656     1.0  0.35862  0.64022  0.61565  1.0000
  C   C1657     1.0  0.37992  0.72666  0.75851  1.0000
  H   H1941     1.0  0.64257  0.63904  0.82682  1.0000
  C   C1658     1.0  0.52144  0.66264  0.91674  1.0000
  H   H1942     1.0  0.41093  0.68637  0.69982  1.0000
  H   H1943     1.0  0.34266  0.59718  0.61314  1.0000
  C   C1659     1.0  0.33374  0.59474  0.65373  1.0000
  H   H1944     1.0  0.40567  0.54859  0.53246  1.0000
  H   H1945     1.0  0.42632  0.58826  0.80956  1.0000
  C   C1660     1.0  0.65579  0.69275  0.83854  1.0000
  H   H1946     1.0  0.36015  0.62571  0.57333  1.0000
  H   H1947     1.0  0.41684  0.60869  0.82165  1.0000
  H   H1948     1.0  0.37843  0.61977  0.59981  1.0000
  H   H1949     1.0  0.59882  0.66995  0.80771  1.0000
  N   N110      1.0  0.39188  0.52344  0.54299  1.0000
  H   H1950     1.0  0.35334  0.61736  0.78392  1.0000
  H   H1951     1.0  0.34739  0.62659  0.75008  1.0000
  H   H1952     1.0  0.65960  0.68622  0.88592  1.0000
  H   H1953     1.0  0.60914  0.67311  0.85549  1.0000
  C   C1661     1.0  0.64104  0.63060  0.89724  1.0000
  H   H1954     1.0  0.58231  0.70196  0.91614  1.0000
  H   H1955     1.0  0.65958  0.60718  0.93721  1.0000
  C   C1662     1.0  0.55628  0.68940  0.92317  1.0000
  H   H1956     1.0  0.51705  0.70622  0.83517  1.0000
  C   C1663     1.0  0.40669  0.72406  0.68710  1.0000
  H   H1957     1.0  0.45262  0.60371  0.78985  1.0000
  H   H1958     1.0  0.34642  0.66992  0.55046  1.0000
  C   C1664     1.0  0.43232  0.71630  0.87978  1.0000
  C   C1665     1.0  0.38858  0.63452  0.78958  1.0000
  H   H1959     1.0  0.35910  0.49014  0.79581  1.0000
  H   H1960     1.0  0.49902  0.69560  0.92457  1.0000
  C   C1666     1.0  0.56360  0.71364  0.89512  1.0000
  N   N111      1.0  0.52520  0.67522  0.92911  1.0000
  H   H1961     1.0  0.53496  0.67080  0.95652  1.0000
  H   H1962     1.0  0.41018  0.49708  0.55375  1.0000
  H   H1963     1.0  0.61404  0.68847  0.83284  1.0000
  C   C1667     1.0  0.33988  0.65728  0.54991  1.0000
  C   C1668     1.0  0.39037  0.71646  0.66367  1.0000
  H   H1964     1.0  0.64484  0.64157  0.88440  1.0000
  C   C1669     1.0  0.32855  0.56247  0.68231  1.0000
  H   H1965     1.0  0.42905  0.61336  0.48537  1.0000
  H   H1966     1.0  0.39417  0.50840  0.57202  1.0000
  H   H1967     1.0  0.33045  0.56286  0.60693  1.0000
  H   H1968     1.0  0.51306  0.65127  0.92515  1.0000
  H   H1969     1.0  0.43560  0.69549  0.67175  1.0000
  H   H1970     1.0  0.43313  0.59313  0.77328  1.0000
  H   H1971     1.0  0.33613  0.60764  0.64343  1.0000
  C   C1670     1.0  0.50648  0.68687  0.93650  1.0000
  H   H1972     1.0  0.44803  0.62726  0.77617  1.0000
  H   H1973     1.0  0.41929  0.69541  0.74164  1.0000
  C   C1671     1.0  0.44842  0.49487  0.64066  1.0000
  H   H1974     1.0  0.36071  0.52675  0.54964  1.0000
  H   H1975     1.0  0.45162  0.70785  0.90058  1.0000
  H   H1976     1.0  0.33208  0.66133  0.53733  1.0000
  C   C1672     1.0  0.43398  0.49783  0.65662  1.0000
  C   C1673     1.0  0.39892  0.49909  0.49869  1.0000
  H   H1977     1.0  0.38498  0.51571  0.86444  1.0000
  C   C1674     1.0  0.38793  0.53596  0.50837  1.0000
  S   S450      1.0  0.34507  0.68495  0.48877  1.0000
  S   S451      1.0  0.40761  0.72711  0.85376  1.0000
  N   N112      1.0  0.65685  0.62379  0.90884  1.0000
  H   H1978     1.0  0.64967  0.64880  0.92297  1.0000
  S   S452      1.0  0.35070  0.64331  0.67565  1.0000
  H   H1979     1.0  0.42003  0.72167  0.89003  1.0000
  C   C1675     1.0  0.41006  0.49162  0.75560  1.0000
  C   C1676     1.0  0.39944  0.71814  0.75450  1.0000
  N   N113      1.0  0.61545  0.65868  0.83057  1.0000
  C   C1677     1.0  0.33801  0.59379  0.67212  1.0000
  H   H1980     1.0  0.39537  0.48654  0.95559  1.0000
  H   H1981     1.0  0.35064  0.72704  0.75465  1.0000
  C   C1678     1.0  0.60502  0.64255  0.84027  1.0000
  C   C1679     1.0  0.60599  0.63440  0.85988  1.0000
  C   C1680     1.0  0.59337  0.63480  0.83094  1.0000
  C   C1681     1.0  0.59623  0.61921  0.86940  1.0000
  C   C1682     1.0  0.58342  0.61984  0.84072  1.0000
  C   C1683     1.0  0.58482  0.61207  0.85990  1.0000
  H   H1982     1.0  0.52276  0.65237  0.95392  1.0000
  S   S453      1.0  0.58238  0.72401  0.84110  1.0000
  H   H1983     1.0  0.62199  0.67680  0.80276  1.0000
  H   H1984     1.0  0.51299  0.67077  0.90546  1.0000
  H   H1985     1.0  0.63579  0.61984  0.93502  1.0000
  H   H1986     1.0  0.44434  0.62362  0.80242  1.0000
  H   H1987     1.0  0.42440  0.61634  0.76006  1.0000
  S   S454      1.0  0.35283  0.60383  0.71968  1.0000
  H   H1988     1.0  0.37557  0.71954  0.67217  1.0000
  H   H1989     1.0  0.61400  0.63997  0.86808  1.0000
  H   H1990     1.0  0.59138  0.64017  0.81616  1.0000
  H   H1991     1.0  0.59702  0.61319  0.88442  1.0000
  H   H1992     1.0  0.57430  0.61446  0.83338  1.0000
  H   H1993     1.0  0.35188  0.64532  0.54635  1.0000
  C   C1684     1.0  0.63637  0.65302  0.83196  1.0000
  S   S455      1.0  0.41399  0.51560  0.75365  1.0000
  H   H1994     1.0  0.43813  0.72387  0.67941  1.0000
  C   C1685     1.0  0.35319  0.61179  0.75555  1.0000
  H   H1995     1.0  0.36965  0.54913  0.54169  1.0000
  C   C1686     1.0  0.37849  0.49721  0.65098  1.0000
  C   C1687     1.0  0.61408  0.66463  0.80975  1.0000
  C   C1688     1.0  0.38989  0.69530  0.73848  1.0000
  H   H1996     1.0  0.40770  0.60159  0.77506  1.0000
  C   C1689     1.0  0.49838  0.70610  0.79572  1.0000
  H   H1997     1.0  0.62018  0.65251  0.80157  1.0000
  C   C1690     1.0  0.39966  0.48724  0.74287  1.0000
  H   H1998     1.0  0.36042  0.65173  0.78691  1.0000
  C   C1691     1.0  0.49852  0.73147  0.82134  1.0000
  H   H1999     1.0  0.33664  0.66152  0.62823  1.0000
  N   N114      1.0  0.42877  0.65718  0.85560  1.0000
  C   C1692     1.0  0.44378  0.65600  0.86753  1.0000
  C   C1693     1.0  0.41017  0.66693  0.86571  1.0000
  C   C1694     1.0  0.42640  0.63730  0.85488  1.0000
  C   C1695     1.0  0.43481  0.66723  0.83572  1.0000
  C   C1696     1.0  0.45256  0.65998  0.82436  1.0000
  C   C1697     1.0  0.42330  0.68404  0.82691  1.0000
  C   C1698     1.0  0.45856  0.66918  0.80554  1.0000
  C   C1699     1.0  0.42938  0.69301  0.80804  1.0000
  C   C1700     1.0  0.44697  0.68568  0.79740  1.0000
  H   H2000     1.0  0.43988  0.64814  0.88246  1.0000
  H   H2001     1.0  0.45811  0.64813  0.86161  1.0000
  H   H2002     1.0  0.44582  0.67061  0.86869  1.0000
  H   H2003     1.0  0.41109  0.68196  0.86694  1.0000
  H   H2004     1.0  0.40622  0.65922  0.88070  1.0000
  H   H2005     1.0  0.39790  0.66753  0.85813  1.0000
  H   H2006     1.0  0.44021  0.62853  0.84889  1.0000
  H   H2007     1.0  0.42171  0.62924  0.86955  1.0000
  H   H2008     1.0  0.41549  0.63749  0.84578  1.0000
  H   H2009     1.0  0.46200  0.64714  0.83001  1.0000
  H   H2010     1.0  0.40970  0.69086  0.83436  1.0000
  H   H2011     1.0  0.47231  0.66349  0.79729  1.0000
  H   H2012     1.0  0.42043  0.70591  0.80167  1.0000
  H   H2013     1.0  0.45154  0.69289  0.78281  1.0000
  C   C1701     1.0  0.36570  0.49907  0.68461  1.0000
  H   H2014     1.0  0.57679  0.60069  0.86755  1.0000
  H   H2015     1.0  0.59127  0.67990  0.83994  1.0000
  H   H2016     1.0  0.38446  0.49592  0.55799  1.0000
  H   H2017     1.0  0.37136  0.53657  0.56532  1.0000
  H   H2018     1.0  0.57327  0.72316  0.88644  1.0000
  C   C1702     1.0  0.36561  0.71997  0.75192  1.0000
  H   H2019     1.0  0.39977  0.68000  0.68246  1.0000
  H   H2020     1.0  0.41382  0.49155  0.61382  1.0000
  S   S456      1.0  0.41821  0.72698  0.76121  1.0000
  H   H2021     1.0  0.51668  0.68513  0.81287  1.0000
  H   H2022     1.0  0.64499  0.66395  0.82302  1.0000
  H   H2023     1.0  0.33875  0.57714  0.70058  1.0000
  C   C1703     1.0  0.33542  0.57773  0.68636  1.0000
  H   H2024     1.0  0.34336  0.60556  0.67548  1.0000
  H   H2025     1.0  0.42717  0.51237  0.65874  1.0000
  C   C1704     1.0  0.43612  0.48692  0.58918  1.0000
  H   H2026     1.0  0.42890  0.71517  0.65267  1.0000
  H   H2027     1.0  0.52536  0.73238  0.84414  1.0000
  C   C1705     1.0  0.38854  0.53332  0.48949  1.0000
  H   H2028     1.0  0.54239  0.72248  0.87641  1.0000
  Fe  Fe228     1.0  0.59340  0.73523  0.81015  1.0000
  C   C1706     1.0  0.48808  0.72486  0.79310  1.0000
  S   S457      1.0  0.41444  0.48781  0.84578  1.0000
  H   H2029     1.0  0.40252  0.48873  0.52775  1.0000
  C   C1707     1.0  0.33734  0.64792  0.58476  1.0000
  S   S458      1.0  0.62264  0.60855  0.97794  1.0000
  H   H2030     1.0  0.43843  0.57762  0.48534  1.0000
  H   H2031     1.0  0.47985  0.72973  0.78136  1.0000
  H   H2032     1.0  0.37591  0.72831  0.69999  1.0000
  H   H2033     1.0  0.65244  0.73379  0.85055  1.0000
  H   H2034     1.0  0.39333  0.72996  0.65366  1.0000
  Fe  Fe229     1.0  0.32907  0.66910  0.68301  1.0000
  S   S459      1.0  0.32767  0.66016  0.71524  1.0000
  C   C1708     1.0  0.38985  0.73249  0.69888  1.0000
  H   H2035     1.0  0.32728  0.54883  0.63051  1.0000
  H   H2036     1.0  0.33060  0.71531  0.51063  1.0000
  H   H2037     1.0  0.35092  0.48607  0.85003  1.0000
  C   C1709     1.0  0.32686  0.59680  0.61544  1.0000
  H   H2038     1.0  0.32690  0.54982  0.69332  1.0000
  N   N115      1.0  0.32672  0.65181  0.56829  1.0000
  H   H2039     1.0  0.54214  0.87408  0.46827  1.0000
  S   S460      1.0  0.57035  0.78810  0.31301  1.0000
  H   H2040     1.0  0.52006  0.91847  0.42452  1.0000
  Fe  Fe230     1.0  0.53094  0.87129  0.36768  1.0000
  S   S461      1.0  0.51978  0.85192  0.39440  1.0000
  S   S462      1.0  0.56109  0.86168  0.35206  1.0000
  Fe  Fe231     1.0  0.49565  0.90254  0.37364  1.0000
  S   S463      1.0  0.48193  0.88539  0.40105  1.0000
  S   S464      1.0  0.48328  0.93341  0.36277  1.0000
  Fe  Fe232     1.0  0.51213  0.87852  0.40835  1.0000
  S   S465      1.0  0.52127  0.87686  0.43738  1.0000
  Fe  Fe233     1.0  0.49093  0.86075  0.38418  1.0000
  S   S466      1.0  0.47442  0.83679  0.38403  1.0000
  S   S467      1.0  0.52507  0.89730  0.38213  1.0000
  S   S468      1.0  0.50284  0.87846  0.35628  1.0000
  Fe  Fe234     1.0  0.40537  0.77719  0.33446  1.0000
  S   S469      1.0  0.38177  0.79592  0.35157  1.0000
  Fe  Fe235     1.0  0.40054  0.80418  0.29676  1.0000
  S   S470      1.0  0.37645  0.82460  0.31086  1.0000
  S   S471      1.0  0.41193  0.80810  0.26490  1.0000
  Fe  Fe236     1.0  0.39548  0.82064  0.33337  1.0000
  S   S472      1.0  0.40071  0.84713  0.34316  1.0000
  Fe  Fe237     1.0  0.36541  0.79765  0.32748  1.0000
  S   S473      1.0  0.42038  0.80167  0.31808  1.0000
  S   S474      1.0  0.38828  0.77752  0.31155  1.0000
  C   C1710     1.0  0.34287  0.92775  0.33933  1.0000
  S   S475      1.0  0.35381  0.92264  0.21424  1.0000
  H   H2041     1.0  0.52326  0.73836  0.31472  1.0000
  H   H2042     1.0  0.60261  0.83106  0.24278  1.0000
  Fe  Fe238     1.0  0.35074  0.89425  0.20783  1.0000
  S   S476      1.0  0.37677  0.87194  0.20043  1.0000
  H   H2043     1.0  0.52250  0.74739  0.38417  1.0000
  H   H2044     1.0  0.33899  0.84938  0.33018  1.0000
  S   S477      1.0  0.33362  0.79444  0.33335  1.0000
  C   C1711     1.0  0.59349  0.92075  0.43846  1.0000
  C   C1712     1.0  0.49798  0.75441  0.35755  1.0000
  H   H2045     1.0  0.57274  0.74299  0.28550  1.0000
  C   C1713     1.0  0.38796  0.96469  0.08742  1.0000
  C   C1714     1.0  0.35819  0.88885  0.34986  1.0000
  C   C1715     1.0  0.63001  0.81443  0.23380  1.0000
  C   C1716     1.0  0.33305  0.74526  0.31347  1.0000
  H   H2046     1.0  0.45306  0.94771  0.39607  1.0000
  H   H2047     1.0  0.62899  0.90052  0.46368  1.0000
  H   H2048     1.0  0.37307  0.96168  0.21751  1.0000
  C   C1717     1.0  0.57826  0.91702  0.40312  1.0000
  H   H2049     1.0  0.42664  0.97465  0.33907  1.0000
  S   S478      1.0  0.41780  0.74929  0.35170  1.0000
  C   C1718     1.0  0.36075  0.92684  0.09780  1.0000
  H   H2050     1.0  0.59359  0.89361  0.36459  1.0000
  C   C1719     1.0  0.34612  0.82476  0.23301  1.0000
  H   H2051     1.0  0.39507  0.97098  0.21384  1.0000
  H   H2052     1.0  0.53327  0.78107  0.33869  1.0000
  H   H2053     1.0  0.50165  0.80031  0.38121  1.0000
  H   H2054     1.0  0.36705  0.78685  0.24147  1.0000
  H   H2055     1.0  0.63500  0.88222  0.43673  1.0000
  H   H2056     1.0  0.38689  0.97196  0.07235  1.0000
  C   C1720     1.0  0.36784  0.96333  0.16816  1.0000
  H   H2057     1.0  0.36922  0.94971  0.17797  1.0000
  H   H2058     1.0  0.37200  0.73844  0.40858  1.0000
  H   H2059     1.0  0.48106  0.91378  0.42979  1.0000
  C   C1721     1.0  0.40172  0.82678  0.24798  1.0000
  C   C1722     1.0  0.40997  0.82719  0.22852  1.0000
  C   C1723     1.0  0.40214  0.84116  0.21425  1.0000
  C   C1724     1.0  0.38591  0.85493  0.21923  1.0000
  C   C1725     1.0  0.37748  0.85463  0.23876  1.0000
  C   C1726     1.0  0.38542  0.84054  0.25318  1.0000
  H   H2060     1.0  0.42249  0.81656  0.22439  1.0000
  H   H2061     1.0  0.40870  0.84127  0.19923  1.0000
  H   H2062     1.0  0.36488  0.86519  0.24271  1.0000
  H   H2063     1.0  0.37894  0.84032  0.26818  1.0000
  C   C1727     1.0  0.45991  0.93758  0.35696  1.0000
  C   C1728     1.0  0.45159  0.95638  0.34957  1.0000
  C   C1729     1.0  0.43284  0.96015  0.34500  1.0000
  C   C1730     1.0  0.42231  0.94512  0.34792  1.0000
  C   C1731     1.0  0.43058  0.92632  0.35549  1.0000
  C   C1732     1.0  0.44936  0.92254  0.35998  1.0000
  H   H2064     1.0  0.45972  0.96805  0.34721  1.0000
  C   C1733     1.0  0.37938  0.97520  0.21283  1.0000
  H   H2065     1.0  0.42243  0.91466  0.35810  1.0000
  H   H2066     1.0  0.45565  0.90801  0.36583  1.0000
  C   C1734     1.0  0.53021  0.89461  0.44548  1.0000
  C   C1735     1.0  0.52731  0.91407  0.43691  1.0000
  H   H2067     1.0  0.32975  0.91907  0.31939  1.0000
  C   C1736     1.0  0.46074  0.96224  0.42575  1.0000
  C   C1737     1.0  0.53989  0.88909  0.46146  1.0000
  H   H2068     1.0  0.44049  0.75231  0.31265  1.0000
  C   C1738     1.0  0.38768  0.73955  0.40568  1.0000
  C   C1739     1.0  0.45348  0.84023  0.37321  1.0000
  C   C1740     1.0  0.44356  0.85862  0.36676  1.0000
  C   C1741     1.0  0.42698  0.86057  0.35826  1.0000
  C   C1742     1.0  0.42071  0.84424  0.35528  1.0000
  C   C1743     1.0  0.43051  0.82589  0.36193  1.0000
  C   C1744     1.0  0.44654  0.82393  0.37119  1.0000
  H   H2069     1.0  0.44849  0.87129  0.36863  1.0000
  H   H2070     1.0  0.41909  0.87480  0.35392  1.0000
  H   H2071     1.0  0.42556  0.81318  0.36020  1.0000
  H   H2072     1.0  0.45361  0.80968  0.37682  1.0000
  C   C1745     1.0  0.56758  0.80806  0.32467  1.0000
  C   C1746     1.0  0.58375  0.81331  0.32909  1.0000
  C   C1747     1.0  0.58159  0.82970  0.33764  1.0000
  C   C1748     1.0  0.56323  0.84077  0.34211  1.0000
  C   C1749     1.0  0.54698  0.83539  0.33800  1.0000
  C   C1750     1.0  0.54920  0.81920  0.32904  1.0000
  H   H2073     1.0  0.59801  0.80501  0.32554  1.0000
  H   H2074     1.0  0.59419  0.83379  0.34082  1.0000
  H   H2075     1.0  0.53276  0.84398  0.34128  1.0000
  H   H2076     1.0  0.53670  0.81549  0.32528  1.0000
  N   N116      1.0  0.36921  0.95957  0.09839  1.0000
  H   H2077     1.0  0.49815  0.95105  0.41192  1.0000
  S   S479      1.0  0.55188  0.94020  0.46890  1.0000
  H   H2078     1.0  0.49512  0.93201  0.40048  1.0000
  C   C1751     1.0  0.36288  0.94607  0.08881  1.0000
  C   C1752     1.0  0.48237  0.75138  0.35021  1.0000
  H   H2079     1.0  0.54992  0.74926  0.27710  1.0000
  H   H2080     1.0  0.59713  0.73759  0.35479  1.0000
  S   S480      1.0  0.36147  0.93556  0.99395  1.0000
  H   H2081     1.0  0.35826  0.94805  0.12802  1.0000
  H   H2082     1.0  0.61681  0.95165  0.40366  1.0000
  S   S481      1.0  0.39904  0.94938  0.34173  1.0000
  H   H2083     1.0  0.61384  0.94967  0.42945  1.0000
  C   C1753     1.0  0.38437  0.97164  0.15946  1.0000
  H   H2084     1.0  0.57947  0.91548  0.44169  1.0000
  H   H2085     1.0  0.35531  0.93107  0.29265  1.0000
  C   C1754     1.0  0.59674  0.86540  0.41803  1.0000
  C   C1755     1.0  0.65736  0.89759  0.41976  1.0000
  C   C1756     1.0  0.48776  0.94589  0.40537  1.0000
  H   H2086     1.0  0.34786  0.91078  0.06145  1.0000
  C   C1757     1.0  0.61491  0.85881  0.40762  1.0000
  C   C1758     1.0  0.51508  0.79609  0.37085  1.0000
  H   H2087     1.0  0.35816  0.93318  0.36002  1.0000
  C   C1759     1.0  0.33652  0.83981  0.22084  1.0000
  H   H2088     1.0  0.39327  0.97488  0.09414  1.0000
  C   C1760     1.0  0.65514  0.81243  0.25228  1.0000
  H   H2089     1.0  0.38690  0.97677  0.24682  1.0000
  H   H2090     1.0  0.62684  0.92988  0.41839  1.0000
  H   H2091     1.0  0.61748  0.86862  0.26129  1.0000
  C   C1761     1.0  0.34544  0.80637  0.28143  1.0000
  S   S482      1.0  0.32855  0.96311  0.17456  1.0000
  H   H2092     1.0  0.59343  0.87117  0.27545  1.0000
  S   S483      1.0  0.62474  0.78358  0.28646  1.0000
  C   C1762     1.0  0.36218  0.90287  0.35877  1.0000
  C   C1763     1.0  0.65062  0.83307  0.39526  1.0000
  C   C1764     1.0  0.33368  0.97818  0.28484  1.0000
  C   C1765     1.0  0.34615  0.89387  0.33548  1.0000
  H   H2093     1.0  0.56795  0.84943  0.39478  1.0000
  C   C1766     1.0  0.57972  0.95075  0.42040  1.0000
  H   H2094     1.0  0.35278  0.81918  0.27826  1.0000
  H   H2095     1.0  0.62615  0.92176  0.39038  1.0000
  H   H2096     1.0  0.59398  0.92789  0.45070  1.0000
  H   H2097     1.0  0.62808  0.84944  0.29099  1.0000
  C   C1767     1.0  0.35876  0.87798  0.30796  1.0000
  H   H2098     1.0  0.62740  0.86272  0.41116  1.0000
  H   H2099     1.0  0.62438  0.90380  0.36598  1.0000
  C   C1768     1.0  0.53446  0.77185  0.35303  1.0000
  C   C1769     1.0  0.34587  0.96163  0.29216  1.0000
  H   H2100     1.0  0.35703  0.86744  0.29927  1.0000
  C   C1770     1.0  0.61219  0.91819  0.39039  1.0000
  H   H2101     1.0  0.37153  0.89868  0.36961  1.0000
  H   H2102     1.0  0.35410  0.76302  0.31273  1.0000
  C   C1771     1.0  0.49982  0.77319  0.35969  1.0000
  H   H2103     1.0  0.58024  0.96057  0.40622  1.0000
  C   C1772     1.0  0.48544  0.78876  0.35339  1.0000
  N   N117      1.0  0.59585  0.93400  0.41975  1.0000
  C   C1773     1.0  0.46999  0.78556  0.34594  1.0000
  C   C1774     1.0  0.34623  0.94388  0.28658  1.0000
  H   H2104     1.0  0.35481  0.96246  0.30235  1.0000
  H   H2105     1.0  0.60492  0.90773  0.43847  1.0000
  S   S484      1.0  0.64509  0.93293  0.46857  1.0000
  Fe  Fe239     1.0  0.32902  0.91749  0.23842  1.0000
  C   C1775     1.0  0.53345  0.92789  0.44465  1.0000
  H   H2106     1.0  0.39034  0.74832  0.39096  1.0000
  C   C1776     1.0  0.61679  0.84767  0.39286  1.0000
  H   H2107     1.0  0.48566  0.80359  0.35415  1.0000
  H   H2108     1.0  0.53737  0.75658  0.35084  1.0000
  H   H2109     1.0  0.37527  0.80302  0.25308  1.0000
  N   N118      1.0  0.41677  0.90326  0.30654  1.0000
  C   C1777     1.0  0.42309  0.92242  0.30141  1.0000
  C   C1778     1.0  0.40105  0.90361  0.32354  1.0000
  C   C1779     1.0  0.43361  0.88875  0.31219  1.0000
  C   C1780     1.0  0.40922  0.89891  0.29044  1.0000
  C   C1781     1.0  0.41375  0.88034  0.28486  1.0000
  C   C1782     1.0  0.39580  0.91300  0.28073  1.0000
  C   C1783     1.0  0.40592  0.87652  0.26998  1.0000
  C   C1784     1.0  0.38801  0.90900  0.26591  1.0000
  C   C1785     1.0  0.39315  0.89084  0.26047  1.0000
  H   H2110     1.0  0.43059  0.92502  0.31259  1.0000
  H   H2111     1.0  0.43326  0.92367  0.28739  1.0000
  H   H2112     1.0  0.41074  0.93466  0.30065  1.0000
  H   H2113     1.0  0.38815  0.91465  0.32048  1.0000
  H   H2114     1.0  0.40578  0.90723  0.33600  1.0000
  H   H2115     1.0  0.39628  0.88931  0.32828  1.0000
  H   H2116     1.0  0.44558  0.88717  0.29966  1.0000
  H   H2117     1.0  0.43963  0.89279  0.32368  1.0000
  H   H2118     1.0  0.42953  0.87432  0.31842  1.0000
  H   H2119     1.0  0.42322  0.86841  0.29183  1.0000
  H   H2120     1.0  0.39094  0.92714  0.28474  1.0000
  H   H2121     1.0  0.40972  0.86230  0.26583  1.0000
  H   H2122     1.0  0.37765  0.91990  0.25876  1.0000
  H   H2123     1.0  0.38708  0.88782  0.24895  1.0000
  H   H2124     1.0  0.46244  0.95328  0.45664  1.0000
  H   H2125     1.0  0.45912  0.79762  0.34129  1.0000
  H   H2126     1.0  0.52756  0.79773  0.37710  1.0000
  N   N119      1.0  0.63614  0.84053  0.38210  1.0000
  C   C1786     1.0  0.63972  0.90397  0.45120  1.0000
  H   H2127     1.0  0.51510  0.80689  0.35732  1.0000
  H   H2128     1.0  0.36166  0.82123  0.22874  1.0000
  C   C1787     1.0  0.36595  0.79187  0.25541  1.0000
  C   C1788     1.0  0.33581  0.81503  0.25010  1.0000
  H   H2129     1.0  0.53074  0.94296  0.43818  1.0000
  H   H2130     1.0  0.60495  0.74121  0.25639  1.0000
  C   C1789     1.0  0.33495  0.78253  0.26839  1.0000
  H   H2131     1.0  0.50490  0.76461  0.39647  1.0000
  H   H2132     1.0  0.45414  0.75216  0.38872  1.0000
  H   H2133     1.0  0.33248  0.77830  0.25512  1.0000
  H   H2134     1.0  0.34598  0.97625  0.20513  1.0000
  Fe  Fe240     1.0  0.34141  0.91372  0.00314  1.0000
  C   C1790     1.0  0.62263  0.83052  0.26224  1.0000
  H   H2135     1.0  0.55201  0.75598  0.29904  1.0000
  Fe  Fe241     1.0  0.63457  0.75287  0.28160  1.0000
  H   H2136     1.0  0.39851  0.96438  0.16256  1.0000
  H   H2137     1.0  0.56434  0.90175  0.38846  1.0000
  Fe  Fe242     1.0  0.33092  0.93532  0.19588  1.0000
  H   H2138     1.0  0.59566  0.87360  0.42944  1.0000
  C   C1791     1.0  0.65004  0.91881  0.45018  1.0000
  C   C1792     1.0  0.51863  0.76285  0.38584  1.0000
  H   H2139     1.0  0.35880  0.89217  0.29813  1.0000
  C   C1793     1.0  0.59547  0.92343  0.40416  1.0000
  N   N120      1.0  0.51661  0.77609  0.36726  1.0000
  C   C1794     1.0  0.57763  0.90661  0.38886  1.0000
  H   H2140     1.0  0.62528  0.81056  0.22189  1.0000
  H   H2141     1.0  0.56524  0.94634  0.42443  1.0000
  H   H2142     1.0  0.36337  0.92101  0.11232  1.0000
  H   H2143     1.0  0.56521  0.91964  0.41359  1.0000
  C   C1795     1.0  0.33933  0.76087  0.31796  1.0000
  H   H2144     1.0  0.61960  0.82691  0.30138  1.0000
  C   C1796     1.0  0.61142  0.90766  0.37625  1.0000
  H   H2145     1.0  0.33995  0.97425  0.10589  1.0000
  N   N121      1.0  0.34307  0.87929  0.32495  1.0000
  H   H2146     1.0  0.46179  0.92337  0.40486  1.0000
  H   H2147     1.0  0.41961  0.75235  0.39403  1.0000
  C   C1797     1.0  0.64233  0.82397  0.26458  1.0000
  S   S485      1.0  0.60930  0.74276  0.30221  1.0000
  H   H2148     1.0  0.50863  0.74190  0.36146  1.0000
  H   H2149     1.0  0.44172  0.93648  0.41920  1.0000
  Fe  Fe243     1.0  0.64266  0.77629  0.31029  1.0000
  C   C1798     1.0  0.35902  0.95192  0.06966  1.0000
  N   N122      1.0  0.60838  0.84183  0.27565  1.0000
  H   H2150     1.0  0.34470  0.84719  0.20798  1.0000
  C   C1799     1.0  0.59002  0.83383  0.28138  1.0000
  C   C1800     1.0  0.61540  0.84192  0.29374  1.0000
  H   H2151     1.0  0.37693  0.96200  0.12521  1.0000
  Fe  Fe244     1.0  0.60132  0.77261  0.30929  1.0000
  C   C1801     1.0  0.54324  0.92235  0.46058  1.0000
  Fe  Fe245     1.0  0.38564  0.98068  0.33345  1.0000
  C   C1802     1.0  0.59416  0.90193  0.37544  1.0000
  H   H2152     1.0  0.60407  0.84958  0.30405  1.0000
  C   C1803     1.0  0.47447  0.92760  0.43520  1.0000
  H   H2153     1.0  0.59777  0.86313  0.25262  1.0000
  S   S486      1.0  0.33043  0.98284  0.01110  1.0000
  H   H2154     1.0  0.59292  0.81805  0.28698  1.0000
  H   H2155     1.0  0.58185  0.83595  0.26932  1.0000
  H   H2156     1.0  0.57977  0.84077  0.29295  1.0000
  C   C1804     1.0  0.33867  0.91383  0.33044  1.0000
  H   H2157     1.0  0.62799  0.82968  0.35932  1.0000
  N   N123      1.0  0.34548  0.79919  0.26347  1.0000
  C   C1805     1.0  0.60405  0.86208  0.26583  1.0000
  H   H2158     1.0  0.35420  0.89962  0.09491  1.0000
  S   S487      1.0  0.61845  0.76656  0.33332  1.0000
  H   H2159     1.0  0.36365  0.96938  0.25059  1.0000
  S   S488      1.0  0.33462  0.91977  0.26786  1.0000
  H   H2160     1.0  0.38344  0.93841  0.11940  1.0000
  H   H2161     1.0  0.37112  0.96561  0.01199  1.0000
  H   H2162     1.0  0.36507  0.87416  0.35420  1.0000
  C   C1806     1.0  0.55675  0.74419  0.29022  1.0000
  H   H2163     1.0  0.48515  0.95629  0.39200  1.0000
  C   C1807     1.0  0.64331  0.89344  0.43600  1.0000
  C   C1808     1.0  0.35372  0.93930  0.05997  1.0000
  C   C1809     1.0  0.61412  0.94164  0.41759  1.0000
  N   N124      1.0  0.46957  0.94359  0.41926  1.0000
  H   H2164     1.0  0.58014  0.95926  0.43164  1.0000
  H   H2165     1.0  0.53041  0.76556  0.39243  1.0000
  H   H2166     1.0  0.35832  0.85301  0.34004  1.0000
  C   C1810     1.0  0.45591  0.93759  0.40952  1.0000
  H   H2167     1.0  0.37270  0.77954  0.26545  1.0000
  H   H2168     1.0  0.54752  0.77451  0.35762  1.0000
  C   C1811     1.0  0.37200  0.95153  0.11861  1.0000
  H   H2169     1.0  0.45619  0.76466  0.33898  1.0000
  C   C1812     1.0  0.35191  0.92053  0.06909  1.0000
  C   C1813     1.0  0.59924  0.84491  0.38820  1.0000
  H   H2170     1.0  0.65458  0.84471  0.40102  1.0000
  C   C1814     1.0  0.35538  0.91433  0.08797  1.0000
  C   C1815     1.0  0.46837  0.76694  0.34453  1.0000
  S   S489      1.0  0.34225  0.89119  0.02987  1.0000
  H   H2171     1.0  0.39941  0.95163  0.08655  1.0000
  C   C1816     1.0  0.35457  0.97752  0.09883  1.0000
  H   H2172     1.0  0.62913  0.81279  0.38173  1.0000
  H   H2173     1.0  0.48538  0.93070  0.44270  1.0000
  C   C1817     1.0  0.61707  0.82597  0.24601  1.0000
  C   C1818     1.0  0.57989  0.86169  0.41366  1.0000
  H   H2174     1.0  0.35096  0.94410  0.04527  1.0000
  H   H2175     1.0  0.39003  0.74768  0.41641  1.0000
  H   H2176     1.0  0.33362  0.86056  0.35132  1.0000
  S   S490      1.0  0.32717  0.88819  0.23284  1.0000
  H   H2177     1.0  0.37331  0.87334  0.31236  1.0000
  H   H2178     1.0  0.36028  0.96630  0.06194  1.0000
  H   H2179     1.0  0.46136  0.92469  0.44599  1.0000
  H   H2180     1.0  0.37856  0.98057  0.19728  1.0000
  H   H2181     1.0  0.56579  0.86683  0.42172  1.0000
  H   H2182     1.0  0.65071  0.81799  0.36548  1.0000
  C   C1819     1.0  0.35465  0.92230  0.35342  1.0000
  C   C1820     1.0  0.54661  0.90281  0.46882  1.0000
  C   C1821     1.0  0.44566  0.73856  0.32103  1.0000
  H   H2183     1.0  0.35309  0.79517  0.29173  1.0000
  Fe  Fe246     1.0  0.33412  0.95731  0.99540  1.0000
  C   C1822     1.0  0.34962  0.97265  0.16396  1.0000
  C   C1823     1.0  0.45459  0.97865  0.41222  1.0000
  H   H2184     1.0  0.36965  0.74169  0.34180  1.0000
  C   C1824     1.0  0.33475  0.94260  0.27336  1.0000
  H   H2185     1.0  0.39676  0.97523  0.02482  1.0000
  C   C1825     1.0  0.45806  0.96481  0.44533  1.0000
  C   C1826     1.0  0.36760  0.97770  0.01959  1.0000
  S   S491      1.0  0.33058  0.90745  0.18661  1.0000
  H   H2186     1.0  0.34311  0.76960  0.27652  1.0000
  C   C1827     1.0  0.58114  0.85175  0.39857  1.0000
  H   H2187     1.0  0.48106  0.73689  0.34893  1.0000
  H   H2188     1.0  0.59902  0.83759  0.37654  1.0000
  C   C1828     1.0  0.63585  0.82461  0.37178  1.0000
  H   H2189     1.0  0.33048  0.81064  0.28923  1.0000
  H   H2190     1.0  0.45639  0.97787  0.39704  1.0000
  C   C1829     1.0  0.38207  0.98311  0.02704  1.0000
  H   H2191     1.0  0.63257  0.86269  0.35735  1.0000
  H   H2192     1.0  0.64811  0.82691  0.27623  1.0000
  H   H2193     1.0  0.56236  0.73778  0.36759  1.0000
  C   C1830     1.0  0.64285  0.85674  0.36768  1.0000
  H   H2194     1.0  0.64411  0.86878  0.37472  1.0000
  H   H2195     1.0  0.64514  0.82237  0.40768  1.0000
  C   C1831     1.0  0.34350  0.85983  0.33721  1.0000
  H   H2196     1.0  0.65741  0.85213  0.35923  1.0000
  S   S492      1.0  0.65601  0.80217  0.31202  1.0000
  C   C1832     1.0  0.64893  0.80746  0.23708  1.0000
  S   S493      1.0  0.65971  0.88615  0.39981  1.0000
  S   S494      1.0  0.65470  0.74631  0.30333  1.0000
  H   H2197     1.0  0.33710  0.94291  0.33512  1.0000
  C   C1833     1.0  0.44874  0.73867  0.39412  1.0000
  C   C1834     1.0  0.42876  0.73858  0.39740  1.0000
  C   C1835     1.0  0.37144  0.98188  0.24518  1.0000
  H   H2198     1.0  0.65876  0.79806  0.22793  1.0000
  S   S495      1.0  0.64632  0.74132  0.25347  1.0000
  H   H2199     1.0  0.39466  0.96194  0.98426  1.0000
  Fe  Fe247     1.0  0.62871  0.73746  0.32420  1.0000
  C   C1836     1.0  0.44951  0.98266  0.45089  1.0000
  H   H2200     1.0  0.44761  0.98432  0.46589  1.0000
  H   H2201     1.0  0.34314  0.73557  0.30485  1.0000
  C   C1837     1.0  0.62998  0.96424  0.59308  1.0000
  H   H2202     1.0  0.57073  0.80872  0.89236  1.0000
  C   C1838     1.0  0.39965  0.96585  0.96846  1.0000
  C   C1839     1.0  0.35137  0.84998  0.85902  1.0000
  Fe  Fe248     1.0  0.35725  0.93502  0.96384  1.0000
  S   S496      1.0  0.37836  0.94078  0.93601  1.0000
  H   H2203     1.0  0.38977  0.90782  0.84082  1.0000
  Fe  Fe249     1.0  0.41316  0.74846  0.78208  1.0000
  H   H2204     1.0  0.63636  0.96893  0.69623  1.0000
  H   H2205     1.0  0.54611  0.83572  0.90172  1.0000
  Fe  Fe250     1.0  0.43206  0.77594  0.79852  1.0000
  S   S497      1.0  0.40719  0.77896  0.82301  1.0000
  S   S498      1.0  0.45838  0.78896  0.79941  1.0000
  C   C1840     1.0  0.39028  0.90235  0.85598  1.0000
  S   S499      1.0  0.59802  0.91049  0.49155  1.0000
  Fe  Fe251     1.0  0.38845  0.78187  0.80074  1.0000
  S   S500      1.0  0.36357  0.80672  0.79724  1.0000
  H   H2206     1.0  0.50239  0.79887  0.91225  1.0000
  S   S501      1.0  0.41333  0.78063  0.77568  1.0000
  Fe  Fe252     1.0  0.46727  0.88883  0.87538  1.0000
  S   S502      1.0  0.45550  0.90897  0.85048  1.0000
  S   S503      1.0  0.45299  0.88240  0.90665  1.0000
  Fe  Fe253     1.0  0.50377  0.87306  0.84942  1.0000
  S   S504      1.0  0.49472  0.89147  0.82262  1.0000
  S   S505      1.0  0.53390  0.85611  0.84710  1.0000
  Fe  Fe254     1.0  0.48618  0.91514  0.84064  1.0000
  S   S506      1.0  0.49683  0.94358  0.82732  1.0000
  Fe  Fe255     1.0  0.46543  0.88328  0.83500  1.0000
  S   S507      1.0  0.44603  0.87404  0.81837  1.0000
  S   S508      1.0  0.49699  0.89691  0.86673  1.0000
  S   S509      1.0  0.47527  0.86296  0.86051  1.0000
  C   C1841     1.0  0.62916  0.94437  0.59457  1.0000
  S   S510      1.0  0.58244  0.76639  0.81207  1.0000
  S   S511      1.0  0.54305  0.76565  0.85740  1.0000
  Fe  Fe256     1.0  0.61112  0.76608  0.82018  1.0000
  S   S512      1.0  0.63077  0.78802  0.80786  1.0000
  S   S513      1.0  0.60118  0.75767  0.85206  1.0000
  C   C1842     1.0  0.59227  0.89736  0.64132  1.0000
  Fe  Fe257     1.0  0.57308  0.93524  0.49025  1.0000
  H   H2207     1.0  0.57418  0.96037  0.79698  1.0000
  H   H2208     1.0  0.65446  0.95089  0.56036  1.0000
  C   C1843     1.0  0.33544  0.86443  0.86302  1.0000
  H   H2209     1.0  0.58234  0.90610  0.65111  1.0000
  H   H2210     1.0  0.37024  0.90073  0.92946  1.0000
  H   H2211     1.0  0.63385  0.87343  0.50746  1.0000
  C   C1844     1.0  0.60033  0.88549  0.61103  1.0000
  H   H2212     1.0  0.51250  0.84063  0.77085  1.0000
  Fe  Fe258     1.0  0.60378  0.91596  0.70813  1.0000
  S   S514      1.0  0.58633  0.93049  0.68495  1.0000
  Fe  Fe259     1.0  0.60958  0.88833  0.74532  1.0000
  S   S515      1.0  0.59140  0.87010  0.76882  1.0000
  S   S516      1.0  0.59603  0.91968  0.73915  1.0000
  S   S517      1.0  0.61477  0.88423  0.71429  1.0000
  H   H2213     1.0  0.64371  0.84486  0.53127  1.0000
  S   S518      1.0  0.34032  0.91057  0.97287  1.0000
  Fe  Fe260     1.0  0.58752  0.95499  0.51852  1.0000
  S   S519      1.0  0.56683  0.93407  0.52251  1.0000
  H   H2214     1.0  0.50730  0.77231  0.83291  1.0000
  C   C1845     1.0  0.64091  0.94357  0.79649  1.0000
  H   H2215     1.0  0.40927  0.76027  0.72035  1.0000
  Fe  Fe261     1.0  0.59362  0.91144  0.52324  1.0000
  S   S520      1.0  0.59365  0.88508  0.54634  1.0000
  S   S521      1.0  0.61390  0.93207  0.52069  1.0000
  C   C1846     1.0  0.61513  0.87434  0.55534  1.0000
  C   C1847     1.0  0.63192  0.88273  0.55016  1.0000
  H   H2216     1.0  0.56176  0.77710  0.89298  1.0000
  C   C1848     1.0  0.63211  0.84744  0.57536  1.0000
  C   C1849     1.0  0.61528  0.85675  0.56804  1.0000
  H   H2217     1.0  0.63208  0.89607  0.54003  1.0000
  H   H2218     1.0  0.63210  0.83373  0.58503  1.0000
  H   H2219     1.0  0.60238  0.85016  0.57204  1.0000
  S   S522      1.0  0.62319  0.73574  0.81521  1.0000
  C   C1850     1.0  0.63996  0.97224  0.68016  1.0000
  H   H2220     1.0  0.39963  0.82549  0.81653  1.0000
  C   C1851     1.0  0.55075  0.78890  0.89755  1.0000
  H   H2221     1.0  0.63146  0.85022  0.76437  1.0000
  N   N125      1.0  0.53521  0.82170  0.78462  1.0000
  C   C1852     1.0  0.58651  0.95524  0.68253  1.0000
  C   C1853     1.0  0.58241  0.96795  0.66573  1.0000
  H   H2222     1.0  0.65776  0.83520  0.64119  1.0000
  C   C1854     1.0  0.40758  0.89198  0.86144  1.0000
  C   C1855     1.0  0.34678  0.81243  0.81777  1.0000
  C   C1856     1.0  0.59189  0.96215  0.69715  1.0000
  H   H2223     1.0  0.57822  0.96266  0.65438  1.0000
  H   H2224     1.0  0.50907  0.74716  0.85979  1.0000
  H   H2225     1.0  0.56528  0.82007  0.77033  1.0000
  H   H2226     1.0  0.59511  0.95250  0.71011  1.0000
  C   C1857     1.0  0.51380  0.80035  0.77774  1.0000
  H   H2227     1.0  0.61639  0.93468  0.64409  1.0000
  H   H2228     1.0  0.37782  0.75151  0.71962  1.0000
  H   H2229     1.0  0.53009  0.81132  0.81520  1.0000
  H   H2230     1.0  0.57380  0.90440  0.61979  1.0000
  C   C1858     1.0  0.40855  0.88538  0.88090  1.0000
  C   C1859     1.0  0.61966  0.81069  0.79687  1.0000
  C   C1860     1.0  0.59965  0.81695  0.80148  1.0000
  C   C1861     1.0  0.59119  0.83531  0.79293  1.0000
  C   C1862     1.0  0.60259  0.84730  0.77940  1.0000
  C   C1863     1.0  0.63110  0.82283  0.78361  1.0000
  H   H2231     1.0  0.59081  0.80782  0.81196  1.0000
  H   H2232     1.0  0.57583  0.84029  0.79691  1.0000
  C   C1864     1.0  0.51062  0.95430  0.83888  1.0000
  C   C1865     1.0  0.51458  0.94647  0.85746  1.0000
  C   C1866     1.0  0.52584  0.95522  0.86601  1.0000
  H   H2233     1.0  0.35165  0.90279  0.83271  1.0000
  S   S523      1.0  0.57774  0.97656  0.53961  1.0000
  C   C1867     1.0  0.51809  0.97094  0.82898  1.0000
  H   H2234     1.0  0.50874  0.93388  0.86540  1.0000
  C   C1868     1.0  0.64914  0.86743  0.50710  1.0000
  H   H2235     1.0  0.50091  0.81127  0.77887  1.0000
  C   C1869     1.0  0.39079  0.74571  0.71035  1.0000
  C   C1870     1.0  0.53590  0.83104  0.84996  1.0000
  C   C1871     1.0  0.55435  0.81989  0.84651  1.0000
  C   C1872     1.0  0.55645  0.79983  0.84847  1.0000
  C   C1873     1.0  0.54014  0.79081  0.85426  1.0000
  C   C1874     1.0  0.52163  0.80192  0.85766  1.0000
  C   C1875     1.0  0.51950  0.82209  0.85534  1.0000
  H   H2236     1.0  0.56706  0.82678  0.84222  1.0000
  H   H2237     1.0  0.57077  0.79136  0.84578  1.0000
  H   H2238     1.0  0.50899  0.79496  0.86209  1.0000
  H   H2239     1.0  0.50522  0.83060  0.85783  1.0000
  C   C1876     1.0  0.45473  0.81249  0.80501  1.0000
  C   C1877     1.0  0.46774  0.81733  0.81478  1.0000
  C   C1878     1.0  0.46529  0.83611  0.81904  1.0000
  C   C1879     1.0  0.45006  0.85032  0.81311  1.0000
  C   C1880     1.0  0.43738  0.84555  0.80296  1.0000
  C   C1881     1.0  0.43954  0.82669  0.79914  1.0000
  H   H2240     1.0  0.47962  0.80648  0.81926  1.0000
  H   H2241     1.0  0.47518  0.83961  0.82683  1.0000
  H   H2242     1.0  0.42586  0.85655  0.79795  1.0000
  H   H2243     1.0  0.42978  0.82325  0.79114  1.0000
  C   C1882     1.0  0.47788  0.75134  0.84375  1.0000
  C   C1883     1.0  0.58296  0.96712  0.78364  1.0000
  C   C1884     1.0  0.55087  0.82952  0.76995  1.0000
  H   H2244     1.0  0.37435  0.83471  0.81696  1.0000
  H   H2245     1.0  0.61612  0.92226  0.56270  1.0000
  C   C1885     1.0  0.38787  0.83760  0.82036  1.0000
  C   C1886     1.0  0.39900  0.92423  0.92835  1.0000
  C   C1887     1.0  0.40960  0.92869  0.90976  1.0000
  C   C1888     1.0  0.42616  0.91595  0.90300  1.0000
  C   C1889     1.0  0.43227  0.89867  0.91483  1.0000
  C   C1890     1.0  0.42163  0.89415  0.93344  1.0000
  C   C1891     1.0  0.40498  0.90689  0.94020  1.0000
  H   H2246     1.0  0.40502  0.94207  0.90050  1.0000
  H   H2247     1.0  0.43425  0.91960  0.88867  1.0000
  H   H2248     1.0  0.42630  0.88079  0.94267  1.0000
  H   H2249     1.0  0.39690  0.90335  0.95458  1.0000
  C   C1892     1.0  0.56079  0.96626  0.74563  1.0000
  H   H2250     1.0  0.34381  0.88152  0.89873  1.0000
  H   H2251     1.0  0.61244  0.88831  0.66047  1.0000
  H   H2252     1.0  0.64441  0.75790  0.83881  1.0000
  C   C1893     1.0  0.64433  0.86456  0.65893  1.0000
  H   H2253     1.0  0.63429  0.96169  0.67430  1.0000
  C   C1894     1.0  0.34006  0.89705  0.90019  1.0000
  C   C1895     1.0  0.50613  0.76234  0.82333  1.0000
  C   C1896     1.0  0.53215  0.80337  0.78019  1.0000
  H   H2254     1.0  0.33506  0.90531  0.88671  1.0000
  H   H2255     1.0  0.62249  0.91903  0.61566  1.0000
  H   H2256     1.0  0.33427  0.83964  0.80245  1.0000
  H   H2257     1.0  0.64659  0.81809  0.78004  1.0000
  H   H2258     1.0  0.52414  0.94118  0.74991  1.0000
  C   C1897     1.0  0.52721  0.76764  0.77226  1.0000
  N   N126      1.0  0.63267  0.93473  0.57747  1.0000
  C   C1898     1.0  0.51151  0.78276  0.77369  1.0000
  C   C1899     1.0  0.62040  0.94284  0.62979  1.0000
  H   H2259     1.0  0.65138  0.90997  0.56689  1.0000
  C   C1900     1.0  0.53364  0.97162  0.85594  1.0000
  N   N127      1.0  0.35671  0.90393  0.90447  1.0000
  C   C1901     1.0  0.63638  0.96208  0.80146  1.0000
  C   C1902     1.0  0.40851  0.75066  0.71077  1.0000
  N   N128      1.0  0.50682  0.83682  0.91354  1.0000
  C   C1903     1.0  0.48662  0.83289  0.91766  1.0000
  C   C1904     1.0  0.51067  0.84220  0.93109  1.0000
  C   C1905     1.0  0.50770  0.85365  0.89768  1.0000
  C   C1906     1.0  0.52163  0.82021  0.90805  1.0000
  H   H2260     1.0  0.34546  0.89802  0.93503  1.0000
  H   H2261     1.0  0.62766  0.86732  0.60557  1.0000
  H   H2262     1.0  0.47705  0.76140  0.85391  1.0000
  C   C1907     1.0  0.65617  0.74854  0.84612  1.0000
  H   H2263     1.0  0.64560  0.93130  0.80697  1.0000
  H   H2264     1.0  0.47583  0.84579  0.92138  1.0000
  H   H2265     1.0  0.48267  0.82915  0.90481  1.0000
  H   H2266     1.0  0.48440  0.82111  0.93021  1.0000
  H   H2267     1.0  0.51053  0.82981  0.94328  1.0000
  H   H2268     1.0  0.49957  0.85447  0.93584  1.0000
  H   H2269     1.0  0.52502  0.84684  0.92866  1.0000
  H   H2270     1.0  0.50632  0.84974  0.88389  1.0000
  H   H2271     1.0  0.49587  0.86597  0.90082  1.0000
  H   H2272     1.0  0.52151  0.85933  0.89502  1.0000
  C   C1908     1.0  0.39221  0.88905  0.89504  1.0000
  C   C1909     1.0  0.36783  0.87376  0.83623  1.0000
  C   C1910     1.0  0.37423  0.89938  0.88996  1.0000
  C   C1911     1.0  0.51703  0.80177  0.90836  1.0000
  H   H2273     1.0  0.40665  0.85860  0.83453  1.0000
  N   N129      1.0  0.38541  0.83944  0.84097  1.0000
  H   H2274     1.0  0.59660  0.88481  0.59726  1.0000
  C   C1912     1.0  0.38397  0.82003  0.85272  1.0000
  H   H2275     1.0  0.55119  0.95288  0.72580  1.0000
  C   C1913     1.0  0.36823  0.85429  0.84563  1.0000
  C   C1914     1.0  0.54872  0.95580  0.74047  1.0000
  H   H2276     1.0  0.47991  0.75174  0.80303  1.0000
  C   C1915     1.0  0.48818  0.73739  0.80564  1.0000
  C   C1916     1.0  0.40309  0.84520  0.84433  1.0000
  Fe  Fe262     1.0  0.40869  0.74708  0.82518  1.0000
  H   H2277     1.0  0.47123  0.73876  0.85204  1.0000
  H   H2278     1.0  0.65822  0.88882  0.48371  1.0000
  H   H2279     1.0  0.36472  0.93104  0.90506  1.0000
  H   H2280     1.0  0.38192  0.82036  0.86845  1.0000
  H   H2281     1.0  0.39730  0.80931  0.84923  1.0000
  H   H2282     1.0  0.37181  0.81414  0.84985  1.0000
  C   C1917     1.0  0.54106  0.81800  0.80387  1.0000
  H   H2283     1.0  0.35618  0.78642  0.83687  1.0000
  H   H2284     1.0  0.39149  0.85087  0.81039  1.0000
  H   H2285     1.0  0.55753  0.75823  0.77373  1.0000
  S   S524      1.0  0.63089  0.95434  0.74114  1.0000
  H   H2286     1.0  0.36762  0.97447  0.95325  1.0000
  H   H2287     1.0  0.56216  0.78884  0.78034  1.0000
  H   H2288     1.0  0.34986  0.83549  0.86630  1.0000
  N   N130      1.0  0.56354  0.90461  0.81086  1.0000
  C   C1918     1.0  0.54222  0.91023  0.81652  1.0000
  C   C1919     1.0  0.56843  0.90972  0.78958  1.0000
  C   C1920     1.0  0.56830  0.88329  0.81642  1.0000
  C   C1921     1.0  0.57498  0.91422  0.81984  1.0000
  C   C1922     1.0  0.56645  0.92943  0.83052  1.0000
  C   C1923     1.0  0.59549  0.90891  0.81736  1.0000
  C   C1924     1.0  0.57786  0.93857  0.83825  1.0000
  C   C1925     1.0  0.60666  0.91790  0.82548  1.0000
  C   C1926     1.0  0.59791  0.93282  0.83573  1.0000
  H   H2289     1.0  0.53759  0.90684  0.83247  1.0000
  H   H2290     1.0  0.53719  0.92585  0.81161  1.0000
  H   H2291     1.0  0.53407  0.90238  0.80994  1.0000
  H   H2292     1.0  0.56516  0.92556  0.78472  1.0000
  H   H2293     1.0  0.56031  0.90267  0.78210  1.0000
  H   H2294     1.0  0.58409  0.90502  0.78418  1.0000
  H   H2295     1.0  0.56631  0.87892  0.83241  1.0000
  H   H2296     1.0  0.55893  0.87570  0.81101  1.0000
  H   H2297     1.0  0.58340  0.87726  0.81028  1.0000
  H   H2298     1.0  0.55102  0.93455  0.83316  1.0000
  H   H2299     1.0  0.60309  0.89781  0.80903  1.0000
  H   H2300     1.0  0.57115  0.95014  0.84637  1.0000
  H   H2301     1.0  0.62224  0.91331  0.82373  1.0000
  H   H2302     1.0  0.60672  0.93996  0.84172  1.0000
  H   H2303     1.0  0.36315  0.87893  0.92612  1.0000
  C   C1927     1.0  0.62256  0.84103  0.77474  1.0000
  C   C1928     1.0  0.35912  0.89492  0.92459  1.0000
  H   H2304     1.0  0.52767  0.77261  0.90292  1.0000
  H   H2305     1.0  0.37589  0.73875  0.76622  1.0000
  H   H2306     1.0  0.64060  0.90513  0.59145  1.0000
  C   C1929     1.0  0.64420  0.84398  0.63658  1.0000
  C   C1930     1.0  0.62314  0.87542  0.63404  1.0000
  H   H2307     1.0  0.39423  0.88402  0.90986  1.0000
  H   H2308     1.0  0.60720  0.92132  0.58793  1.0000
  H   H2309     1.0  0.65558  0.75425  0.85951  1.0000
  S   S525      1.0  0.63630  0.96514  0.82524  1.0000
  H   H2310     1.0  0.40138  0.84775  0.85942  1.0000
  H   H2311     1.0  0.36200  0.98105  0.97674  1.0000
  C   C1931     1.0  0.58749  0.89650  0.62368  1.0000
  H   H2312     1.0  0.52535  0.75398  0.76926  1.0000
  C   C1932     1.0  0.54531  0.77007  0.77479  1.0000
  H   H2313     1.0  0.64207  0.92649  0.77453  1.0000
  C   C1933     1.0  0.55801  0.97028  0.76470  1.0000
  Fe  Fe263     1.0  0.64353  0.89303  0.71255  1.0000
  H   H2314     1.0  0.42038  0.88938  0.85057  1.0000
  C   C1934     1.0  0.65466  0.85135  0.52057  1.0000
  H   H2315     1.0  0.57224  0.97095  0.73443  1.0000
  H   H2316     1.0  0.36081  0.91444  0.86512  1.0000
  C   C1935     1.0  0.60979  0.88697  0.64655  1.0000
  S   S526      1.0  0.43479  0.74364  0.80220  1.0000
  H   H2317     1.0  0.42224  0.87781  0.88511  1.0000
  C   C1936     1.0  0.53357  0.94910  0.75404  1.0000
  C   C1937     1.0  0.63059  0.97545  0.76884  1.0000
  C   C1938     1.0  0.53147  0.78642  0.90318  1.0000
  Fe  Fe264     1.0  0.57342  0.75522  0.84347  1.0000
  C   C1939     1.0  0.54780  0.78766  0.77861  1.0000
  C   C1940     1.0  0.51763  0.83696  0.78500  1.0000
  C   C1941     1.0  0.52983  0.97936  0.83730  1.0000
  H   H2318     1.0  0.54268  0.83155  0.80819  1.0000
  H   H2319     1.0  0.41617  0.83392  0.84173  1.0000
  H   H2320     1.0  0.50557  0.83254  0.79652  1.0000
  H   H2321     1.0  0.34708  0.93286  0.88999  1.0000
  C   C1942     1.0  0.62606  0.97300  0.60948  1.0000
  S   S527      1.0  0.38706  0.75017  0.80556  1.0000
  C   C1943     1.0  0.63135  0.97804  0.78752  1.0000
  H   H2322     1.0  0.63344  0.97344  0.57940  1.0000
  H   H2323     1.0  0.63281  0.85817  0.66976  1.0000
  C   C1944     1.0  0.62157  0.96229  0.62779  1.0000
  C   C1945     1.0  0.63386  0.95686  0.76424  1.0000
  Fe  Fe265     1.0  0.62621  0.92580  0.73564  1.0000
  C   C1946     1.0  0.34616  0.79997  0.83553  1.0000
  H   H2324     1.0  0.60342  0.94380  0.57179  1.0000
  H   H2325     1.0  0.55286  0.84385  0.77223  1.0000
  C   C1947     1.0  0.55575  0.80674  0.89714  1.0000
  C   C1948     1.0  0.64888  0.85576  0.57029  1.0000
  H   H2326     1.0  0.65388  0.91269  0.66985  1.0000
  C   C1949     1.0  0.53061  0.95256  0.77293  1.0000
  H   H2327     1.0  0.65856  0.85615  0.66226  1.0000
  C   C1950     1.0  0.64675  0.91643  0.58029  1.0000
  N   N131      1.0  0.57076  0.98092  0.77079  1.0000
  C   C1951     1.0  0.33372  0.82991  0.81614  1.0000
  H   H2328     1.0  0.54765  0.83133  0.75509  1.0000
  H   H2329     1.0  0.55521  0.80810  0.80435  1.0000
  N   N132      1.0  0.64199  0.86448  0.63884  1.0000
  C   C1952     1.0  0.61800  0.87532  0.61600  1.0000
  H   H2330     1.0  0.52046  0.85062  0.78814  1.0000
  H   H2331     1.0  0.49736  0.78081  0.77184  1.0000
  H   H2332     1.0  0.37987  0.87798  0.82544  1.0000
  C   C1953     1.0  0.54148  0.82216  0.90238  1.0000
  C   C1954     1.0  0.37382  0.90603  0.86999  1.0000
  H   H2333     1.0  0.59201  0.95531  0.77615  1.0000
  C   C1955     1.0  0.62399  0.93400  0.61344  1.0000
  H   H2334     1.0  0.63173  0.83731  0.64531  1.0000
  C   C1956     1.0  0.35190  0.92514  0.90372  1.0000
  H   H2335     1.0  0.34006  0.92921  0.91568  1.0000
  H   H2336     1.0  0.61875  0.96917  0.64042  1.0000
  S   S528      1.0  0.33085  0.95843  0.96453  1.0000
  C   C1957     1.0  0.33569  0.88345  0.85378  1.0000
  C   C1958     1.0  0.35177  0.88807  0.84027  1.0000
  S   S529      1.0  0.63283  0.92439  0.70407  1.0000
  H   H2337     1.0  0.43909  0.74646  0.70000  1.0000
  H   H2338     1.0  0.32711  0.89867  0.91180  1.0000
  H   H2339     1.0  0.49680  0.77091  0.81287  1.0000
  S   S530      1.0  0.63948  0.89467  0.74431  1.0000
  H   H2340     1.0  0.63015  0.95989  0.55513  1.0000
  C   C1959     1.0  0.63909  0.94086  0.77809  1.0000
  H   H2341     1.0  0.46841  0.75904  0.83308  1.0000
  C   C1960     1.0  0.64066  0.94665  0.55922  1.0000
  H   H2342     1.0  0.52094  0.75813  0.81516  1.0000
  H   H2343     1.0  0.64379  0.93877  0.54675  1.0000
  N   N133      1.0  0.49816  0.74507  0.83448  1.0000
  C   C1961     1.0  0.61409  0.93031  0.57489  1.0000
  H   H2344     1.0  0.52855  0.94922  0.88049  1.0000
  H   H2345     1.0  0.64405  0.87939  0.66142  1.0000
  H   H2346     1.0  0.51878  0.94735  0.78353  1.0000
  C   C1962     1.0  0.64881  0.87344  0.55767  1.0000
  C   C1963     1.0  0.42531  0.74274  0.69937  1.0000
  C   C1964     1.0  0.54283  0.96271  0.77828  1.0000
  H   H2347     1.0  0.41571  0.96410  0.96594  1.0000
  S   S531      1.0  0.59163  0.95827  0.48598  1.0000
  H   H2348     1.0  0.54045  0.96438  0.79321  1.0000
  Fe  Fe266     1.0  0.61622  0.93319  0.48875  1.0000
  C   C1965     1.0  0.50973  0.73665  0.85011  1.0000
  C   C1966     1.0  0.59346  0.98158  0.69495  1.0000
  H   H2349     1.0  0.33159  0.79511  0.86517  1.0000
  C   C1967     1.0  0.33226  0.80491  0.85152  1.0000
  H   H2350     1.0  0.65614  0.88880  0.62567  1.0000
  H   H2351     1.0  0.51447  0.97755  0.81494  1.0000
  H   H2352     1.0  0.59468  0.97974  0.74685  1.0000
  C   C1968     1.0  0.65791  0.87308  0.62546  1.0000
  H   H2353     1.0  0.39630  0.95480  0.96134  1.0000
  H   H2354     1.0  0.64531  0.84223  0.62131  1.0000
  H   H2355     1.0  0.59304  0.97435  0.78839  1.0000
  H   H2356     1.0  0.39678  0.98077  0.93146  1.0000
  S   S532      1.0  0.54745  0.98238  0.86739  1.0000
  H   H2357     1.0  0.65870  0.87126  0.61026  1.0000
  H   H2358     1.0  0.55412  0.89829  0.48106  1.0000
  C   C1969     1.0  0.36946  0.98517  0.96166  1.0000
  Fe  Fe267     1.0  0.69647  0.15783  0.07311  1.0000
  S   S533      1.0  0.71550  0.17541  0.05067  1.0000
  C   C1970     1.0  0.69712  0.23123  0.14020  1.0000
  Fe  Fe268     1.0  0.71990  0.15852  0.10516  1.0000
  S   S534      1.0  0.73991  0.17617  0.08441  1.0000
  S   S535      1.0  0.72686  0.14832  0.13559  1.0000
  Fe  Fe269     1.0  0.71288  0.19316  0.07388  1.0000
  H   H2359     1.0  0.90882  0.06636  0.17337  1.0000
  Fe  Fe270     1.0  0.73987  0.15632  0.06420  1.0000
  S   S536      1.0  0.76712  0.13870  0.05109  1.0000
  S   S537      1.0  0.69251  0.17675  0.09582  1.0000
  S   S538      1.0  0.72107  0.13753  0.08537  1.0000
  H   H2360     1.0  0.90924  0.03201  0.18751  1.0000
  C   C1971     1.0  0.67777  0.18477  0.14386  1.0000
  S   S539      1.0  0.92282  0.00308  0.09294  1.0000
  H   H2361     1.0  0.70403  0.21237  0.10977  1.0000
  H   H2362     1.0  0.83645  0.03660  0.22722  1.0000
  C   C1972     1.0  0.86203  0.99220  0.37811  1.0000
  Fe  Fe271     1.0  0.92105  0.03982  0.34153  1.0000
  S   S540      1.0  0.89069  0.05632  0.34561  1.0000
  S   S541      1.0  0.93990  0.04436  0.36180  1.0000
  Fe  Fe272     1.0  0.91131  0.01768  0.31255  1.0000
  S   S542      1.0  0.88056  0.03312  0.31460  1.0000
  Fe  Fe273     1.0  0.89332  0.05955  0.31348  1.0000
  S   S543      1.0  0.88984  0.08815  0.29345  1.0000
  Fe  Fe274     1.0  0.88138  0.02805  0.34648  1.0000
  S   S544      1.0  0.85815  0.01738  0.37029  1.0000
  S   S545      1.0  0.92432  0.04451  0.30925  1.0000
  S   S546      1.0  0.91154  0.01111  0.34452  1.0000
  Fe  Fe275     1.0  0.82616  0.14391  0.22089  1.0000
  S   S547      1.0  0.85462  0.15468  0.21147  1.0000
  S   S548      1.0  0.82069  0.12051  0.24691  1.0000
  Fe  Fe276     1.0  0.80712  0.17194  0.18882  1.0000
  S   S549      1.0  0.83426  0.18497  0.17783  1.0000
  S   S550      1.0  0.78263  0.18469  0.17144  1.0000
  Fe  Fe277     1.0  0.84966  0.15418  0.18169  1.0000
  S   S551      1.0  0.87171  0.14128  0.15840  1.0000
  Fe  Fe278     1.0  0.83637  0.18432  0.20899  1.0000
  S   S552      1.0  0.83948  0.21025  0.22182  1.0000
  S   S553      1.0  0.82253  0.14129  0.19121  1.0000
  S   S554      1.0  0.80790  0.17356  0.21975  1.0000
  Fe  Fe279     1.0  0.85487  0.00878  0.12647  1.0000
  S   S555      1.0  0.88145  0.00867  0.13826  1.0000
  Fe  Fe280     1.0  0.85803  0.04722  0.09938  1.0000
  S   S556      1.0  0.88554  0.04992  0.10834  1.0000
  S   S557      1.0  0.84145  0.07052  0.07973  1.0000
  Fe  Fe281     1.0  0.89413  0.01801  0.10728  1.0000
  Fe  Fe282     1.0  0.87033  0.04027  0.13836  1.0000
  S   S558      1.0  0.86874  0.05258  0.16522  1.0000
  S   S559      1.0  0.86801  0.01634  0.09539  1.0000
  S   S560      1.0  0.84222  0.03948  0.12959  1.0000
  H   H2363     1.0  0.90975  0.01697  0.25372  1.0000
  H   H2364     1.0  0.96778  0.13619  0.34252  1.0000
  H   H2365     1.0  0.88483  0.98699  0.29445  1.0000
  H   H2366     1.0  0.82274  0.04855  0.20842  1.0000
  H   H2367     1.0  0.84180  0.99368  0.40478  1.0000
  H   H2368     1.0  0.89329  0.00269  0.38960  1.0000
  C   C1973     1.0  0.87131  0.11654  0.16026  1.0000
  C   C1974     1.0  0.87848  0.10734  0.14412  1.0000
  C   C1975     1.0  0.87739  0.08779  0.14531  1.0000
  C   C1976     1.0  0.86958  0.07727  0.16281  1.0000
  C   C1977     1.0  0.86281  0.08636  0.17903  1.0000
  C   C1978     1.0  0.86362  0.10594  0.17775  1.0000
  H   H2369     1.0  0.88475  0.11541  0.13065  1.0000
  H   H2370     1.0  0.88288  0.08082  0.13280  1.0000
  H   H2371     1.0  0.85700  0.07825  0.19267  1.0000
  H   H2372     1.0  0.85850  0.11277  0.19039  1.0000
  C   C1979     1.0  0.66146  0.21797  0.14277  1.0000
  H   H2373     1.0  0.94415  0.11544  0.34099  1.0000
  H   H2374     1.0  0.93925  0.10946  0.36658  1.0000
  C   C1980     1.0  0.86447  0.15293  0.07438  1.0000
  C   C1981     1.0  0.87243  0.20182  0.23946  1.0000
  H   H2375     1.0  0.87147  0.01716  0.19144  1.0000
  H   H2376     1.0  0.96345  0.12730  0.36798  1.0000
  H   H2377     1.0  0.92401  0.13683  0.32229  1.0000
  H   H2378     1.0  0.80183  0.02437  0.21548  1.0000
  C   C1982     1.0  0.87074  0.09525  0.28025  1.0000
  C   C1983     1.0  0.87399  0.10677  0.26205  1.0000
  C   C1984     1.0  0.85896  0.11355  0.25132  1.0000
  C   C1985     1.0  0.84029  0.10971  0.25906  1.0000
  C   C1986     1.0  0.83709  0.09777  0.27711  1.0000
  C   C1987     1.0  0.85236  0.09037  0.28765  1.0000
  H   H2379     1.0  0.88824  0.11042  0.25618  1.0000
  H   H2380     1.0  0.86184  0.12195  0.23716  1.0000
  H   H2381     1.0  0.82269  0.09459  0.28313  1.0000
  H   H2382     1.0  0.84976  0.08149  0.30174  1.0000
  C   C1988     1.0  0.85526  0.21451  0.23625  1.0000
  H   H2383     1.0  0.69853  0.20240  0.17130  1.0000
  S   S561      1.0  0.96335  0.17231  0.39249  1.0000
  H   H2384     1.0  0.98282  0.00330  0.05786  1.0000
  C   C1989     1.0  0.95530  0.06191  0.35714  1.0000
  C   C1990     1.0  0.96175  0.06639  0.37269  1.0000
  H   H2385     1.0  0.66058  0.11283  0.07772  1.0000
  H   H2386     1.0  0.91951  0.12002  0.35397  1.0000
  C   C1991     1.0  0.95994  0.19284  0.37464  1.0000
  C   C1992     1.0  0.97578  0.19856  0.36132  1.0000
  C   C1993     1.0  0.97295  0.21441  0.34655  1.0000
  C   C1994     1.0  0.95420  0.22425  0.34465  1.0000
  C   C1995     1.0  0.93830  0.21875  0.35809  1.0000
  C   C1996     1.0  0.94123  0.20323  0.37329  1.0000
  H   H2387     1.0  0.84841  0.04223  0.20277  1.0000
  S   S562      1.0  0.88598  0.09607  0.99543  1.0000
  H   H2388     1.0  0.92894  0.19895  0.38370  1.0000
  H   H2389     1.0  0.81183  0.99924  0.21792  1.0000
  C   C1997     1.0  0.87284  0.08744  0.01809  1.0000
  C   C1998     1.0  0.85302  0.09425  0.02328  1.0000
  C   C1999     1.0  0.84335  0.08851  0.04209  1.0000
  C   C2000     1.0  0.85342  0.07586  0.05577  1.0000
  C   C2001     1.0  0.87311  0.06863  0.05048  1.0000
  C   C2002     1.0  0.88278  0.07441  0.03167  1.0000
  H   H2390     1.0  0.84520  0.10424  0.01297  1.0000
  H   H2391     1.0  0.82809  0.09406  0.04610  1.0000
  H   H2392     1.0  0.88100  0.05888  0.06096  1.0000
  H   H2393     1.0  0.89811  0.06906  0.02775  1.0000
  C   C2003     1.0  0.76990  0.17233  0.16044  1.0000
  C   C2004     1.0  0.76261  0.15565  0.17021  1.0000
  C   C2005     1.0  0.74987  0.14812  0.16221  1.0000
  C   C2006     1.0  0.74462  0.15690  0.14421  1.0000
  C   C2007     1.0  0.75276  0.17295  0.13403  1.0000
  C   C2008     1.0  0.76497  0.18082  0.14226  1.0000
  H   H2394     1.0  0.76604  0.14910  0.18435  1.0000
  H   H2395     1.0  0.74373  0.13567  0.17025  1.0000
  H   H2396     1.0  0.74927  0.17973  0.12005  1.0000
  H   H2397     1.0  0.77048  0.19375  0.13461  1.0000
  C   C2009     1.0  0.89729  0.05089  0.22963  1.0000
  C   C2010     1.0  0.80797  0.16938  0.00340  1.0000
  H   H2398     1.0  0.92895  0.15837  0.37766  1.0000
  N   N134      1.0  0.83314  0.01806  0.20847  1.0000
  C   C2011     1.0  0.78310  0.15137  0.03394  1.0000
  C   C2012     1.0  0.80139  0.14138  0.02729  1.0000
  C   C2013     1.0  0.81382  0.15044  0.01214  1.0000
  C   C2014     1.0  0.86910  0.00540  0.20324  1.0000
  C   C2015     1.0  0.79008  0.17981  0.01077  1.0000
  C   C2016     1.0  0.77758  0.17077  0.02611  1.0000
  H   H2399     1.0  0.80576  0.12642  0.03347  1.0000
  H   H2400     1.0  0.66144  0.20526  0.07444  1.0000
  H   H2401     1.0  0.90073  0.09111  0.19445  1.0000
  H   H2402     1.0  0.76351  0.17859  0.03147  1.0000
  C   C2017     1.0  0.67415  0.14021  0.04208  1.0000
  C   C2018     1.0  0.78128  0.12160  0.99288  1.0000
  H   H2403     1.0  0.72520  0.20984  0.12040  1.0000
  C   C2019     1.0  0.67801  0.12104  0.01023  1.0000
  C   C2020     1.0  0.69372  0.11942  0.01981  1.0000
  C   C2021     1.0  0.69190  0.12915  0.03544  1.0000
  H   H2404     1.0  0.89311  0.08198  0.22947  1.0000
  H   H2405     1.0  0.70738  0.11045  0.01523  1.0000
  H   H2406     1.0  0.70410  0.12762  0.04274  1.0000
  H   H2407     1.0  0.71378  0.18949  0.12256  1.0000
  C   C2022     1.0  0.86620  0.13785  0.06364  1.0000
  H   H2408     1.0  0.88449  0.01780  0.25243  1.0000
  N   N135      1.0  0.89257  0.04561  0.25090  1.0000
  H   H2409     1.0  0.95720  0.06738  0.32627  1.0000
  H   H2410     1.0  0.97997  0.08241  0.38163  1.0000
  H   H2411     1.0  0.86190  0.04898  0.25121  1.0000
  C   C2023     1.0  0.76255  0.13114  0.99854  1.0000
  C   C2024     1.0  0.90194  0.03703  0.21703  1.0000
  C   C2025     1.0  0.96193  0.07079  0.33837  1.0000
  Fe  Fe283     1.0  0.99261  0.15372  0.38600  1.0000
  H   H2412     1.0  0.91542  0.16271  0.29627  1.0000
  C   C2026     1.0  0.88543  0.99213  0.20793  1.0000
  C   C2027     1.0  0.85015  0.00353  0.21351  1.0000
  C   C2028     1.0  0.92170  0.18504  0.30866  1.0000
  C   C2029     1.0  0.92827  0.18938  0.32396  1.0000
  H   H2413     1.0  0.93590  0.00435  0.37700  1.0000
  C   C2030     1.0  0.89694  0.07057  0.22088  1.0000
  H   H2414     1.0  0.91011  0.14705  0.37388  1.0000
  N   N136      1.0  0.83073  0.16639  0.27664  1.0000
  C   C2031     1.0  0.82297  0.14934  0.28879  1.0000
  C   C2032     1.0  0.81393  0.18071  0.27058  1.0000
  C   C2033     1.0  0.84325  0.16032  0.25905  1.0000
  C   C2034     1.0  0.84248  0.17410  0.28709  1.0000
  C   C2035     1.0  0.84072  0.19418  0.28718  1.0000
  C   C2036     1.0  0.85707  0.16152  0.29657  1.0000
  H   H2415     1.0  0.73372  0.13928  0.99340  1.0000
  C   C2037     1.0  0.86862  0.16855  0.30615  1.0000
  C   C2038     1.0  0.67913  0.20448  0.14249  1.0000
  H   H2416     1.0  0.81491  0.15274  0.30303  1.0000
  H   H2417     1.0  0.81294  0.14423  0.28166  1.0000
  H   H2418     1.0  0.83449  0.13656  0.29133  1.0000
  H   H2419     1.0  0.80443  0.18665  0.28312  1.0000
  H   H2420     1.0  0.80479  0.17419  0.26371  1.0000
  H   H2421     1.0  0.81864  0.19288  0.25942  1.0000
  H   H2422     1.0  0.83516  0.15383  0.25109  1.0000
  H   H2423     1.0  0.84866  0.17281  0.24904  1.0000
  H   H2424     1.0  0.85612  0.14942  0.26241  1.0000
  H   H2425     1.0  0.83070  0.20496  0.27965  1.0000
  H   H2426     1.0  0.85992  0.14617  0.29638  1.0000
  C   C2039     1.0  0.92543  0.15123  0.32345  1.0000
  H   H2427     1.0  0.87951  0.15863  0.31342  1.0000
  H   H2428     1.0  0.99025  0.19083  0.36248  1.0000
  N   N137      1.0  0.87156  0.14054  0.04230  1.0000
  C   C2040     1.0  0.88760  0.12497  0.03639  1.0000
  C   C2041     1.0  0.85449  0.13975  0.03397  1.0000
  C   C2042     1.0  0.87807  0.15924  0.03350  1.0000
  H   H2429     1.0  0.88335  0.11049  0.04037  1.0000
  C   C2043     1.0  0.83187  0.01964  0.18780  1.0000
  H   H2430     1.0  0.90044  0.12437  0.04316  1.0000
  H   H2431     1.0  0.85816  0.14057  0.01798  1.0000
  H   H2432     1.0  0.84240  0.15183  0.03712  1.0000
  H   H2433     1.0  0.84869  0.12616  0.03991  1.0000
  C   C2044     1.0  0.88481  0.20633  0.25028  1.0000
  H   H2434     1.0  0.86621  0.17175  0.03575  1.0000
  H   H2435     1.0  0.86721  0.16720  0.06760  1.0000
  H   H2436     1.0  0.92939  0.20421  0.32414  1.0000
  H   H2437     1.0  0.91762  0.19647  0.29700  1.0000
  H   H2438     1.0  0.87644  0.18876  0.23321  1.0000
  H   H2439     1.0  0.98531  0.21890  0.33642  1.0000
  H   H2440     1.0  0.74875  0.17875  0.00071  1.0000
  H   H2441     1.0  0.89237  0.12690  0.02040  1.0000
  C   C2045     1.0  0.86190  0.11982  0.07433  1.0000
  C   C2046     1.0  0.89959  0.01109  0.39739  1.0000
  C   C2047     1.0  0.70780  0.19970  0.15730  1.0000
  H   H2442     1.0  0.96546  0.16524  0.30697  1.0000
  H   H2443     1.0  0.92917  0.13343  0.38663  1.0000
  H   H2444     1.0  0.96131  0.15261  0.35956  1.0000
  H   H2445     1.0  0.81358  0.01321  0.23562  1.0000
  C   C2048     1.0  0.85679  0.11690  0.09445  1.0000
  H   H2446     1.0  0.88805  0.01573  0.40935  1.0000
  C   C2049     1.0  0.93122  0.99242  0.38850  1.0000
  S   S563      1.0  0.68098  0.10777  0.99110  1.0000
  H   H2447     1.0  0.88260  0.16042  0.01752  1.0000
  H   H2448     1.0  0.86967  0.07031  0.25370  1.0000
  C   C2050     1.0  0.90131  0.07598  0.20085  1.0000
  H   H2449     1.0  0.85411  0.10281  0.10223  1.0000
  H   H2450     1.0  0.94059  0.00679  0.41572  1.0000
  C   C2051     1.0  0.81433  0.01348  0.21994  1.0000
  C   C2052     1.0  0.93206  0.15522  0.33939  1.0000
  H   H2451     1.0  0.95678  0.05953  0.38726  1.0000
  C   C2053     1.0  0.97542  0.08342  0.33519  1.0000
  H   H2452     1.0  0.81965  0.03098  0.18345  1.0000
  H   H2453     1.0  0.90246  0.02177  0.22228  1.0000
  H   H2454     1.0  0.82790  0.14266  0.00713  1.0000
  H   H2455     1.0  0.91655  0.01970  0.42394  1.0000
  C   C2054     1.0  0.97489  0.07937  0.36955  1.0000
  H   H2456     1.0  0.69055  0.17367  0.14357  1.0000
  C   C2055     1.0  0.90588  0.06205  0.18893  1.0000
  H   H2457     1.0  0.72210  0.20396  0.15668  1.0000
  C   C2056     1.0  0.71082  0.20527  0.12261  1.0000
  H   H2458     1.0  0.66090  0.23329  0.14166  1.0000
  H   H2459     1.0  0.92581  0.98923  0.44267  1.0000
  C   C2057     1.0  0.87223  0.05433  0.25766  1.0000
  C   C2058     1.0  0.89459  0.02445  0.25788  1.0000
  C   C2059     1.0  0.90568  0.05304  0.26011  1.0000
  C   C2060     1.0  0.98040  0.16616  0.30695  1.0000
  H   H2460     1.0  0.87550  0.19381  0.31331  1.0000
  H   H2461     1.0  0.89125  0.02103  0.27394  1.0000
  H   H2462     1.0  0.90304  0.04868  0.27609  1.0000
  H   H2463     1.0  0.92118  0.04741  0.25484  1.0000
  H   H2464     1.0  0.90366  0.06906  0.25751  1.0000
  C   C2061     1.0  0.86634  0.18829  0.30618  1.0000
  S   S564      1.0  0.67080  0.15103  0.06300  1.0000
  N   N138      1.0  0.69827  0.21023  0.14071  1.0000
  C   C2062     1.0  0.83527  0.03715  0.21190  1.0000
  H   H2465     1.0  0.86821  0.05104  0.27368  1.0000
  H   H2466     1.0  0.93870  0.17875  0.35045  1.0000
  H   H2467     1.0  0.78562  0.19461  0.00419  1.0000
  C   C2063     1.0  0.98207  0.08768  0.35073  1.0000
  C   C2064     1.0  0.93346  0.17472  0.33904  1.0000
  C   C2065     1.0  0.90607  0.04266  0.19698  1.0000
  H   H2468     1.0  0.85801  0.16147  0.10255  1.0000
  H   H2469     1.0  0.89074  0.16091  0.03941  1.0000
  C   C2066     1.0  0.85909  0.14989  0.09452  1.0000
  C   C2067     1.0  0.95840  0.13904  0.35642  1.0000
  H   H2470     1.0  0.71174  0.23493  0.13915  1.0000
  H   H2471     1.0  0.98093  0.08970  0.32057  1.0000
  H   H2472     1.0  0.71099  0.18380  0.15770  1.0000
  H   H2473     1.0  0.86241  0.10777  0.06726  1.0000
  C   C2068     1.0  0.92627  0.01367  0.41156  1.0000
  C   C2069     1.0  0.85061  0.23161  0.24422  1.0000
  C   C2070     1.0  0.74790  0.13178  0.98803  1.0000
  H   H2474     1.0  0.67318  0.22265  0.09676  1.0000
  C   C2071     1.0  0.92040  0.16600  0.30834  1.0000
  S   S565      1.0  0.70902  0.22564  0.06771  1.0000
  H   H2475     1.0  0.89815  0.19650  0.25244  1.0000
  C   C2072     1.0  0.88024  0.22353  0.25808  1.0000
  C   C2073     1.0  0.85244  0.20105  0.29672  1.0000
  H   H2476     1.0  0.92381  0.22653  0.35687  1.0000
  C   C2074     1.0  0.85525  0.13194  0.10452  1.0000
  H   H2477     1.0  0.84511  0.02345  0.17785  1.0000
  H   H2478     1.0  0.85120  0.12969  0.12014  1.0000
  N   N139      1.0  0.79255  0.11611  0.10256  1.0000
  C   C2075     1.0  0.77479  0.13116  0.10288  1.0000
  C   C2076     1.0  0.80640  0.12139  0.08475  1.0000
  C   C2077     1.0  0.78666  0.09766  0.10163  1.0000
  C   C2078     1.0  0.80213  0.11411  0.11949  1.0000
  C   C2079     1.0  0.79839  0.12870  0.13120  1.0000
  C   C2080     1.0  0.81654  0.09783  0.12400  1.0000
  C   C2081     1.0  0.80800  0.12669  0.14679  1.0000
  C   C2082     1.0  0.82595  0.09591  0.13972  1.0000
  C   C2083     1.0  0.82164  0.11029  0.15112  1.0000
  H   H2479     1.0  0.77818  0.14598  0.10061  1.0000
  H   H2480     1.0  0.76675  0.13127  0.09114  1.0000
  H   H2481     1.0  0.76452  0.12866  0.11674  1.0000
  H   H2482     1.0  0.81132  0.13511  0.08480  1.0000
  H   H2483     1.0  0.79974  0.12331  0.07161  1.0000
  H   H2484     1.0  0.81954  0.11002  0.08315  1.0000
  H   H2485     1.0  0.77785  0.09208  0.11557  1.0000
  H   H2486     1.0  0.77788  0.09945  0.09002  1.0000
  H   H2487     1.0  0.79926  0.08623  0.09802  1.0000
  H   H2488     1.0  0.78809  0.14185  0.12868  1.0000
  H   H2489     1.0  0.82093  0.08656  0.11526  1.0000
  H   H2490     1.0  0.80485  0.13800  0.15556  1.0000
  H   H2491     1.0  0.83681  0.08327  0.14296  1.0000
  H   H2492     1.0  0.82901  0.10885  0.16322  1.0000
  N   N140      1.0  0.93765  0.14008  0.35565  1.0000
  C   C2084     1.0  0.92592  0.14497  0.37418  1.0000
  C   C2085     1.0  0.93494  0.12049  0.35413  1.0000
  S   S566      1.0  0.92424  0.99685  0.29152  1.0000
  N   N141      1.0  0.91730  0.99994  0.40475  1.0000
  H   H2493     1.0  0.85105  0.21645  0.29639  1.0000
  C   C2086     1.0  0.74803  0.18072  0.98546  1.0000
  H   H2494     1.0  0.82946  0.00585  0.18475  1.0000
  C   C2087     1.0  0.98476  0.18287  0.31082  1.0000
  H   H2495     1.0  0.90264  0.02426  0.38679  1.0000
  S   S567      1.0  0.82236  0.17935  0.98241  1.0000
  H   H2496     1.0  0.75935  0.13792  0.01131  1.0000
  S   S568      1.0  0.89697  0.22873  0.27085  1.0000
  H   H2497     1.0  0.71696  0.18875  0.98986  1.0000
  H   H2498     1.0  0.99067  0.13794  0.30068  1.0000
  H   H2499     1.0  0.92917  0.02621  0.40003  1.0000
  H   H2500     1.0  0.79257  0.12110  0.00109  1.0000
  H   H2501     1.0  0.88278  0.98589  0.35289  1.0000
  C   C2088     1.0  0.97612  0.99265  0.08820  1.0000
  C   C2089     1.0  0.84867  0.98769  0.22901  1.0000
  H   H2502     1.0  0.97326  0.19485  0.31398  1.0000
  H   H2503     1.0  0.89968  0.99370  0.19964  1.0000
  H   H2504     1.0  0.89921  0.22072  0.20487  1.0000
  H   H2505     1.0  0.96589  0.00558  0.09117  1.0000
  C   C2090     1.0  0.98560  0.99127  0.06940  1.0000
  H   H2506     1.0  0.71111  0.13168  0.98067  1.0000
  C   C2091     1.0  0.66037  0.13252  0.01653  1.0000
  H   H2507     1.0  0.66085  0.09186  0.05493  1.0000
  C   C2092     1.0  0.69503  0.09429  0.84970  1.0000
  H   H2508     1.0  0.75005  0.20905  0.79735  1.0000
  H   H2509     1.0  0.95151  0.10575  0.85675  1.0000
  Fe  Fe284     1.0  0.87765  0.14728  0.93742  1.0000
  S   S569      1.0  0.87599  0.11568  0.94207  1.0000
  S   S570      1.0  0.89649  0.16266  0.91243  1.0000
  Fe  Fe285     1.0  0.84387  0.12576  0.94395  1.0000
  S   S571      1.0  0.82158  0.11486  0.93306  1.0000
  C   C2093     1.0  0.76508  0.17777  0.97199  1.0000
  S   S572      1.0  0.84590  0.15714  0.93680  1.0000
  Fe  Fe286     1.0  0.75186  0.17853  0.82465  1.0000
  S   S573      1.0  0.74701  0.20483  0.83898  1.0000
  S   S574      1.0  0.72702  0.17847  0.80896  1.0000
  Fe  Fe287     1.0  0.78914  0.16196  0.84131  1.0000
  S   S575      1.0  0.78653  0.18647  0.85704  1.0000
  S   S576      1.0  0.81644  0.14063  0.84453  1.0000
  Fe  Fe288     1.0  0.75510  0.18358  0.86486  1.0000
  S   S577      1.0  0.73963  0.18190  0.89570  1.0000
  Fe  Fe289     1.0  0.77911  0.20514  0.82966  1.0000
  C   C2094     1.0  0.67290  0.07741  0.87445  1.0000
  S   S578      1.0  0.75823  0.15739  0.85131  1.0000
  S   S579      1.0  0.78336  0.18057  0.81322  1.0000
  H   H2510     1.0  0.89814  0.19664  0.88174  1.0000
  H   H2511     1.0  0.72267  0.13894  0.83054  1.0000
  C   C2095     1.0  0.95471  0.09536  0.88600  1.0000
  H   H2512     1.0  0.71529  0.19379  0.95497  1.0000
  H   H2513     1.0  0.78772  0.22602  0.75697  1.0000
  C   C2096     1.0  0.92821  0.14240  0.84804  1.0000
  N   N142      1.0  0.78303  0.17745  0.93797  1.0000
  N   N143      1.0  0.75801  0.22224  0.76798  1.0000
  C   C2097     1.0  0.85800  0.20839  0.84444  1.0000
  H   H2514     1.0  0.95711  0.13102  0.93642  1.0000
  S   S580      1.0  0.68562  0.13324  0.71006  1.0000
  C   C2098     1.0  0.68710  0.09223  0.79551  1.0000
  H   H2515     1.0  0.92157  0.10505  0.92551  1.0000
  H   H2516     1.0  0.90666  0.19555  0.85648  1.0000
  Fe  Fe290     1.0  0.68428  0.12720  0.74237  1.0000
  S   S581      1.0  0.71141  0.12351  0.75604  1.0000
  H   H2517     1.0  0.79983  0.15641  0.95729  1.0000
  H   H2518     1.0  0.69421  0.06254  0.80844  1.0000
  N   N144      1.0  0.70035  0.12765  0.85242  1.0000
  C   C2099     1.0  0.68300  0.07527  0.80767  1.0000
  C   C2100     1.0  0.77642  0.19013  0.75863  1.0000
  H   H2519     1.0  0.72008  0.10227  0.95590  1.0000
  C   C2101     1.0  0.88660  0.23116  0.84413  1.0000
  H   H2520     1.0  0.72063  0.15117  0.96364  1.0000
  C   C2102     1.0  0.95447  0.20335  0.84586  1.0000
  H   H2521     1.0  0.67207  0.12161  0.88432  1.0000
  H   H2522     1.0  0.68996  0.14630  0.59032  1.0000
  C   C2103     1.0  0.74619  0.18619  0.94618  1.0000
  H   H2523     1.0  0.76042  0.15578  0.74246  1.0000
  H   H2524     1.0  0.96098  0.19188  0.85597  1.0000
  H   H2525     1.0  0.74467  0.09224  0.95890  1.0000
  H   H2526     1.0  0.72119  0.11754  0.87162  1.0000
  C   C2104     1.0  0.68635  0.07794  0.85734  1.0000
  C   C2105     1.0  0.78541  0.11240  0.97686  1.0000
  H   H2527     1.0  0.71768  0.14319  0.86308  1.0000
  H   H2528     1.0  0.92065  0.15276  0.83703  1.0000
  C   C2106     1.0  0.72321  0.16286  0.79430  1.0000
  C   C2107     1.0  0.73696  0.14683  0.78964  1.0000
  C   C2108     1.0  0.73308  0.13488  0.77801  1.0000
  C   C2109     1.0  0.71550  0.13885  0.77084  1.0000
  C   C2110     1.0  0.70172  0.15478  0.77566  1.0000
  C   C2111     1.0  0.70555  0.16667  0.78734  1.0000
  H   H2529     1.0  0.75063  0.14373  0.79483  1.0000
  H   H2530     1.0  0.74385  0.12259  0.77436  1.0000
  H   H2531     1.0  0.68815  0.15806  0.77026  1.0000
  H   H2532     1.0  0.69479  0.17900  0.79088  1.0000
  C   C2112     1.0  0.69062  0.11056  0.85929  1.0000
  C   C2113     1.0  0.77683  0.17300  0.75197  1.0000
  H   H2533     1.0  0.67489  0.14836  0.86090  1.0000
  C   C2114     1.0  0.94947  0.19924  0.82951  1.0000
  C   C2115     1.0  0.75170  0.12279  0.97137  1.0000
  C   C2116     1.0  0.71018  0.13042  0.86772  1.0000
  Fe  Fe291     1.0  0.84287  0.15579  0.96862  1.0000
  H   H2534     1.0  0.83149  0.17203  0.85731  1.0000
  C   C2117     1.0  0.79436  0.15803  0.94352  1.0000
  H   H2535     1.0  0.86954  0.21932  0.89200  1.0000
  C   C2118     1.0  0.71679  0.17524  0.89849  1.0000
  C   C2119     1.0  0.70808  0.16655  0.91663  1.0000
  C   C2120     1.0  0.69047  0.15987  0.91869  1.0000
  C   C2121     1.0  0.68112  0.16277  0.90276  1.0000
  C   C2122     1.0  0.68933  0.17246  0.88491  1.0000
  C   C2123     1.0  0.70736  0.17822  0.88265  1.0000
  H   H2536     1.0  0.71510  0.16478  0.92897  1.0000
  H   H2537     1.0  0.68400  0.15270  0.93256  1.0000
  C   C2124     1.0  0.67642  0.10971  0.87637  1.0000
  H   H2538     1.0  0.71383  0.18523  0.86868  1.0000
  C   C2125     1.0  0.92178  0.15620  0.91100  1.0000
  C   C2126     1.0  0.93021  0.14494  0.92649  1.0000
  C   C2127     1.0  0.95056  0.13975  0.92449  1.0000
  C   C2128     1.0  0.96238  0.14557  0.90693  1.0000
  C   C2129     1.0  0.95382  0.15682  0.89158  1.0000
  C   C2130     1.0  0.93365  0.16228  0.89366  1.0000
  H   H2539     1.0  0.92111  0.14022  0.93995  1.0000
  H   H2540     1.0  0.96276  0.16147  0.87807  1.0000
  H   H2541     1.0  0.92730  0.17107  0.88169  1.0000
  C   C2131     1.0  0.82052  0.12317  0.90853  1.0000
  C   C2132     1.0  0.83746  0.12388  0.89476  1.0000
  C   C2133     1.0  0.83623  0.12906  0.87503  1.0000
  C   C2134     1.0  0.81805  0.13422  0.86916  1.0000
  C   C2135     1.0  0.80115  0.13441  0.88305  1.0000
  C   C2136     1.0  0.80238  0.12852  0.90267  1.0000
  H   H2542     1.0  0.85148  0.11966  0.89930  1.0000
  H   H2543     1.0  0.84931  0.12903  0.86430  1.0000
  H   H2544     1.0  0.78710  0.13846  0.87860  1.0000
  H   H2545     1.0  0.78928  0.12800  0.91329  1.0000
  Fe  Fe292     1.0  0.87052  0.11789  0.97372  1.0000
  C   C2137     1.0  0.86377  0.18929  0.87533  1.0000
  H   H2546     1.0  0.80865  0.19062  0.92786  1.0000
  C   C2138     1.0  0.67070  0.14557  0.62626  1.0000
  H   H2547     1.0  0.69268  0.15822  0.84224  1.0000
  H   H2548     1.0  0.67772  0.14344  0.83682  1.0000
  H   H2549     1.0  0.78661  0.20707  0.93434  1.0000
  C   C2139     1.0  0.73185  0.10297  0.96366  1.0000
  S   S582      1.0  0.95661  0.17598  0.82351  1.0000
  S   S583      1.0  0.87486  0.14882  0.96881  1.0000
  C   C2140     1.0  0.66602  0.12066  0.60901  1.0000
  H   H2550     1.0  0.83726  0.19968  0.83137  1.0000
  H   H2551     1.0  0.68730  0.12367  0.66848  1.0000
  H   H2552     1.0  0.80000  0.10481  0.97260  1.0000
  H   H2553     1.0  0.74802  0.14287  0.93608  1.0000
  H   H2554     1.0  0.99157  0.22568  0.83587  1.0000
  H   H2555     1.0  0.78328  0.21427  0.78191  1.0000
  H   H2556     1.0  0.89321  0.22349  0.83173  1.0000
  H   H2557     1.0  0.84794  0.16559  0.88572  1.0000
  C   C2141     1.0  0.68356  0.15423  0.65791  1.0000
  C   C2142     1.0  0.93954  0.21408  0.81735  1.0000
  H   H2558     1.0  0.66189  0.06108  0.82774  1.0000
  S   S584      1.0  0.67139  0.10551  0.93997  1.0000
  C   C2143     1.0  0.92575  0.11709  0.87613  1.0000
  C   C2144     1.0  0.91756  0.11604  0.89605  1.0000
  C   C2145     1.0  0.94445  0.10598  0.87156  1.0000
  H   H2559     1.0  0.69027  0.06548  0.85011  1.0000
  H   H2560     1.0  0.67736  0.18390  0.64465  1.0000
  H   H2561     1.0  0.68189  0.17526  0.87270  1.0000
  C   C2146     1.0  0.67765  0.16902  0.64341  1.0000
  C   C2147     1.0  0.68576  0.14513  0.84794  1.0000
  H   H2562     1.0  0.68152  0.11365  0.60815  1.0000
  H   H2563     1.0  0.73169  0.12962  0.93055  1.0000
  C   C2148     1.0  0.86804  0.20491  0.86034  1.0000
  H   H2564     1.0  0.90342  0.12385  0.90106  1.0000
  H   H2565     1.0  0.92501  0.10782  0.84149  1.0000
  Fe  Fe293     1.0  0.98311  0.15920  0.83564  1.0000
  H   H2566     1.0  0.90357  0.12460  0.83688  1.0000
  H   H2567     1.0  0.88633  0.13178  0.87650  1.0000
  H   H2568     1.0  0.89915  0.15101  0.87660  1.0000
  H   H2569     1.0  0.67584  0.12155  0.78430  1.0000
  C   C2149     1.0  0.67266  0.10850  0.79409  1.0000
  H   H2570     1.0  0.70529  0.09374  0.83639  1.0000
  C   C2150     1.0  0.89694  0.14090  0.86770  1.0000
  C   C2151     1.0  0.72921  0.18912  0.95977  1.0000
  C   C2152     1.0  0.71812  0.13608  0.96552  1.0000
  C   C2153     1.0  0.85090  0.17748  0.87412  1.0000
  H   H2571     1.0  0.79419  0.17622  0.90770  1.0000
  H   H2572     1.0  0.98901  0.22767  0.87141  1.0000
  H   H2573     1.0  0.72983  0.22069  0.78597  1.0000
  Fe  Fe294     1.0  0.66575  0.11153  0.71438  1.0000
  H   H2574     1.0  0.66648  0.06460  0.88057  1.0000
  H   H2575     1.0  0.95578  0.22553  0.86146  1.0000
  H   H2576     1.0  0.90248  0.10563  0.85761  1.0000
  C   C2154     1.0  0.91152  0.11622  0.84860  1.0000
  H   H2577     1.0  0.66326  0.06133  0.67415  1.0000
  H   H2578     1.0  0.79009  0.16247  0.75067  1.0000
  S   S585      1.0  0.98294  0.13065  0.85521  1.0000
  C   C2155     1.0  0.76470  0.18031  0.95193  1.0000
  H   H2579     1.0  0.69987  0.13299  0.88118  1.0000
  C   C2156     1.0  0.92787  0.10519  0.91038  1.0000
  C   C2157     1.0  0.90002  0.20546  0.86706  1.0000
  H   H2580     1.0  0.85967  0.22029  0.83267  1.0000
  H   H2581     1.0  0.68801  0.15766  0.67020  1.0000
  C   C2158     1.0  0.78016  0.17892  0.91775  1.0000
  C   C2159     1.0  0.74330  0.12854  0.93916  1.0000
  C   C2160     1.0  0.68311  0.13515  0.65691  1.0000
  H   H2582     1.0  0.70884  0.12532  0.82215  1.0000
  C   C2161     1.0  0.84158  0.18110  0.85819  1.0000
  H   H2583     1.0  0.77273  0.19355  0.91197  1.0000
  H   H2584     1.0  0.72695  0.11336  0.83710  1.0000
  H   H2585     1.0  0.96927  0.08757  0.88214  1.0000
  H   H2586     1.0  0.70707  0.13606  0.95661  1.0000
  H   H2587     1.0  0.91091  0.21453  0.86713  1.0000
  H   H2588     1.0  0.93544  0.21095  0.80476  1.0000
  H   H2589     1.0  0.88983  0.14990  0.85567  1.0000
  H   H2590     1.0  0.79860  0.19119  0.95265  1.0000
  C   C2162     1.0  0.67687  0.13077  0.64132  1.0000
  N   N145      1.0  0.91565  0.12900  0.86052  1.0000
  N   N146      1.0  0.73646  0.12273  0.96018  1.0000
  C   C2163     1.0  0.94649  0.09510  0.90539  1.0000
  H   H2591     1.0  0.77489  0.10504  0.95428  1.0000
  C   C2164     1.0  0.66779  0.09335  0.88381  1.0000
  H   H2592     1.0  0.75557  0.11799  0.93315  1.0000
  C   C2165     1.0  0.74235  0.19950  0.75620  1.0000
  H   H2593     1.0  0.66561  0.17699  0.61767  1.0000
  H   H2594     1.0  0.94150  0.13482  0.83981  1.0000
  H   H2595     1.0  0.93315  0.15102  0.85677  1.0000
  C   C2166     1.0  0.84499  0.19661  0.84349  1.0000
  C   C2167     1.0  0.79470  0.19222  0.93820  1.0000
  H   H2596     1.0  0.77158  0.16805  0.91656  1.0000
  N   N147      1.0  0.88152  0.21738  0.86211  1.0000
  H   H2597     1.0  0.66978  0.14706  0.57856  1.0000
  H   H2598     1.0  0.70142  0.09270  0.78687  1.0000
  C   C2168     1.0  0.95120  0.22240  0.84914  1.0000
  H   H2599     1.0  0.67669  0.11570  0.64170  1.0000
  C   C2169     1.0  0.76017  0.16921  0.74729  1.0000
  H   H2600     1.0  0.87010  0.18628  0.88829  1.0000
  H   H2601     1.0  0.74442  0.18891  0.93126  1.0000
  C   C2170     1.0  0.75912  0.20403  0.76079  1.0000
  H   H2602     1.0  0.80742  0.15485  0.93245  1.0000
  C   C2171     1.0  0.77706  0.22556  0.77067  1.0000
  C   C2172     1.0  0.67398  0.15086  0.59124  1.0000
  C   C2173     1.0  0.71530  0.12609  0.83479  1.0000
  N   N148      1.0  0.66350  0.14158  0.60977  1.0000
  C   C2174     1.0  0.74298  0.18243  0.74939  1.0000
  C   C2175     1.0  0.67104  0.16486  0.62795  1.0000
  H   H2603     1.0  0.95463  0.08722  0.91658  1.0000
  C   C2176     1.0  0.77088  0.11280  0.96633  1.0000
  S   S586      1.0  0.66866  0.08823  0.69624  1.0000
  S   S587      1.0  0.98781  0.13870  0.90382  1.0000
  S   S588      1.0  0.66719  0.10308  0.74615  1.0000
  H   H2604     1.0  0.72990  0.17912  0.74630  1.0000
  H   H2605     1.0  0.78978  0.19198  0.76224  1.0000
  H   H2606     1.0  0.66281  0.03443  0.72671  1.0000
  H   H2607     1.0  0.72845  0.20888  0.75830  1.0000
  H   H2608     1.0  0.72669  0.09810  0.97932  1.0000
  H   H2609     1.0  0.74407  0.23491  0.79331  1.0000
  H   H2610     1.0  0.78562  0.14653  0.94499  1.0000
  S   S589      1.0  0.83825  0.12503  0.97583  1.0000
  H   H2611     1.0  0.97952  0.22394  0.79751  1.0000
  H   H2612     1.0  0.67078  0.16689  0.58938  1.0000
  C   C2177     1.0  0.66445  0.07457  0.81856  1.0000
  C   C2178     1.0  0.93589  0.23319  0.82083  1.0000
  H   H2613     1.0  0.79524  0.23332  0.85328  1.0000
  C   C2179     1.0  0.74489  0.22182  0.78690  1.0000
  C   C2180     1.0  0.87233  0.22874  0.87770  1.0000
  C   C2181     1.0  0.66742  0.98685  0.68015  1.0000
  S   S590      1.0  0.79447  0.23013  0.81348  1.0000
  H   H2614     1.0  0.68307  0.98733  0.67451  1.0000
  H   H2615     1.0  0.77865  0.17368  0.97740  1.0000
  C   C2182     1.0  0.73012  0.18634  0.97937  1.0000
  H   H2616     1.0  0.66080  0.11807  0.59632  1.0000
  Fe  Fe295     1.0  0.75916  0.40505  0.38310  1.0000
  S   S591      1.0  0.77450  0.37512  0.39230  1.0000
  S   S592      1.0  0.75459  0.43037  0.39883  1.0000
  Fe  Fe296     1.0  0.74405  0.39303  0.35035  1.0000
  S   S593      1.0  0.75803  0.36208  0.35769  1.0000
  S   S594      1.0  0.72677  0.40629  0.32607  1.0000
  Fe  Fe297     1.0  0.74729  0.36617  0.38864  1.0000
  S   S595      1.0  0.73395  0.34413  0.41171  1.0000
  Fe  Fe298     1.0  0.78373  0.37424  0.36054  1.0000
  S   S596      1.0  0.81454  0.36595  0.34533  1.0000
  S   S597      1.0  0.73139  0.39616  0.38111  1.0000
  S   S598      1.0  0.77031  0.40518  0.35145  1.0000
  C   C2183     1.0  0.86110  0.41311  0.36941  1.0000
  C   C2184     1.0  0.68297  0.34011  0.44788  1.0000
  H   H2617     1.0  0.91890  0.43487  0.45434  1.0000
  H   H2618     1.0  0.68189  0.29578  0.10414  1.0000
  S   S599      1.0  0.79210  0.45307  0.46251  1.0000
  C   C2185     1.0  0.68896  0.24260  0.07602  1.0000
  H   H2619     1.0  0.85188  0.42029  0.35834  1.0000
  C   C2186     1.0  0.87677  0.24496  0.19927  1.0000
  S   S600      1.0  0.88816  0.40880  0.46563  1.0000
  S   S601      1.0  0.98801  0.38344  0.33399  1.0000
  S   S602      1.0  0.84696  0.45494  0.46672  1.0000
  H   H2620     1.0  0.66132  0.45022  0.35198  1.0000
  S   S603      1.0  0.70011  0.36390  0.26858  1.0000
  C   C2187     1.0  0.69251  0.44388  0.34700  1.0000
  Fe  Fe299     1.0  0.87892  0.27208  0.32371  1.0000
  S   S604      1.0  0.87815  0.28123  0.29199  1.0000
  S   S605      1.0  0.85139  0.27764  0.34513  1.0000
  C   C2188     1.0  0.76105  0.37993  0.47273  1.0000
  S   S606      1.0  0.92402  0.26339  0.28537  1.0000
  Fe  Fe300     1.0  0.90604  0.29161  0.29162  1.0000
  S   S607      1.0  0.91507  0.31922  0.27391  1.0000
  Fe  Fe301     1.0  0.89624  0.25187  0.28906  1.0000
  H   H2621     1.0  0.67237  0.45700  0.24891  1.0000
  S   S608      1.0  0.90545  0.28440  0.32343  1.0000
  H   H2622     1.0  0.96643  0.28831  0.29685  1.0000
  Fe  Fe302     1.0  0.94077  0.40880  0.36109  1.0000
  S   S609      1.0  0.95376  0.42040  0.33057  1.0000
  S   S610      1.0  0.91156  0.42396  0.37440  1.0000
  Fe  Fe303     1.0  0.95846  0.38950  0.32589  1.0000
  S   S611      1.0  0.95517  0.38027  0.29838  1.0000
  S   S612      1.0  0.94331  0.37868  0.35535  1.0000
  H   H2623     1.0  0.71261  0.38288  0.47863  1.0000
  C   C2189     1.0  0.67462  0.38200  0.33776  1.0000
  H   H2624     1.0  0.83744  0.24160  0.24176  1.0000
  H   H2625     1.0  0.94843  0.33086  0.38101  1.0000
  C   C2190     1.0  0.72067  0.40820  0.44574  1.0000
  Fe  Fe304     1.0  0.81860  0.44403  0.47718  1.0000
  C   C2191     1.0  0.92641  0.33509  0.28228  1.0000
  C   C2192     1.0  0.93483  0.34910  0.26844  1.0000
  C   C2193     1.0  0.94363  0.36242  0.27386  1.0000
  C   C2194     1.0  0.94403  0.36231  0.29329  1.0000
  C   C2195     1.0  0.93567  0.34827  0.30742  1.0000
  C   C2196     1.0  0.92692  0.33463  0.30188  1.0000
  H   H2626     1.0  0.93451  0.34972  0.25331  1.0000
  H   H2627     1.0  0.94998  0.37313  0.26282  1.0000
  H   H2628     1.0  0.93569  0.34814  0.32250  1.0000
  H   H2629     1.0  0.92019  0.32408  0.31271  1.0000
  C   C2197     1.0  0.67931  0.29082  0.12008  1.0000
  H   H2630     1.0  0.93373  0.44088  0.46857  1.0000
  H   H2631     1.0  0.68152  0.37223  0.32778  1.0000
  C   C2198     1.0  0.68920  0.26202  0.06802  1.0000
  H   H2632     1.0  0.88993  0.46831  0.40282  1.0000
  H   H2633     1.0  0.70121  0.26600  0.05701  1.0000
  H   H2634     1.0  0.69978  0.31517  0.12749  1.0000
  C   C2199     1.0  0.89414  0.41268  0.44024  1.0000
  C   C2200     1.0  0.88113  0.42419  0.42868  1.0000
  C   C2201     1.0  0.88656  0.42741  0.40846  1.0000
  C   C2202     1.0  0.90502  0.41923  0.39973  1.0000
  C   C2203     1.0  0.91791  0.40752  0.41126  1.0000
  C   C2204     1.0  0.91247  0.40427  0.43146  1.0000
  H   H2635     1.0  0.86695  0.43069  0.43531  1.0000
  H   H2636     1.0  0.87650  0.43645  0.39961  1.0000
  H   H2637     1.0  0.93212  0.40105  0.40465  1.0000
  H   H2638     1.0  0.92255  0.39526  0.44033  1.0000
  C   C2205     1.0  0.71908  0.39406  0.31065  1.0000
  C   C2206     1.0  0.72371  0.37399  0.31182  1.0000
  C   C2207     1.0  0.71755  0.36496  0.29903  1.0000
  C   C2208     1.0  0.70676  0.37583  0.28494  1.0000
  C   C2209     1.0  0.70183  0.39585  0.28401  1.0000
  C   C2210     1.0  0.70800  0.40489  0.29680  1.0000
  H   H2639     1.0  0.73198  0.36542  0.32258  1.0000
  H   H2640     1.0  0.72120  0.34944  0.30001  1.0000
  H   H2641     1.0  0.69955  0.37457  0.35209  1.0000
  H   H2642     1.0  0.70431  0.42041  0.29583  1.0000
  C   C2211     1.0  0.82438  0.34131  0.34545  1.0000
  C   C2212     1.0  0.81501  0.32676  0.35732  1.0000
  C   C2213     1.0  0.82336  0.30724  0.35712  1.0000
  C   C2214     1.0  0.84102  0.30218  0.34498  1.0000
  C   C2215     1.0  0.85021  0.31676  0.33290  1.0000
  C   C2216     1.0  0.84191  0.33625  0.33317  1.0000
  H   H2643     1.0  0.80146  0.33052  0.36683  1.0000
  H   H2644     1.0  0.81620  0.29601  0.36648  1.0000
  H   H2645     1.0  0.86377  0.31302  0.32343  1.0000
  H   H2646     1.0  0.84908  0.34741  0.32377  1.0000
  C   C2217     1.0  0.71027  0.35030  0.42437  1.0000
  C   C2218     1.0  0.70165  0.33578  0.43727  1.0000
  H   H2647     1.0  0.94499  0.27747  0.34829  1.0000
  H   H2648     1.0  0.88457  0.36771  0.38334  1.0000
  S   S613      1.0  0.66201  0.41655  0.45610  1.0000
  C   C2219     1.0  0.70004  0.36928  0.42220  1.0000
  H   H2649     1.0  0.70942  0.32107  0.43898  1.0000
  H   H2650     1.0  0.97468  0.23764  0.37980  1.0000
  H   H2651     1.0  0.90049  0.29023  0.25102  1.0000
  H   H2652     1.0  0.70639  0.38056  0.41225  1.0000
  C   C2220     1.0  0.76625  0.43491  0.41662  1.0000
  C   C2221     1.0  0.75825  0.45163  0.42456  1.0000
  C   C2222     1.0  0.76651  0.45661  0.43849  1.0000
  C   C2223     1.0  0.78312  0.44513  0.44473  1.0000
  C   C2224     1.0  0.79126  0.42813  0.43704  1.0000
  C   C2225     1.0  0.78274  0.42296  0.42300  1.0000
  H   H2653     1.0  0.74564  0.46101  0.41976  1.0000
  H   H2654     1.0  0.98775  0.34358  0.33859  1.0000
  H   H2655     1.0  0.80398  0.41904  0.44192  1.0000
  H   H2656     1.0  0.78904  0.40996  0.41702  1.0000
  H   H2657     1.0  0.66009  0.48097  0.40137  1.0000
  Fe  Fe305     1.0  0.97254  0.37429  0.36385  1.0000
  H   H2658     1.0  0.92336  0.33437  0.36087  1.0000
  C   C2226     1.0  0.93292  0.30594  0.35351  1.0000
  S   S614      1.0  0.96884  0.40336  0.37259  1.0000
  C   C2227     1.0  0.72135  0.37697  0.46571  1.0000
  H   H2659     1.0  0.93557  0.26020  0.22000  1.0000
  C   C2228     1.0  0.87974  0.37511  0.32006  1.0000
  H   H2660     1.0  0.73004  0.36285  0.47090  1.0000
  H   H2661     1.0  0.69361  0.43903  0.33340  1.0000
  H   H2662     1.0  0.88012  0.29270  0.23945  1.0000
  H   H2663     1.0  0.76248  0.36532  0.47022  1.0000
  C   C2229     1.0  0.98021  0.28967  0.30015  1.0000
  Fe  Fe306     1.0  0.67556  0.37655  0.25140  1.0000
  H   H2664     1.0  0.69359  0.40440  0.27321  1.0000
  C   C2230     1.0  0.67887  0.44772  0.41711  1.0000
  H   H2665     1.0  0.98711  0.31840  0.34496  1.0000
  C   C2231     1.0  0.89676  0.26541  0.21655  1.0000
  C   C2232     1.0  0.96143  0.30197  0.37611  1.0000
  S   S615      1.0  0.89538  0.24204  0.32105  1.0000
  H   H2666     1.0  0.67671  0.45185  0.43165  1.0000
  C   C2233     1.0  0.74558  0.41349  0.46999  1.0000
  H   H2667     1.0  0.72917  0.41909  0.43648  1.0000
  C   C2234     1.0  0.86296  0.23610  0.25509  1.0000
  Fe  Fe307     1.0  0.92191  0.25548  0.31744  1.0000
  C   C2235     1.0  0.87978  0.38348  0.38331  1.0000
  H   H2668     1.0  0.66724  0.38063  0.30095  1.0000
  H   H2669     1.0  0.68079  0.47822  0.23427  1.0000
  H   H2670     1.0  0.67444  0.29133  0.06746  1.0000
  H   H2671     1.0  0.88930  0.44360  0.47756  1.0000
  H   H2672     1.0  0.75589  0.39153  0.42845  1.0000
  H   H2673     1.0  0.91072  0.45320  0.42620  1.0000
  C   C2236     1.0  0.68984  0.45600  0.38287  1.0000
  H   H2674     1.0  0.93175  0.27377  0.23920  1.0000
  C   C2237     1.0  0.94791  0.31905  0.37389  1.0000
  C   C2238     1.0  0.67759  0.39557  0.36506  1.0000
  N   N149      1.0  0.73369  0.39075  0.45370  1.0000
  C   C2239     1.0  0.74546  0.38208  0.43701  1.0000
  C   C2240     1.0  0.70810  0.44952  0.37181  1.0000
  C   C2241     1.0  0.88753  0.47362  0.41638  1.0000
  C   C2242     1.0  0.67388  0.30150  0.18451  1.0000
  H   H2675     1.0  0.83775  0.38963  0.36603  1.0000
  C   C2243     1.0  0.91784  0.47786  0.46765  1.0000
  H   H2676     1.0  0.89308  0.39014  0.38014  1.0000
  H   H2677     1.0  0.71625  0.44892  0.40858  1.0000
  H   H2678     1.0  0.85163  0.36753  0.37681  1.0000
  H   H2679     1.0  0.75386  0.36754  0.44136  1.0000
  H   H2680     1.0  0.73629  0.37998  0.42708  1.0000
  H   H2681     1.0  0.85294  0.41620  0.38376  1.0000
  H   H2682     1.0  0.71105  0.37382  0.45751  1.0000
  H   H2683     1.0  0.95630  0.25400  0.39257  1.0000
  C   C2244     1.0  0.98235  0.30677  0.30530  1.0000
  C   C2245     1.0  0.84855  0.38352  0.37585  1.0000
  H   H2684     1.0  0.72623  0.47657  0.47606  1.0000
  H   H2685     1.0  0.73498  0.42574  0.46542  1.0000
  C   C2246     1.0  0.67332  0.23762  0.09034  1.0000
  C   C2247     1.0  0.98629  0.33081  0.33287  1.0000
  H   H2686     1.0  0.91971  0.30205  0.21860  1.0000
  H   H2687     1.0  0.87450  0.36675  0.31185  1.0000
  H   H2688     1.0  0.67953  0.33485  0.13021  1.0000
  H   H2689     1.0  0.87275  0.38560  0.39827  1.0000
  H   H2690     1.0  0.87397  0.42039  0.36651  1.0000
  H   H2691     1.0  0.84126  0.38644  0.39051  1.0000
  N   N150      1.0  0.78578  0.36244  0.29910  1.0000
  C   C2248     1.0  0.80638  0.36299  0.29040  1.0000
  C   C2249     1.0  0.77810  0.37941  0.30898  1.0000
  C   C2250     1.0  0.78514  0.34486  0.31417  1.0000
  C   C2251     1.0  0.77450  0.36303  0.28376  1.0000
  C   C2252     1.0  0.77161  0.37990  0.26964  1.0000
  C   C2253     1.0  0.76620  0.34711  0.28224  1.0000
  C   C2254     1.0  0.76023  0.38114  0.25560  1.0000
  C   C2255     1.0  0.75502  0.34847  0.26799  1.0000
  C   C2256     1.0  0.75182  0.36551  0.25489  1.0000
  H   H2692     1.0  0.80816  0.37644  0.27985  1.0000
  H   H2693     1.0  0.81533  0.36233  0.30165  1.0000
  H   H2694     1.0  0.81272  0.35054  0.28271  1.0000
  H   H2695     1.0  0.78022  0.39334  0.29947  1.0000
  H   H2696     1.0  0.78550  0.37876  0.32135  1.0000
  H   H2697     1.0  0.76231  0.38030  0.31461  1.0000
  H   H2698     1.0  0.79242  0.33150  0.30827  1.0000
  H   H2699     1.0  0.79286  0.34529  0.32601  1.0000
  H   H2700     1.0  0.76994  0.34338  0.32103  1.0000
  H   H2701     1.0  0.77785  0.39240  0.26953  1.0000
  H   H2702     1.0  0.76772  0.33360  0.29212  1.0000
  H   H2703     1.0  0.75763  0.39439  0.24540  1.0000
  H   H2704     1.0  0.74813  0.33649  0.26750  1.0000
  H   H2705     1.0  0.74248  0.36668  0.24440  1.0000
  H   H2706     1.0  0.93477  0.45242  0.44386  1.0000
  C   C2257     1.0  0.86986  0.37786  0.33854  1.0000
  C   C2258     1.0  0.90379  0.24576  0.21450  1.0000
  C   C2259     1.0  0.89667  0.47160  0.44803  1.0000
  H   H2707     1.0  0.68791  0.43308  0.41748  1.0000
  C   C2260     1.0  0.96462  0.25174  0.37805  1.0000
  H   H2708     1.0  0.85697  0.37138  0.34376  1.0000
  C   C2261     1.0  0.94635  0.28880  0.35557  1.0000
  N   N151      1.0  0.90660  0.27637  0.22585  1.0000
  C   C2262     1.0  0.68143  0.37368  0.43306  1.0000
  C   C2263     1.0  0.70671  0.46329  0.40682  1.0000
  C   C2264     1.0  0.99005  0.26783  0.38059  1.0000
  H   H2709     1.0  0.68594  0.39646  0.37577  1.0000
  H   H2710     1.0  0.89986  0.40464  0.34850  1.0000
  C   C2265     1.0  0.90344  0.39359  0.32250  1.0000
  H   H2711     1.0  0.68560  0.31946  0.15963  1.0000
  H   H2712     1.0  0.92174  0.25223  0.24340  1.0000
  H   H2713     1.0  0.92166  0.30742  0.34500  1.0000
  S   S616      1.0  0.67776  0.38365  0.21898  1.0000
  C   C2266     1.0  0.93376  0.32107  0.36256  1.0000
  H   H2714     1.0  0.71051  0.41496  0.45743  1.0000
  H   H2715     1.0  0.66889  0.46377  0.22446  1.0000
  C   C2267     1.0  0.89639  0.38306  0.31202  1.0000
  H   H2716     1.0  0.91655  0.23752  0.21992  1.0000
  H   H2717     1.0  0.70475  0.46852  0.42079  1.0000
  C   C2268     1.0  0.89336  0.28259  0.24310  1.0000
  H   H2718     1.0  0.87292  0.28908  0.21081  1.0000
  H   H2719     1.0  0.71464  0.47337  0.39555  1.0000
  H   H2720     1.0  0.90395  0.38094  0.29768  1.0000
  H   H2721     1.0  0.88850  0.26989  0.25330  1.0000
  C   C2269     1.0  0.68510  0.32142  0.12387  1.0000
  N   N152      1.0  0.86656  0.39205  0.36916  1.0000
  C   C2270     1.0  0.91179  0.29377  0.21217  1.0000
  C   C2271     1.0  0.68520  0.38316  0.35174  1.0000
  H   H2722     1.0  0.76009  0.46969  0.44432  1.0000
  H   H2723     1.0  0.89882  0.30404  0.20801  1.0000
  H   H2724     1.0  0.95408  0.25003  0.36936  1.0000
  C   C2272     1.0  0.92472  0.26509  0.23231  1.0000
  C   C2273     1.0  0.74666  0.39487  0.46546  1.0000
  H   H2725     1.0  0.97144  0.33393  0.32929  1.0000
  H   H2726     1.0  0.91655  0.39958  0.31626  1.0000
  H   H2727     1.0  0.98338  0.26960  0.39571  1.0000
  H   H2728     1.0  0.67643  0.32874  0.45773  1.0000
  H   H2729     1.0  0.72335  0.43863  0.34597  1.0000
  C   C2274     1.0  0.89954  0.46509  0.43003  1.0000
  H   H2730     1.0  0.98806  0.45016  0.36362  1.0000
  C   C2275     1.0  0.87658  0.38871  0.34958  1.0000
  C   C2276     1.0  0.89375  0.39638  0.34099  1.0000
  H   H2731     1.0  0.67348  0.38825  0.43105  1.0000
  C   C2277     1.0  0.70929  0.44362  0.35414  1.0000
  C   C2278     1.0  0.96111  0.28628  0.36690  1.0000
  N   N153      1.0  0.68790  0.46199  0.40184  1.0000
  C   C2279     1.0  0.92478  0.44713  0.45707  1.0000
  H   H2732     1.0  0.69115  0.23995  0.12733  1.0000
  S   S617      1.0  0.98333  0.34497  0.37959  1.0000
  C   C2280     1.0  0.67289  0.35909  0.44597  1.0000
  H   H2733     1.0  0.85592  0.27105  0.19623  1.0000
  C   C2281     1.0  0.67723  0.30795  0.16455  1.0000
  N   N154      1.0  0.97515  0.26795  0.36884  1.0000
  C   C2282     1.0  0.67305  0.45585  0.37526  1.0000
  C   C2283     1.0  0.67538  0.48124  0.40215  1.0000
  Fe  Fe308     1.0  0.85995  0.42506  0.47963  1.0000
  C   C2284     1.0  0.67441  0.45008  0.35751  1.0000
  N   N155      1.0  0.67162  0.30726  0.13074  1.0000
  H   H2734     1.0  0.97204  0.30160  0.38501  1.0000
  H   H2735     1.0  0.85920  0.24938  0.26095  1.0000
  C   C2285     1.0  0.66923  0.30017  0.15184  1.0000
  H   H2736     1.0  0.67938  0.30822  0.19404  1.0000
  C   C2286     1.0  0.67402  0.27640  0.07397  1.0000
  H   H2737     1.0  0.97576  0.26282  0.33997  1.0000
  H   H2738     1.0  0.96997  0.31835  0.30554  1.0000
  H   H2739     1.0  0.72172  0.44867  0.37650  1.0000
  H   H2740     1.0  0.71147  0.40463  0.43664  1.0000
  H   H2741     1.0  0.69323  0.28264  0.12428  1.0000
  H   H2742     1.0  0.68699  0.32602  0.10789  1.0000
  Fe  Fe309     1.0  0.98218  0.41321  0.34172  1.0000
  C   C2287     1.0  0.66260  0.28721  0.19238  1.0000
  N   N156      1.0  0.90891  0.46285  0.46297  1.0000
  H   H2743     1.0  0.92120  0.28974  0.19868  1.0000
  C   C2288     1.0  0.66879  0.46970  0.23763  1.0000
  S   S618      1.0  0.95143  0.24373  0.32567  1.0000
  C   C2289     1.0  0.87930  0.27430  0.20952  1.0000
  C   C2290     1.0  0.86947  0.26415  0.20108  1.0000
  H   H2744     1.0  0.92781  0.47160  0.47824  1.0000
  H   H2745     1.0  0.98464  0.34546  0.29548  1.0000
  H   H2746     1.0  0.66898  0.28058  0.12258  1.0000
  C   C2291     1.0  0.98559  0.26437  0.34947  1.0000
  H   H2747     1.0  0.66431  0.44644  0.41481  1.0000
  H   H2748     1.0  0.86882  0.23693  0.19325  1.0000
  C   C2292     1.0  0.89392  0.23584  0.20586  1.0000
  C   C2293     1.0  0.75866  0.41695  0.48042  1.0000
  H   H2749     1.0  0.68806  0.23593  0.15357  1.0000
  S   S619      1.0  0.69118  0.41708  0.49554  1.0000
  Fe  Fe310     1.0  0.73026  0.37012  0.62426  1.0000
  S   S620      1.0  0.73653  0.34217  0.61247  1.0000
  S   S621      1.0  0.74802  0.37006  0.64740  1.0000
  Fe  Fe311     1.0  0.70098  0.38808  0.59750  1.0000
  S   S622      1.0  0.70536  0.36198  0.58356  1.0000
  C   C2294     1.0  0.89346  0.41263  0.73423  1.0000
  Fe  Fe312     1.0  0.70433  0.34538  0.61355  1.0000
  H   H2750     1.0  0.93225  0.44279  0.89176  1.0000
  Fe  Fe313     1.0  0.73684  0.36115  0.58362  1.0000
  S   S623      1.0  0.75880  0.35545  0.55724  1.0000
  S   S624      1.0  0.69776  0.37167  0.62794  1.0000
  S   S625      1.0  0.73263  0.38888  0.59493  1.0000
  S   S626      1.0  0.81881  0.41139  0.54689  1.0000
  C   C2295     1.0  0.85713  0.45433  0.61013  1.0000
  S   S627      1.0  0.85909  0.43275  0.50875  1.0000
  Fe  Fe314     1.0  0.98303  0.37027  0.88664  1.0000
  C   C2296     1.0  0.73095  0.46888  0.48938  1.0000
  S   S628      1.0  0.95275  0.36504  0.90054  1.0000
  H   H2751     1.0  0.90533  0.44718  0.49224  1.0000
  H   H2752     1.0  0.75041  0.30689  0.54626  1.0000
  H   H2753     1.0  0.68283  0.31543  0.55267  1.0000
  C   C2297     1.0  0.89012  0.43299  0.73326  1.0000
  H   H2754     1.0  0.95223  0.42551  0.89916  1.0000
  Fe  Fe315     1.0  0.91472  0.28196  0.83166  1.0000
  S   S629      1.0  0.89141  0.28785  0.85687  1.0000
  Fe  Fe316     1.0  0.89352  0.31198  0.80351  1.0000
  S   S630      1.0  0.86870  0.32009  0.82685  1.0000
  S   S631      1.0  0.89573  0.32616  0.77208  1.0000
  Fe  Fe317     1.0  0.89197  0.31903  0.84414  1.0000
  S   S632      1.0  0.88977  0.34246  0.86184  1.0000
  Fe  Fe318     1.0  0.87066  0.28808  0.83703  1.0000
  S   S633      1.0  0.84428  0.27338  0.84970  1.0000
  S   S634      1.0  0.91658  0.31312  0.82012  1.0000
  S   S635      1.0  0.89418  0.27984  0.81263  1.0000
  Fe  Fe319     1.0  0.82586  0.45204  0.71163  1.0000
  S   S636      1.0  0.84926  0.42648  0.71615  1.0000
  H   H2755     1.0  0.77031  0.46016  0.51090  1.0000
  Fe  Fe320     1.0  0.80626  0.43096  0.68855  1.0000
  S   S637      1.0  0.82886  0.40419  0.69159  1.0000
  S   S638      1.0  0.78415  0.43612  0.66832  1.0000
  Fe  Fe321     1.0  0.82547  0.40895  0.72232  1.0000
  S   S639      1.0  0.82270  0.38666  0.74951  1.0000
  Fe  Fe322     1.0  0.85016  0.42469  0.68523  1.0000
  S   S640      1.0  0.87686  0.42526  0.66245  1.0000
  S   S641      1.0  0.80147  0.43479  0.71982  1.0000
  S   S642      1.0  0.82804  0.45102  0.68019  1.0000
  C   C2298     1.0  0.95611  0.29417  0.87153  1.0000
  S   S643      1.0  0.90799  0.45775  0.85309  1.0000
  H   H2756     1.0  0.95243  0.28501  0.88583  1.0000
  H   H2757     1.0  0.71506  0.43987  0.53039  1.0000
  H   H2758     1.0  0.90308  0.42716  0.69580  1.0000
  C   C2299     1.0  0.75573  0.45933  0.50963  1.0000
  H   H2759     1.0  0.81457  0.25073  0.86678  1.0000
  H   H2760     1.0  0.92048  0.37566  0.71090  1.0000
  C   C2300     1.0  0.88435  0.44776  0.65933  1.0000
  H   H2761     1.0  0.71210  0.32015  0.58654  1.0000
  C   C2301     1.0  0.98155  0.30480  0.88156  1.0000
  H   H2762     1.0  0.80318  0.35618  0.78925  1.0000
  C   C2302     1.0  0.69196  0.32607  0.54608  1.0000
  H   H2763     1.0  0.91367  0.37493  0.73642  1.0000
  C   C2303     1.0  0.70847  0.29157  0.56918  1.0000
  H   H2764     1.0  0.74586  0.28392  0.55897  1.0000
  H   H2765     1.0  0.93401  0.43670  0.91679  1.0000
  H   H2766     1.0  0.95134  0.28842  0.86031  1.0000
  C   C2304     1.0  0.87618  0.34418  0.76574  1.0000
  C   C2305     1.0  0.87468  0.35065  0.74620  1.0000
  C   C2306     1.0  0.85871  0.36442  0.74092  1.0000
  C   C2307     1.0  0.84408  0.37147  0.75524  1.0000
  C   C2308     1.0  0.84586  0.36536  0.77470  1.0000
  C   C2309     1.0  0.86196  0.35196  0.77991  1.0000
  H   H2767     1.0  0.88559  0.34461  0.73516  1.0000
  H   H2768     1.0  0.85731  0.36898  0.72587  1.0000
  H   H2769     1.0  0.83471  0.37104  0.78577  1.0000
  H   H2770     1.0  0.86330  0.34763  0.79488  1.0000
  C   C2310     1.0  0.97289  0.43407  0.84021  1.0000
  C   C2311     1.0  0.96541  0.45206  0.83013  1.0000
  C   C2312     1.0  0.94539  0.45940  0.83367  1.0000
  C   C2313     1.0  0.93288  0.44870  0.84727  1.0000
  C   C2314     1.0  0.94038  0.43064  0.85706  1.0000
  C   C2315     1.0  0.96028  0.42338  0.85361  1.0000
  H   H2771     1.0  0.97512  0.46039  0.81976  1.0000
  H   H2772     1.0  0.93970  0.47337  0.82603  1.0000
  H   H2773     1.0  0.96582  0.40950  0.86143  1.0000
  C   C2316     1.0  0.93639  0.35794  0.88888  1.0000
  C   C2317     1.0  0.91717  0.35847  0.89836  1.0000
  C   C2318     1.0  0.90338  0.35325  0.89000  1.0000
  C   C2319     1.0  0.90859  0.34684  0.87220  1.0000
  C   C2320     1.0  0.92789  0.34611  0.86254  1.0000
  C   C2321     1.0  0.94176  0.35181  0.87081  1.0000
  H   H2774     1.0  0.91283  0.36317  0.91226  1.0000
  H   H2775     1.0  0.88851  0.35415  0.89746  1.0000
  H   H2776     1.0  0.93196  0.34166  0.84853  1.0000
  H   H2777     1.0  0.95651  0.35156  0.86326  1.0000
  C   C2322     1.0  0.90299  0.41140  0.69998  1.0000
  C   C2323     1.0  0.95141  0.40204  0.81919  1.0000
  H   H2778     1.0  0.87139  0.45293  0.68813  1.0000
  H   H2779     1.0  0.84347  0.29974  0.80622  1.0000
  C   C2324     1.0  0.75822  0.38874  0.65243  1.0000
  C   C2325     1.0  0.75353  0.40812  0.64402  1.0000
  C   C2326     1.0  0.76144  0.42246  0.64916  1.0000
  C   C2327     1.0  0.77432  0.41759  0.66251  1.0000
  C   C2328     1.0  0.77927  0.39820  0.67064  1.0000
  C   C2329     1.0  0.77118  0.38391  0.66570  1.0000
  H   H2780     1.0  0.74348  0.41208  0.63392  1.0000
  H   H2781     1.0  0.75744  0.43743  0.64284  1.0000
  H   H2782     1.0  0.78909  0.39421  0.68097  1.0000
  H   H2783     1.0  0.77485  0.36899  0.67234  1.0000
  H   H2784     1.0  0.89793  0.44215  0.72173  1.0000
  H   H2785     1.0  0.89510  0.46556  0.54833  1.0000
  C   C2330     1.0  0.94053  0.47326  0.90319  1.0000
  N   N157      1.0  0.90805  0.40344  0.71942  1.0000
  N   N158      1.0  0.75025  0.43642  0.54170  1.0000
  N   N159      1.0  0.95397  0.45505  0.90003  1.0000
  H   H2786     1.0  0.97152  0.31873  0.88313  1.0000
  C   C2331     1.0  0.73586  0.44070  0.55911  1.0000
  C   C2332     1.0  0.88216  0.40192  0.74981  1.0000
  C   C2333     1.0  0.77739  0.36880  0.55467  1.0000
  C   C2334     1.0  0.78083  0.37509  0.57066  1.0000
  C   C2335     1.0  0.79402  0.38775  0.56819  1.0000
  C   C2336     1.0  0.80379  0.39417  0.54971  1.0000
  C   C2337     1.0  0.80081  0.38741  0.53379  1.0000
  C   C2338     1.0  0.78773  0.37459  0.53629  1.0000
  H   H2787     1.0  0.77320  0.37033  0.58496  1.0000
  H   H2788     1.0  0.79635  0.39282  0.58058  1.0000
  H   H2789     1.0  0.80847  0.39214  0.51955  1.0000
  H   H2790     1.0  0.78515  0.36966  0.52394  1.0000
  C   C2339     1.0  0.68803  0.41657  0.52047  1.0000
  H   H2791     1.0  0.89542  0.37823  0.72135  1.0000
  H   H2792     1.0  0.81703  0.46117  0.75707  1.0000
  C   C2340     1.0  0.68326  0.41510  0.56052  1.0000
  C   C2341     1.0  0.70021  0.40536  0.55067  1.0000
  C   C2342     1.0  0.70271  0.40634  0.53063  1.0000
  H   H2793     1.0  0.90995  0.39071  0.86408  1.0000
  C   C2343     1.0  0.83204  0.25986  0.83941  1.0000
  H   H2794     1.0  0.71154  0.39730  0.55846  1.0000
  H   H2795     1.0  0.71602  0.39918  0.52300  1.0000
  N   N160      1.0  0.81032  0.32657  0.80305  1.0000
  C   C2344     1.0  0.79988  0.31017  0.81163  1.0000
  C   C2345     1.0  0.81854  0.33165  0.81839  1.0000
  H   H2796     1.0  0.96648  0.42301  0.79933  1.0000
  C   C2346     1.0  0.82602  0.32069  0.78727  1.0000
  H   H2797     1.0  0.96462  0.39188  0.82126  1.0000
  C   C2347     1.0  0.82551  0.32839  0.76743  1.0000
  C   C2348     1.0  0.98985  0.27619  0.86631  1.0000
  C   C2349     1.0  0.84036  0.32210  0.75291  1.0000
  C   C2350     1.0  0.85606  0.30809  0.75762  1.0000
  H   H2798     1.0  0.80956  0.29731  0.81810  1.0000
  H   H2799     1.0  0.86937  0.28958  0.78046  1.0000
  H   H2800     1.0  0.79388  0.30551  0.80051  1.0000
  H   H2801     1.0  0.82681  0.31887  0.82658  1.0000
  H   H2802     1.0  0.80704  0.33801  0.82945  1.0000
  H   H2803     1.0  0.82844  0.34230  0.81215  1.0000
  H   H2804     1.0  0.97605  0.44435  0.87733  1.0000
  H   H2805     1.0  0.81412  0.33968  0.76266  1.0000
  H   H2806     1.0  0.83996  0.32861  0.73794  1.0000
  H   H2807     1.0  0.78126  0.43502  0.53277  1.0000
  H   H2808     1.0  0.89864  0.44704  0.62989  1.0000
  C   C2351     1.0  0.73917  0.29744  0.55033  1.0000
  N   N161      1.0  0.97715  0.29528  0.86680  1.0000
  C   C2352     1.0  0.71154  0.32361  0.54881  1.0000
  C   C2353     1.0  0.72204  0.33858  0.53919  1.0000
  H   H2809     1.0  0.88524  0.46555  0.48708  1.0000
  H   H2810     1.0  0.75885  0.47781  0.48185  1.0000
  H   H2811     1.0  0.87558  0.46190  0.52483  1.0000
  C   C2354     1.0  0.67107  0.42635  0.53026  1.0000
  S   S644      1.0  0.94133  0.26125  0.83917  1.0000
  C   C2355     1.0  0.88050  0.42231  0.83614  1.0000
  C   C2356     1.0  0.76933  0.43962  0.54445  1.0000
  C   C2357     1.0  0.79597  0.34354  0.79643  1.0000
  H   H2812     1.0  0.82064  0.46612  0.78931  1.0000
  H   H2813     1.0  0.76910  0.45503  0.54505  1.0000
  C   C2358     1.0  0.88606  0.47610  0.67214  1.0000
  H   H2814     1.0  0.84727  0.26574  0.81025  1.0000
  H   H2815     1.0  0.77367  0.43088  0.55810  1.0000
  H   H2816     1.0  0.78348  0.40511  0.49425  1.0000
  Fe  Fe323     1.0  0.84416  0.46189  0.49655  1.0000
  H   H2817     1.0  0.97401  0.46960  0.87807  1.0000
  C   C2359     1.0  0.90051  0.47337  0.63901  1.0000
  C   C2360     1.0  0.75017  0.23900  0.75419  1.0000
  H   H2818     1.0  0.75896  0.23906  0.73943  1.0000
  H   H2819     1.0  0.73567  0.32360  0.57342  1.0000
  C   C2361     1.0  0.72547  0.31306  0.57797  1.0000
  H   H2820     1.0  0.97747  0.45919  0.91261  1.0000
  H   H2821     1.0  0.99106  0.26992  0.80049  1.0000
  C   C2362     1.0  0.98068  0.30768  0.84763  1.0000
  H   H2822     1.0  0.90075  0.41581  0.86482  1.0000
  H   H2823     1.0  0.86534  0.45880  0.61906  1.0000
  C   C2363     1.0  0.74369  0.44820  0.52399  1.0000
  H   H2824     1.0  0.73690  0.33783  0.54066  1.0000
  S   S645      1.0  0.67974  0.41313  0.58572  1.0000
  H   H2825     1.0  0.73659  0.29379  0.53682  1.0000
  H   H2826     1.0  0.75017  0.25297  0.75866  1.0000
  H   H2827     1.0  0.78526  0.37207  0.48809  1.0000
  H   H2828     1.0  0.73225  0.30080  0.58803  1.0000
  H   H2829     1.0  0.93088  0.42226  0.86761  1.0000
  H   H2830     1.0  0.78788  0.34026  0.78614  1.0000
  C   C2364     1.0  0.98250  0.25869  0.86887  1.0000
  H   H2831     1.0  0.92809  0.42323  0.71591  1.0000
  H   H2832     1.0  0.87933  0.38503  0.84208  1.0000
  C   C2365     1.0  0.95248  0.41956  0.80677  1.0000
  C   C2366     1.0  0.84213  0.30629  0.79151  1.0000
  C   C2367     1.0  0.90945  0.38214  0.72225  1.0000
  N   N162      1.0  0.72085  0.30664  0.56133  1.0000
  C   C2368     1.0  0.93563  0.43294  0.80452  1.0000
  S   S646      1.0  0.68858  0.31957  0.62373  1.0000
  C   C2369     1.0  0.91604  0.41131  0.82785  1.0000
  C   C2370     1.0  0.93350  0.39788  0.82952  1.0000
  H   H2833     1.0  0.95637  0.46125  0.86894  1.0000
  C   C2371     1.0  0.66888  0.42596  0.55021  1.0000
  H   H2834     1.0  0.82700  0.24952  0.79656  1.0000
  S   S647      1.0  0.83103  0.48009  0.71825  1.0000
  C   C2372     1.0  0.94266  0.43937  0.90202  1.0000
  H   H2835     1.0  0.86674  0.47415  0.58478  1.0000
  H   H2836     1.0  0.94695  0.30862  0.87240  1.0000
  H   H2837     1.0  0.67288  0.33837  0.58853  1.0000
  H   H2838     1.0  0.89723  0.23988  0.84572  1.0000
  H   H2839     1.0  0.70461  0.45725  0.50050  1.0000
  H   H2840     1.0  0.95119  0.47865  0.92792  1.0000
  H   H2841     1.0  0.68762  0.37023  0.51710  1.0000
  C   C2373     1.0  0.69423  0.35722  0.52569  1.0000
  C   C2374     1.0  0.80657  0.24034  0.84385  1.0000
  C   C2375     1.0  0.74928  0.46962  0.49270  1.0000
  C   C2376     1.0  0.82815  0.47399  0.77641  1.0000
  C   C2377     1.0  0.83582  0.25895  0.81966  1.0000
  H   H2842     1.0  0.97112  0.32207  0.84729  1.0000
  H   H2843     1.0  0.75637  0.40632  0.55396  1.0000
  H   H2844     1.0  0.97763  0.43468  0.91096  1.0000
  C   C2378     1.0  0.80963  0.24031  0.82397  1.0000
  H   H2845     1.0  0.98030  0.29538  0.89599  1.0000
  H   H2846     1.0  0.92907  0.24475  0.81090  1.0000
  C   C2379     1.0  0.67169  0.31400  0.61161  1.0000
  C   C2380     1.0  0.92747  0.40753  0.71977  1.0000
  H   H2847     1.0  0.69499  0.29710  0.57875  1.0000
  C   C2381     1.0  0.84749  0.45723  0.57926  1.0000
  C   C2382     1.0  0.98612  0.23630  0.79883  1.0000
  C   C2383     1.0  0.75217  0.41573  0.54061  1.0000
  H   H2848     1.0  0.96716  0.25832  0.87094  1.0000
  H   H2849     1.0  0.72189  0.43581  0.55983  1.0000
  N   N163      1.0  0.82350  0.41790  0.61418  1.0000
  C   C2384     1.0  0.83002  0.40219  0.60246  1.0000
  C   C2385     1.0  0.82467  0.40911  0.63463  1.0000
  C   C2386     1.0  0.80282  0.42589  0.61312  1.0000
  C   C2387     1.0  0.83533  0.43338  0.60650  1.0000
  C   C2388     1.0  0.84604  0.43975  0.61796  1.0000
  H   H2850     1.0  0.84581  0.39656  0.60192  1.0000
  H   H2851     1.0  0.82207  0.38986  0.60841  1.0000
  H   H2852     1.0  0.82752  0.40699  0.58729  1.0000
  H   H2853     1.0  0.83981  0.40241  0.63650  1.0000
  H   H2854     1.0  0.81558  0.39759  0.64001  1.0000
  H   H2855     1.0  0.81913  0.41996  0.64443  1.0000
  H   H2856     1.0  0.80043  0.43175  0.59807  1.0000
  H   H2857     1.0  0.79347  0.41464  0.61889  1.0000
  H   H2858     1.0  0.79732  0.43773  0.62183  1.0000
  H   H2859     1.0  0.84629  0.43363  0.63300  1.0000
  H   H2860     1.0  0.72194  0.36628  0.52082  1.0000
  C   C2389     1.0  0.83634  0.44266  0.58691  1.0000
  H   H2861     1.0  0.88451  0.39873  0.86913  1.0000
  C   C2390     1.0  0.87620  0.44203  0.74686  1.0000
  H   H2862     1.0  0.82861  0.43864  0.57727  1.0000
  H   H2863     1.0  0.87354  0.45763  0.74559  1.0000
  C   C2391     1.0  0.89821  0.40279  0.86016  1.0000
  H   H2864     1.0  0.93894  0.40033  0.70923  1.0000
  H   H2865     1.0  0.73846  0.41196  0.53884  1.0000
  H   H2866     1.0  0.88825  0.40906  0.69931  1.0000
  H   H2867     1.0  0.78480  0.34825  0.80863  1.0000
  Fe  Fe324     1.0  0.82960  0.42439  0.51615  1.0000
  C   C2392     1.0  0.86521  0.43113  0.76176  1.0000
  H   H2868     1.0  0.78765  0.31396  0.82336  1.0000
  H   H2869     1.0  0.93348  0.38419  0.83915  1.0000
  N   N164      1.0  0.89730  0.40662  0.83922  1.0000
  C   C2393     1.0  0.89333  0.38910  0.83386  1.0000
  C   C2394     1.0  0.82607  0.47115  0.75815  1.0000
  H   H2870     1.0  0.89276  0.39125  0.81817  1.0000
  H   H2871     1.0  0.66852  0.34440  0.53300  1.0000
  C   C2395     1.0  0.85692  0.30018  0.77687  1.0000
  C   C2396     1.0  0.94228  0.23738  0.83643  1.0000
  C   C2397     1.0  0.89496  0.45519  0.64166  1.0000
  H   H2872     1.0  0.93145  0.40240  0.73440  1.0000
  H   H2873     1.0  0.85925  0.40275  0.77455  1.0000
  H   H2874     1.0  0.85415  0.43823  0.77202  1.0000
  C   C2398     1.0  0.86817  0.41114  0.76321  1.0000
  H   H2875     1.0  0.93660  0.44680  0.79526  1.0000
  C   C2399     1.0  0.82441  0.24956  0.81195  1.0000
  C   C2400     1.0  0.68350  0.34271  0.53473  1.0000
  C   C2401     1.0  0.89627  0.48373  0.65433  1.0000
  C   C2402     1.0  0.71352  0.35504  0.52779  1.0000
  H   H2876     1.0  0.90532  0.44032  0.81292  1.0000
  H   H2877     1.0  0.90841  0.47917  0.62520  1.0000
  C   C2403     1.0  0.96557  0.45768  0.88029  1.0000
  H   H2878     1.0  0.86670  0.41838  0.84502  1.0000
  H   H2879     1.0  0.90459  0.37626  0.83705  1.0000
  C   C2404     1.0  0.91763  0.42899  0.81487  1.0000
  H   H2880     1.0  0.88235  0.43583  0.84041  1.0000
  C   C2405     1.0  0.94095  0.48351  0.91807  1.0000
  H   H2881     1.0  0.87836  0.42555  0.82081  1.0000
  C   C2406     1.0  0.87970  0.45840  0.67448  1.0000
  H   H2882     1.0  0.71595  0.27896  0.57834  1.0000
  C   C2407     1.0  0.77409  0.38360  0.48308  1.0000
  C   C2408     1.0  0.81755  0.25026  0.85146  1.0000
  H   H2883     1.0  0.88352  0.38643  0.75181  1.0000
  C   C2409     1.0  0.72500  0.44802  0.52023  1.0000
  H   H2884     1.0  0.97793  0.30082  0.83610  1.0000
  C   C2410     1.0  0.96786  0.44845  0.91381  1.0000
  H   H2885     1.0  0.70443  0.28604  0.55742  1.0000
  S   S648      1.0  0.81446  0.45404  0.50575  1.0000
  S   S649      1.0  0.83174  0.41362  0.48830  1.0000
  C   C2411     1.0  0.71883  0.45806  0.50312  1.0000
  C   C2412     1.0  0.85792  0.46300  0.59083  1.0000
  H   H2886     1.0  0.91323  0.40450  0.68840  1.0000
  H   H2887     1.0  0.86784  0.30372  0.74637  1.0000
  H   H2888     1.0  0.76332  0.41169  0.52815  1.0000
  H   H2889     1.0  0.74113  0.43311  0.57271  1.0000
  C   C2413     1.0  0.88585  0.47806  0.54184  1.0000
  H   H2890     1.0  0.88257  0.48412  0.68400  1.0000
  C   C2414     1.0  0.83496  0.48185  0.74136  1.0000
  H   H2891     1.0  0.73264  0.45646  0.55955  1.0000
  H   H2892     1.0  0.92517  0.47443  0.87943  1.0000
  H   H2893     1.0  0.84816  0.46401  0.56422  1.0000
  H   H2894     1.0  0.73489  0.23899  0.75309  1.0000
  C   C2415     1.0  0.87480  0.47595  0.52849  1.0000
  C   C2416     1.0  0.92638  0.48131  0.89112  1.0000
  C   C2417     1.0  0.77302  0.40213  0.48672  1.0000
  H   H2895     1.0  0.96020  0.44556  0.92900  1.0000
  H   H2896     1.0  0.87374  0.24186  0.84036  1.0000
  C   C2418     1.0  0.66323  0.29743  0.61930  1.0000
  H   H2897     1.0  0.88160  0.23890  0.87915  1.0000
  C   C2419     1.0  0.66666  0.32548  0.59452  1.0000
  H   H2898     1.0  0.97518  0.24454  0.80896  1.0000
  Fe  Fe325     1.0  0.66270  0.41793  0.48675  1.0000
  H   H2899     1.0  0.66700  0.28849  0.63253  1.0000
  S   S650      1.0  0.99117  0.37225  0.85475  1.0000
  H   H2900     1.0  0.77581  0.23946  0.77586  1.0000
  H   H2901     1.0  0.98796  0.24550  0.78431  1.0000
  H   H2902     1.0  0.75806  0.43139  0.48310  1.0000
  H   H2903     1.0  0.85814  0.23753  0.87474  1.0000
  C   C2420     1.0  0.89669  0.45449  0.48073  1.0000
  H   H2904     1.0  0.88469  0.63299  0.04120  1.0000
  H   H2905     1.0  0.88208  0.70160  0.09347  1.0000
  H   H2906     1.0  0.75120  0.60503  0.04734  1.0000
  H   H2907     1.0  0.76066  0.62685  0.04300  1.0000
  H   H2908     1.0  0.97884  0.63150  0.11443  1.0000
  S   S651      1.0  0.92573  0.68387  0.10038  1.0000
  C   C2421     1.0  0.74404  0.59171  0.01585  1.0000
  Fe  Fe326     1.0  0.76769  0.70867  0.06165  1.0000
  S   S652      1.0  0.76606  0.68562  0.08794  1.0000
  Fe  Fe327     1.0  0.74124  0.69067  0.04283  1.0000
  S   S653      1.0  0.73789  0.66688  0.06822  1.0000
  S   S654      1.0  0.72994  0.68872  0.01592  1.0000
  Fe  Fe328     1.0  0.73433  0.68987  0.08629  1.0000
  S   S655      1.0  0.70960  0.69687  0.11043  1.0000
  Fe  Fe329     1.0  0.76986  0.66529  0.06675  1.0000
  S   S656      1.0  0.78988  0.63653  0.06819  1.0000
  S   S657      1.0  0.73559  0.71411  0.06089  1.0000
  S   S658      1.0  0.77356  0.68797  0.04055  1.0000
  C   C2422     1.0  0.73696  0.61194  0.01277  1.0000
  C   C2423     1.0  0.73748  0.57924  0.00693  1.0000
  H   H2909     1.0  0.91836  0.62269  0.02373  1.0000
  C   C2424     1.0  0.81924  0.70084  0.02829  1.0000
  C   C2425     1.0  0.82271  0.68871  0.01462  1.0000
  C   C2426     1.0  0.85606  0.63229  0.02371  1.0000
  S   S659      1.0  0.68253  0.63350  0.18051  1.0000
  H   H2910     1.0  0.99243  0.63126  0.03401  1.0000
  C   C2427     1.0  0.66366  0.63209  0.06676  1.0000
  N   N165      1.0  0.85489  0.64452  0.03843  1.0000
  H   H2911     1.0  0.80597  0.63920  0.99750  1.0000
  H   H2912     1.0  0.83595  0.66170  0.00663  1.0000
  C   C2428     1.0  0.93315  0.64716  0.01729  1.0000
  C   C2429     1.0  0.70347  0.67931  0.13054  1.0000
  C   C2430     1.0  0.68748  0.68440  0.14463  1.0000
  C   C2431     1.0  0.68110  0.67045  0.16010  1.0000
  C   C2432     1.0  0.69096  0.65140  0.16180  1.0000
  C   C2433     1.0  0.70734  0.64641  0.14802  1.0000
  C   C2434     1.0  0.71352  0.66031  0.13230  1.0000
  H   H2913     1.0  0.71737  0.63400  0.99684  1.0000
  H   H2914     1.0  0.84834  0.64040  0.06976  1.0000
  H   H2915     1.0  0.71503  0.63168  0.14932  1.0000
  H   H2916     1.0  0.72590  0.65629  0.12149  1.0000
  C   C2435     1.0  0.70717  0.68204  0.01694  1.0000
  C   C2436     1.0  0.69314  0.68174  0.03371  1.0000
  C   C2437     1.0  0.98469  0.62733  0.02391  1.0000
  H   H2917     1.0  0.71393  0.67675  0.98757  1.0000
  C   C2438     1.0  0.68558  0.67026  0.00123  1.0000
  C   C2439     1.0  0.70325  0.67639  0.00067  1.0000
  H   H2918     1.0  0.69592  0.68619  0.04627  1.0000
  C   C2440     1.0  0.77331  0.72159  0.14005  1.0000
  H   H2919     1.0  0.85740  0.70595  0.08960  1.0000
  C   C2441     1.0  0.72380  0.58645  0.99480  1.0000
  C   C2442     1.0  0.79868  0.62696  0.04667  1.0000
  C   C2443     1.0  0.80548  0.60709  0.04802  1.0000
  C   C2444     1.0  0.81196  0.59873  0.03130  1.0000
  C   C2445     1.0  0.81227  0.61025  0.01304  1.0000
  C   C2446     1.0  0.79895  0.63856  0.02838  1.0000
  H   H2920     1.0  0.80535  0.59803  0.06207  1.0000
  H   H2921     1.0  0.81675  0.58328  0.03253  1.0000
  H   H2922     1.0  0.79394  0.65391  0.02713  1.0000
  H   H2923     1.0  0.93797  0.64409  0.03108  1.0000
  C   C2447     1.0  0.92362  0.70611  0.10797  1.0000
  C   C2448     1.0  0.71684  0.60620  0.99124  1.0000
  H   H2924     1.0  0.82411  0.70416  0.05581  1.0000
  C   C2449     1.0  0.87490  0.64713  0.03852  1.0000
  H   H2925     1.0  0.72883  0.64616  0.04142  1.0000
  C   C2450     1.0  0.90561  0.71480  0.11706  1.0000
  H   H2926     1.0  0.88117  0.65497  0.02429  1.0000
  C   C2451     1.0  0.93947  0.71578  0.10398  1.0000
  H   H2927     1.0  0.89349  0.70713  0.12083  1.0000
  C   C2452     1.0  0.83884  0.67656  0.04824  1.0000
  H   H2928     1.0  0.86264  0.63904  0.00913  1.0000
  H   H2929     1.0  0.67061  0.67044  0.12109  1.0000
  H   H2930     1.0  0.71884  0.62420  0.04648  1.0000
  H   H2931     1.0  0.83168  0.63291  0.05850  1.0000
  C   C2453     1.0  0.90398  0.68999  0.03970  1.0000
  H   H2932     1.0  0.81623  0.69343  0.00168  1.0000
  H   H2933     1.0  0.86278  0.49491  0.40979  1.0000
  C   C2454     1.0  0.87593  0.70624  0.02553  1.0000
  H   H2934     1.0  0.79770  0.70936  0.09282  1.0000
  H   H2935     1.0  0.81504  0.71618  0.11664  1.0000
  H   H2936     1.0  0.97220  0.63922  0.02216  1.0000
  C   C2455     1.0  0.75158  0.64056  0.00815  1.0000
  H   H2937     1.0  0.78451  0.67498  0.16206  1.0000
  H   H2938     1.0  0.77084  0.60945  0.02743  1.0000
  C   C2456     1.0  0.72531  0.63491  0.03472  1.0000
  C   C2457     1.0  0.67523  0.67629  0.03403  1.0000
  C   C2458     1.0  0.86966  0.71313  0.09001  1.0000
  C   C2459     1.0  0.72340  0.61881  0.99992  1.0000
  C   C2460     1.0  0.93839  0.66288  0.00351  1.0000
  H   H2939     1.0  0.90652  0.69733  0.06616  1.0000
  C   C2461     1.0  0.75044  0.70244  0.13652  1.0000
  C   C2462     1.0  0.84251  0.66371  0.03473  1.0000
  H   H2940     1.0  0.66419  0.67680  0.04681  1.0000
  C   C2463     1.0  0.84725  0.63370  0.05748  1.0000
  S   S660      1.0  0.81898  0.59912  0.99241  1.0000
  H   H2941     1.0  0.67482  0.62595  0.12964  1.0000
  H   H2942     1.0  0.66263  0.64383  0.14417  1.0000
  C   C2464     1.0  0.82722  0.69475  0.04509  1.0000
  C   C2465     1.0  0.76041  0.68621  0.14701  1.0000
  H   H2943     1.0  0.66280  0.49556  0.26103  1.0000
  H   H2944     1.0  0.74280  0.56382  0.00968  1.0000
  C   C2466     1.0  0.67138  0.67039  0.01788  1.0000
  Fe  Fe330     1.0  0.98872  0.69416  0.05715  1.0000
  S   S661      1.0  0.95765  0.70069  0.05239  1.0000
  H   H2945     1.0  0.68269  0.66601  0.98862  1.0000
  H   H2946     1.0  0.90393  0.72470  0.07673  1.0000
  H   H2947     1.0  0.71375  0.64234  0.02628  1.0000
  C   C2467     1.0  0.86903  0.49529  0.43775  1.0000
  S   S662      1.0  0.98319  0.67264  0.08439  1.0000
  S   S663      1.0  0.95379  0.67775  0.00753  1.0000
  C   C2468     1.0  0.81127  0.72744  0.10482  1.0000
  C   C2469     1.0  0.92183  0.63511  0.01316  1.0000
  H   H2948     1.0  0.84483  0.67258  0.06142  1.0000
  H   H2949     1.0  0.86547  0.61797  0.02678  1.0000
  C   C2470     1.0  0.77678  0.68761  0.15397  1.0000
  H   H2950     1.0  0.84154  0.62941  0.02305  1.0000
  H   H2951     1.0  0.68085  0.49210  0.38987  1.0000
  Fe  Fe331     1.0  0.98921  0.65089  0.06446  1.0000
  H   H2952     1.0  0.73672  0.72172  0.10308  1.0000
  C   C2471     1.0  0.83412  0.67039  0.01772  1.0000
  C   C2472     1.0  0.75661  0.72063  0.13261  1.0000
  H   H2953     1.0  0.95352  0.70904  0.09726  1.0000
  S   S664      1.0  0.95793  0.65407  0.06147  1.0000
  H   H2954     1.0  0.74115  0.64988  0.99918  1.0000
  H   H2955     1.0  0.81002  0.71487  0.02603  1.0000
  H   H2956     1.0  0.76017  0.72814  0.09469  1.0000
  C   C2473     1.0  0.78320  0.70526  0.15051  1.0000
  H   H2957     1.0  0.75536  0.67249  0.14970  1.0000
  C   C2474     1.0  0.80589  0.63023  0.01157  1.0000
  S   S665      1.0  0.78440  0.73355  0.05824  1.0000
  Fe  Fe332     1.0  0.96511  0.67617  0.03552  1.0000
  H   H2958     1.0  0.89835  0.68515  0.01293  1.0000
  H   H2959     1.0  0.87770  0.49250  0.46490  1.0000
  Fe  Fe333     1.0  0.95276  0.67810  0.07850  1.0000
  C   C2475     1.0  0.74533  0.73318  0.10212  1.0000
  H   H2960     1.0  0.85521  0.61860  0.06000  1.0000
  H   H2961     1.0  0.67451  0.65311  0.07626  1.0000
  H   H2962     1.0  0.79600  0.70633  0.15587  1.0000
  H   H2963     1.0  0.75456  0.58513  0.02516  1.0000
  C   C2476     1.0  0.88062  0.71461  0.05562  1.0000
  C   C2477     1.0  0.75697  0.61618  0.03561  1.0000
  C   C2478     1.0  0.89322  0.69302  0.02492  1.0000
  C   C2479     1.0  0.89771  0.70040  0.05495  1.0000
  H   H2964     1.0  0.73784  0.70059  0.13145  1.0000
  H   H2965     1.0  0.99235  0.57158  0.13746  1.0000
  H   H2966     1.0  0.87555  0.65542  0.04980  1.0000
  H   H2967     1.0  0.75679  0.65062  0.01512  1.0000
  C   C2480     1.0  0.98468  0.62236  0.99197  1.0000
  H   H2968     1.0  0.91747  0.67972  0.03921  1.0000
  H   H2969     1.0  0.67969  0.69910  0.14336  1.0000
  H   H2970     1.0  0.76427  0.63401  0.99830  1.0000
  N   N166      1.0  0.74272  0.62552  0.02267  1.0000
  C   C2481     1.0  0.98376  0.60122  0.12631  1.0000
  C   C2482     1.0  0.88106  0.48701  0.45142  1.0000
  N   N167      1.0  0.87479  0.72607  0.07151  1.0000
  C   C2483     1.0  0.80146  0.72351  0.09128  1.0000
  H   H2971     1.0  0.66694  0.67412  0.09691  1.0000
  H   H2972     1.0  0.70592  0.61168  0.98206  1.0000
  H   H2973     1.0  0.67460  0.48664  0.41583  1.0000
  C   C2484     1.0  0.91494  0.63894  0.99551  1.0000
  C   C2485     1.0  0.66092  0.63597  0.13293  1.0000
  H   H2974     1.0  0.86748  0.70839  0.01409  1.0000
  H   H2975     1.0  0.66863  0.67448  0.17080  1.0000
  C   C2486     1.0  0.86963  0.71694  0.04061  1.0000
  H   H2976     1.0  0.68536  0.65462  0.10555  1.0000
  C   C2487     1.0  0.91972  0.65495  0.98191  1.0000
  S   S666      1.0  0.90054  0.62314  0.99152  1.0000
  C   C2488     1.0  0.67037  0.66263  0.10930  1.0000
  H   H2977     1.0  0.96913  0.59949  0.12597  1.0000
  H   H2978     1.0  0.85693  0.50672  0.44096  1.0000
  H   H2979     1.0  0.86508  0.72125  0.10237  1.0000
  H   H2980     1.0  0.71835  0.57669  0.98832  1.0000
  C   C2489     1.0  0.93155  0.66671  0.98583  1.0000
  H   H2981     1.0  0.67108  0.63555  0.05202  1.0000
  C   C2490     1.0  0.87226  0.48861  0.42027  1.0000
  C   C2491     1.0  0.66532  0.64225  0.08088  1.0000
  H   H2982     1.0  0.97896  0.61390  0.03119  1.0000
  H   H2983     1.0  0.66468  0.66697  0.26749  1.0000
  C   C2492     1.0  0.98917  0.61931  0.11988  1.0000
  H   H2984     1.0  0.66308  0.69050  0.29745  1.0000
  H   H2985     1.0  0.66585  0.66451  0.30275  1.0000
  H   H2986     1.0  0.85619  0.72703  0.04007  1.0000
  C   C2493     1.0  0.93716  0.73423  0.10876  1.0000
  C   C2494     1.0  0.90305  0.73372  0.12074  1.0000
  H   H2987     1.0  0.97752  0.60947  0.99773  1.0000
  H   H2988     1.0  0.97274  0.63500  0.99020  1.0000
  H   H2989     1.0  0.71746  0.72969  0.13294  1.0000
  H   H2990     1.0  0.90681  0.48905  0.47436  1.0000
  H   H2991     1.0  0.92625  0.48532  0.45442  1.0000
  H   H2992     1.0  0.77924  0.73471  0.13781  1.0000
  Fe  Fe334     1.0  0.87640  0.60124  0.93714  1.0000
  S   S667      1.0  0.88699  0.62920  0.93574  1.0000
  S   S668      1.0  0.89207  0.58043  0.91630  1.0000
  H   H2993     1.0  0.84365  0.49841  0.67618  1.0000
  H   H2994     1.0  0.66672  0.65131  0.90103  1.0000
  C   C2495     1.0  0.95754  0.69617  0.63518  1.0000
  Fe  Fe335     1.0  0.85513  0.64192  0.93947  1.0000
  S   S669      1.0  0.84264  0.67052  0.92318  1.0000
  Fe  Fe336     1.0  0.88259  0.62293  0.96840  1.0000
  H   H2995     1.0  0.93876  0.67638  0.60883  1.0000
  S   S670      1.0  0.84497  0.61457  0.93898  1.0000
  S   S671      1.0  0.87454  0.59385  0.96949  1.0000
  Fe  Fe337     1.0  0.75810  0.65735  0.87881  1.0000
  S   S672      1.0  0.77594  0.62779  0.88043  1.0000
  S   S673      1.0  0.76333  0.68073  0.89278  1.0000
  Fe  Fe338     1.0  0.73291  0.64943  0.85315  1.0000
  S   S674      1.0  0.74892  0.61907  0.85250  1.0000
  S   S675      1.0  0.70970  0.66106  0.83466  1.0000
  Fe  Fe339     1.0  0.74752  0.61788  0.88417  1.0000
  S   S676      1.0  0.74398  0.59009  0.90425  1.0000
  Fe  Fe340     1.0  0.77589  0.63159  0.84870  1.0000
  S   S677      1.0  0.80399  0.61992  0.83064  1.0000
  S   S678      1.0  0.72933  0.64722  0.88531  1.0000
  S   S679      1.0  0.76018  0.66221  0.84659  1.0000
  H   H2996     1.0  0.94553  0.72608  0.62686  1.0000
  C   C2496     1.0  0.94258  0.57533  0.67228  1.0000
  H   H2997     1.0  0.87226  0.52625  0.54217  1.0000
  H   H2998     1.0  0.82456  0.53143  0.79013  1.0000
  H   H2999     1.0  0.85321  0.52272  0.51807  1.0000
  C   C2497     1.0  0.88325  0.62149  0.58940  1.0000
  C   C2498     1.0  0.83968  0.48701  0.77812  1.0000
  S   S680      1.0  0.97097  0.63371  0.61144  1.0000
  H   H3000     1.0  0.90359  0.69087  0.55352  1.0000
  H   H3001     1.0  0.79297  0.61327  0.91914  1.0000
  H   H3002     1.0  0.85224  0.49380  0.65235  1.0000
  Fe  Fe341     1.0  0.89915  0.52199  0.58010  1.0000
  S   S681      1.0  0.92527  0.51988  0.59416  1.0000
  C   C2499     1.0  0.78989  0.65309  0.95919  1.0000
  Fe  Fe342     1.0  0.87675  0.55484  0.60111  1.0000
  S   S682      1.0  0.90080  0.55498  0.61669  1.0000
  S   S683      1.0  0.84950  0.57588  0.60841  1.0000
  Fe  Fe343     1.0  0.92016  0.55254  0.58823  1.0000
  S   S684      1.0  0.94353  0.57143  0.57551  1.0000
  Fe  Fe344     1.0  0.90351  0.52277  0.62127  1.0000
  S   S685      1.0  0.89571  0.55446  0.57195  1.0000
  S   S686      1.0  0.87793  0.52285  0.60789  1.0000
  H   H3003     1.0  0.94444  0.54955  0.63701  1.0000
  C   C2500     1.0  0.81255  0.49976  0.66099  1.0000
  C   C2501     1.0  0.70797  0.72601  0.87082  1.0000
  Fe  Fe345     1.0  0.87237  0.52592  0.83799  1.0000
  S   S687      1.0  0.90433  0.51458  0.83347  1.0000
  S   S688      1.0  0.85650  0.54801  0.85714  1.0000
  Fe  Fe346     1.0  0.90152  0.51873  0.80216  1.0000
  S   S689      1.0  0.92515  0.53138  0.78066  1.0000
  H   H3004     1.0  0.96002  0.57446  0.64405  1.0000
  S   S690      1.0  0.87000  0.53203  0.80636  1.0000
  H   H3005     1.0  0.87502  0.55533  0.71252  1.0000
  Fe  Fe347     1.0  0.84002  0.64037  0.72185  1.0000
  S   S691      1.0  0.86833  0.64991  0.70745  1.0000
  S   S692      1.0  0.81875  0.65763  0.74239  1.0000
  Fe  Fe348     1.0  0.84738  0.60656  0.70076  1.0000
  S   S693      1.0  0.87608  0.61322  0.68454  1.0000
  S   S694      1.0  0.83912  0.57926  0.69720  1.0000
  Fe  Fe349     1.0  0.88066  0.61832  0.71279  1.0000
  S   S695      1.0  0.91064  0.60768  0.71962  1.0000
  Fe  Fe350     1.0  0.86114  0.64400  0.68049  1.0000
  S   S696      1.0  0.86845  0.66053  0.65048  1.0000
  S   S697      1.0  0.85305  0.60919  0.72956  1.0000
  S   S698      1.0  0.83173  0.63692  0.69424  1.0000
  C   C2502     1.0  0.92011  0.55240  0.76380  1.0000
  C   C2503     1.0  0.93575  0.56074  0.75273  1.0000
  C   C2504     1.0  0.93258  0.57771  0.73936  1.0000
  C   C2505     1.0  0.91373  0.58646  0.73679  1.0000
  C   C2506     1.0  0.89798  0.57812  0.74778  1.0000
  C   C2507     1.0  0.90116  0.56111  0.76136  1.0000
  H   H3006     1.0  0.95044  0.55406  0.75457  1.0000
  H   H3007     1.0  0.94483  0.58403  0.73093  1.0000
  H   H3008     1.0  0.88338  0.58479  0.74603  1.0000
  H   H3009     1.0  0.88899  0.55472  0.76980  1.0000
  C   C2508     1.0  0.84560  0.57643  0.63326  1.0000
  C   C2509     1.0  0.85371  0.56070  0.64585  1.0000
  C   C2510     1.0  0.85121  0.56144  0.66559  1.0000
  C   C2511     1.0  0.84159  0.57831  0.67260  1.0000
  C   C2512     1.0  0.83387  0.59423  0.65997  1.0000
  C   C2513     1.0  0.83537  0.59306  0.64041  1.0000
  H   H3010     1.0  0.86162  0.54781  0.64043  1.0000
  H   H3011     1.0  0.85677  0.54897  0.67541  1.0000
  H   H3012     1.0  0.82618  0.60720  0.66542  1.0000
  H   H3013     1.0  0.82878  0.60510  0.63080  1.0000
  H   H3014     1.0  0.96069  0.67266  0.54001  1.0000
  H   H3015     1.0  0.74523  0.60905  0.95146  1.0000
  H   H3016     1.0  0.90083  0.53001  0.72728  1.0000
  C   C2514     1.0  0.95643  0.65815  0.54418  1.0000
  C   C2515     1.0  0.96377  0.61609  0.60149  1.0000
  C   C2516     1.0  0.97206  0.61227  0.58294  1.0000
  C   C2517     1.0  0.96573  0.59852  0.57530  1.0000
  C   C2518     1.0  0.95119  0.58825  0.58614  1.0000
  C   C2519     1.0  0.94304  0.59190  0.60479  1.0000
  C   C2520     1.0  0.94918  0.60587  0.61235  1.0000
  S   S699      1.0  0.67701  0.58531  0.97680  1.0000
  H   H3017     1.0  0.97229  0.59565  0.56094  1.0000
  H   H3018     1.0  0.93227  0.58371  0.61345  1.0000
  H   H3019     1.0  0.94278  0.60855  0.62679  1.0000
  C   C2521     1.0  0.81481  0.52864  0.68588  1.0000
  H   H3020     1.0  0.95666  0.71260  0.50824  1.0000
  C   C2522     1.0  0.87129  0.69668  0.63039  1.0000
  C   C2523     1.0  0.86642  0.68558  0.64857  1.0000
  C   C2524     1.0  0.86072  0.69446  0.66493  1.0000
  C   C2525     1.0  0.85999  0.71443  0.66310  1.0000
  C   C2526     1.0  0.87285  0.63522  0.57624  1.0000
  H   H3021     1.0  0.87552  0.68984  0.61771  1.0000
  H   H3022     1.0  0.85678  0.68600  0.67899  1.0000
  H   H3023     1.0  0.80493  0.59209  0.79506  1.0000
  C   C2527     1.0  0.82232  0.57101  0.75549  1.0000
  H   H3024     1.0  0.89999  0.59787  0.62122  1.0000
  H   H3025     1.0  0.96222  0.71469  0.56612  1.0000
  C   C2528     1.0  0.80784  0.63048  0.80617  1.0000
  C   C2529     1.0  0.79509  0.64657  0.79894  1.0000
  C   C2530     1.0  0.79864  0.65486  0.77933  1.0000
  C   C2531     1.0  0.81476  0.64695  0.76686  1.0000
  C   C2532     1.0  0.82753  0.63087  0.77415  1.0000
  C   C2533     1.0  0.82409  0.62269  0.79378  1.0000
  H   H3026     1.0  0.78245  0.65261  0.80836  1.0000
  H   H3027     1.0  0.78872  0.66730  0.77374  1.0000
  H   H3028     1.0  0.84016  0.62486  0.76474  1.0000
  H   H3029     1.0  0.83401  0.61023  0.79931  1.0000
  C   C2534     1.0  0.68725  0.67403  0.84405  1.0000
  C   C2535     1.0  0.68212  0.67551  0.86364  1.0000
  H   H3030     1.0  0.94956  0.65665  0.58363  1.0000
  H   H3031     1.0  0.90996  0.59313  0.55665  1.0000
  C   C2536     1.0  0.86503  0.72551  0.64494  1.0000
  C   C2537     1.0  0.67409  0.68278  0.83152  1.0000
  H   H3032     1.0  0.69229  0.66906  0.87335  1.0000
  Fe  Fe351     1.0  0.84394  0.60976  0.97105  1.0000
  H   H3033     1.0  0.75711  0.61439  0.92656  1.0000
  H   H3034     1.0  0.67808  0.68178  0.81632  1.0000
  C   C2538     1.0  0.72502  0.58987  0.92413  1.0000
  C   C2539     1.0  0.71282  0.60679  0.92897  1.0000
  C   C2540     1.0  0.69790  0.60570  0.94520  1.0000
  C   C2541     1.0  0.69519  0.58772  0.95637  1.0000
  C   C2542     1.0  0.70758  0.57099  0.95159  1.0000
  C   C2543     1.0  0.72243  0.57206  0.93557  1.0000
  H   H3035     1.0  0.71488  0.62061  0.92027  1.0000
  H   H3036     1.0  0.68868  0.61869  0.94922  1.0000
  H   H3037     1.0  0.70563  0.55709  0.96028  1.0000
  H   H3038     1.0  0.73189  0.55897  0.93196  1.0000
  C   C2544     1.0  0.88168  0.57085  0.90061  1.0000
  C   C2545     1.0  0.89391  0.55909  0.88798  1.0000
  C   C2546     1.0  0.88639  0.55154  0.87496  1.0000
  C   C2547     1.0  0.86653  0.55594  0.87423  1.0000
  C   C2548     1.0  0.85428  0.56764  0.88689  1.0000
  C   C2549     1.0  0.86177  0.57495  0.90011  1.0000
  H   H3039     1.0  0.90933  0.55580  0.88829  1.0000
  H   H3040     1.0  0.89599  0.54249  0.86540  1.0000
  H   H3041     1.0  0.83889  0.57109  0.88648  1.0000
  H   H3042     1.0  0.85216  0.58389  0.90978  1.0000
  C   C2550     1.0  0.82009  0.67246  0.91599  1.0000
  C   C2551     1.0  0.80869  0.69076  0.91256  1.0000
  C   C2552     1.0  0.79105  0.69300  0.90601  1.0000
  C   C2553     1.0  0.78484  0.67704  0.90242  1.0000
  C   C2554     1.0  0.79613  0.65869  0.90596  1.0000
  C   C2555     1.0  0.81372  0.65640  0.91273  1.0000
  H   H3043     1.0  0.81353  0.70325  0.91499  1.0000
  H   H3044     1.0  0.78239  0.70723  0.90339  1.0000
  H   H3045     1.0  0.79138  0.64631  0.90342  1.0000
  H   H3046     1.0  0.82254  0.64229  0.91492  1.0000
  H   H3047     1.0  0.95761  0.63725  0.65291  1.0000
  H   H3048     1.0  0.88146  0.56812  0.68859  1.0000
  H   H3049     1.0  0.82876  0.52873  0.82143  1.0000
  H   H3050     1.0  0.80983  0.53211  0.84144  1.0000
  C   C2556     1.0  0.91411  0.50797  0.90866  1.0000
  H   H3051     1.0  0.96601  0.66618  0.64411  1.0000
  Fe  Fe352     1.0  0.86490  0.50150  0.81010  1.0000
  C   C2557     1.0  0.91174  0.53664  0.71580  1.0000
  H   H3052     1.0  0.83617  0.50743  0.62664  1.0000
  H   H3053     1.0  0.90756  0.51718  0.68928  1.0000
  C   C2558     1.0  0.71636  0.70659  0.84567  1.0000
  C   C2559     1.0  0.89602  0.52980  0.69213  1.0000
  C   C2560     1.0  0.87298  0.51222  0.53847  1.0000
  C   C2561     1.0  0.86222  0.51017  0.52479  1.0000
  N   N168      1.0  0.77607  0.60877  0.94765  1.0000
  C   C2562     1.0  0.77779  0.59555  0.96625  1.0000
  H   H3054     1.0  0.85786  0.50751  0.76243  1.0000
  C   C2563     1.0  0.79333  0.60325  0.93314  1.0000
  C   C2564     1.0  0.77505  0.62894  0.95021  1.0000
  H   H3055     1.0  0.70497  0.62068  0.85408  1.0000
  C   C2565     1.0  0.79027  0.63411  0.95698  1.0000
  C   C2566     1.0  0.84645  0.49498  0.74302  1.0000
  C   C2567     1.0  0.70708  0.59445  0.87486  1.0000
  H   H3056     1.0  0.77735  0.58038  0.96522  1.0000
  H   H3057     1.0  0.73016  0.70067  0.87071  1.0000
  H   H3058     1.0  0.86664  0.64351  0.54722  1.0000
  S   S700      1.0  0.86428  0.49658  0.84218  1.0000
  C   C2568     1.0  0.90515  0.69751  0.58040  1.0000
  H   H3059     1.0  0.80714  0.60343  0.93788  1.0000
  H   H3060     1.0  0.79419  0.58839  0.93027  1.0000
  H   H3061     1.0  0.72001  0.58736  0.86651  1.0000
  H   H3062     1.0  0.67793  0.58616  0.91796  1.0000
  H   H3063     1.0  0.76585  0.60011  0.97786  1.0000
  H   H3064     1.0  0.91628  0.54756  0.72210  1.0000
  C   C2569     1.0  0.91899  0.55311  0.68274  1.0000
  C   C2570     1.0  0.92800  0.56772  0.68610  1.0000
  H   H3065     1.0  0.74728  0.64163  0.94029  1.0000
  C   C2571     1.0  0.69916  0.58496  0.89276  1.0000
  S   S701      1.0  0.85155  0.63818  0.97175  1.0000
  H   H3066     1.0  0.72500  0.69416  0.83978  1.0000
  H   H3067     1.0  0.92389  0.57328  0.69953  1.0000
  S   S702      1.0  0.98237  0.68464  0.58852  1.0000
  H   H3068     1.0  0.81097  0.49383  0.67674  1.0000
  H   H3069     1.0  0.89134  0.57205  0.70826  1.0000
  N   N169      1.0  0.82546  0.51442  0.65533  1.0000
  H   H3070     1.0  0.78468  0.55946  0.84050  1.0000
  H   H3071     1.0  0.80429  0.52721  0.81986  1.0000
  H   H3072     1.0  0.91929  0.53595  0.66050  1.0000
  H   H3073     1.0  0.82538  0.57484  0.73988  1.0000
  H   H3074     1.0  0.80281  0.62358  0.96025  1.0000
  H   H3075     1.0  0.83125  0.54056  0.75540  1.0000
  C   C2572     1.0  0.96178  0.71241  0.53682  1.0000
  H   H3076     1.0  0.70612  0.57055  0.89830  1.0000
  C   C2573     1.0  0.84061  0.63518  0.85715  1.0000
  C   C2574     1.0  0.93433  0.67453  0.65143  1.0000
  C   C2575     1.0  0.85226  0.62015  0.86739  1.0000
  C   C2576     1.0  0.86217  0.62398  0.88061  1.0000
  H   H3077     1.0  0.83321  0.63146  0.84708  1.0000
  H   H3078     1.0  0.83731  0.56091  0.82123  1.0000
  C   C2577     1.0  0.93468  0.72786  0.55803  1.0000
  C   C2578     1.0  0.94855  0.56873  0.65468  1.0000
  N   N170      1.0  0.88082  0.62344  0.60996  1.0000
  C   C2579     1.0  0.88441  0.60436  0.62265  1.0000
  C   C2580     1.0  0.89496  0.63510  0.61179  1.0000
  C   C2581     1.0  0.86089  0.63306  0.61729  1.0000
  H   H3079     1.0  0.87959  0.60522  0.63828  1.0000
  H   H3080     1.0  0.91009  0.62855  0.60624  1.0000
  H   H3081     1.0  0.89421  0.63620  0.62715  1.0000
  H   H3082     1.0  0.89209  0.65006  0.60365  1.0000
  H   H3083     1.0  0.84977  0.62647  0.61334  1.0000
  H   H3084     1.0  0.85791  0.63184  0.63332  1.0000
  H   H3085     1.0  0.85835  0.64886  0.61186  1.0000
  H   H3086     1.0  0.90612  0.59591  0.59032  1.0000
  H   H3087     1.0  0.77922  0.55789  0.81750  1.0000
  H   H3088     1.0  0.85558  0.72127  0.67580  1.0000
  C   C2582     1.0  0.82160  0.56561  0.82633  1.0000
  H   H3089     1.0  0.93711  0.63322  0.57089  1.0000
  H   H3090     1.0  0.78529  0.57968  0.82156  1.0000
  C   C2583     1.0  0.93096  0.67912  0.59685  1.0000
  N   N171      1.0  0.90378  0.54512  0.69779  1.0000
  C   C2584     1.0  0.91156  0.68675  0.56538  1.0000
  C   C2585     1.0  0.66363  0.68518  0.87073  1.0000
  C   C2586     1.0  0.82845  0.51986  0.63394  1.0000
  H   H3091     1.0  0.87355  0.64482  0.76488  1.0000
  S   S703      1.0  0.84053  0.49103  0.80148  1.0000
  C   C2587     1.0  0.81663  0.53095  0.66550  1.0000
  C   C2588     1.0  0.87528  0.63331  0.55682  1.0000
  C   C2589     1.0  0.80886  0.54941  0.65582  1.0000
  C   C2590     1.0  0.93726  0.66805  0.58212  1.0000
  C   C2591     1.0  0.80034  0.56458  0.66598  1.0000
  C   C2592     1.0  0.79930  0.56191  0.68592  1.0000
  C   C2593     1.0  0.92328  0.73186  0.54358  1.0000
  S   S704      1.0  0.89639  0.48857  0.80340  1.0000
  C   C2594     1.0  0.68289  0.59421  0.90398  1.0000
  C   C2595     1.0  0.92789  0.50061  0.92066  1.0000
  C   C2596     1.0  0.93041  0.64017  0.55795  1.0000
  H   H3092     1.0  0.85444  0.51630  0.65822  1.0000
  S   S705      1.0  0.84993  0.49030  0.50182  1.0000
  H   H3093     1.0  0.99297  0.62116  0.97721  1.0000
  H   H3094     1.0  0.79170  0.59510  0.97107  1.0000
  H   H3095     1.0  0.91450  0.64072  0.56235  1.0000
  H   H3096     1.0  0.80955  0.55267  0.64036  1.0000
  C   C2597     1.0  0.77431  0.66745  0.95488  1.0000
  H   H3097     1.0  0.79504  0.57868  0.65826  1.0000
  H   H3098     1.0  0.79329  0.57388  0.69364  1.0000
  N   N172      1.0  0.90108  0.58404  0.81588  1.0000
  C   C2598     1.0  0.92126  0.57447  0.80946  1.0000
  C   C2599     1.0  0.90041  0.58948  0.83496  1.0000
  C   C2600     1.0  0.88817  0.56973  0.81838  1.0000
  C   C2601     1.0  0.89425  0.60113  0.80197  1.0000
  C   C2602     1.0  0.90415  0.60524  0.78265  1.0000
  C   C2603     1.0  0.87647  0.61352  0.80716  1.0000
  C   C2604     1.0  0.89679  0.62096  0.76959  1.0000
  C   C2605     1.0  0.86935  0.62928  0.79400  1.0000
  C   C2606     1.0  0.87941  0.63292  0.77521  1.0000
  H   H3099     1.0  0.93165  0.58475  0.80646  1.0000
  H   H3100     1.0  0.92626  0.56214  0.82052  1.0000
  H   H3101     1.0  0.92251  0.56799  0.79633  1.0000
  H   H3102     1.0  0.90800  0.60192  0.83338  1.0000
  H   H3103     1.0  0.90740  0.57734  0.84501  1.0000
  H   H3104     1.0  0.88536  0.59325  0.84269  1.0000
  H   H3105     1.0  0.88856  0.56509  0.80440  1.0000
  H   H3106     1.0  0.89251  0.55665  0.82890  1.0000
  H   H3107     1.0  0.87280  0.57558  0.82389  1.0000
  H   H3108     1.0  0.91741  0.59632  0.77709  1.0000
  H   H3109     1.0  0.86765  0.61082  0.82127  1.0000
  H   H3110     1.0  0.90444  0.62368  0.75486  1.0000
  H   H3111     1.0  0.85566  0.63842  0.79816  1.0000
  H   H3112     1.0  0.90261  0.50409  0.88458  1.0000
  H   H3113     1.0  0.81231  0.60039  0.75995  1.0000
  C   C2607     1.0  0.92806  0.67178  0.56569  1.0000
  S   S706      1.0  0.90348  0.50627  0.65150  1.0000
  C   C2608     1.0  0.94678  0.64090  0.66578  1.0000
  H   H3114     1.0  0.74726  0.67427  0.94439  1.0000
  C   C2609     1.0  0.91928  0.69077  0.64912  1.0000
  C   C2610     1.0  0.92333  0.70913  0.64051  1.0000
  C   C2611     1.0  0.82564  0.55172  0.76426  1.0000
  H   H3115     1.0  0.94263  0.62689  0.67371  1.0000
  H   H3116     1.0  0.91899  0.66390  0.68811  1.0000
  H   H3117     1.0  0.90419  0.68945  0.65381  1.0000
  C   C2612     1.0  0.93981  0.55465  0.65076  1.0000
  S   S707      1.0  0.98574  0.70009  0.53231  1.0000
  N   N173      1.0  0.80955  0.55624  0.81775  1.0000
  C   C2613     1.0  0.78880  0.56363  0.82456  1.0000
  C   C2614     1.0  0.81324  0.53519  0.82537  1.0000
  C   C2615     1.0  0.81404  0.56096  0.79639  1.0000
  C   C2616     1.0  0.81078  0.58045  0.78693  1.0000
  C   C2617     1.0  0.82164  0.54666  0.78439  1.0000
  C   C2618     1.0  0.81492  0.58536  0.76681  1.0000
  H   H3118     1.0  0.92840  0.50824  0.93209  1.0000
  H   H3119     1.0  0.95403  0.64638  0.67537  1.0000
  H   H3120     1.0  0.94940  0.58625  0.67537  1.0000
  C   C2619     1.0  0.91478  0.65615  0.67809  1.0000
  C   C2620     1.0  0.69868  0.61322  0.86797  1.0000
  C   C2621     1.0  0.80646  0.54394  0.69585  1.0000
  C   C2622     1.0  0.75879  0.60563  0.94102  1.0000
  H   H3121     1.0  0.81901  0.56206  0.84241  1.0000
  H   H3122     1.0  0.97241  0.69832  0.62964  1.0000
  H   H3123     1.0  0.91260  0.64155  0.68619  1.0000
  H   H3124     1.0  0.80574  0.54189  0.71136  1.0000
  H   H3125     1.0  0.83863  0.69427  0.85172  1.0000
  H   H3126     1.0  0.81853  0.58160  0.82268  1.0000
  H   H3127     1.0  0.80575  0.65308  0.84554  1.0000
  N   N174      1.0  0.92967  0.65513  0.66030  1.0000
  H   H3128     1.0  0.79991  0.66312  0.86725  1.0000
  H   H3129     1.0  0.90019  0.66345  0.67495  1.0000
  C   C2623     1.0  0.88848  0.61808  0.54983  1.0000
  C   C2624     1.0  0.86305  0.49204  0.51974  1.0000
  H   H3130     1.0  0.90394  0.52115  0.91085  1.0000
  C   C2625     1.0  0.89712  0.60660  0.58158  1.0000
  H   H3131     1.0  0.87651  0.59404  0.61928  1.0000
  H   H3132     1.0  0.81444  0.52481  0.62852  1.0000
  C   C2626     1.0  0.86036  0.64281  0.88373  1.0000
  C   C2627     1.0  0.80620  0.66593  0.85169  1.0000
  C   C2628     1.0  0.94243  0.71184  0.63357  1.0000
  C   C2629     1.0  0.75934  0.64396  0.94592  1.0000
  C   C2630     1.0  0.83837  0.65457  0.86003  1.0000
  C   C2631     1.0  0.95364  0.67772  0.64379  1.0000
  H   H3133     1.0  0.79621  0.67809  0.84466  1.0000
  H   H3134     1.0  0.81981  0.51493  0.69431  1.0000
  H   H3135     1.0  0.89008  0.61636  0.53489  1.0000
  H   H3136     1.0  0.83434  0.65853  0.82234  1.0000
  H   H3137     1.0  0.88933  0.53529  0.67892  1.0000
  H   H3138     1.0  0.75993  0.59031  0.93935  1.0000
  C   C2632     1.0  0.88727  0.56083  0.70198  1.0000
  H   H3139     1.0  0.67433  0.63640  0.92220  1.0000
  H   H3140     1.0  0.93238  0.65891  0.52102  1.0000
  H   H3141     1.0  0.91027  0.66744  0.53566  1.0000
  H   H3142     1.0  0.86251  0.64738  0.58078  1.0000
  H   H3143     1.0  0.96468  0.64982  0.55560  1.0000
  C   C2633     1.0  0.91498  0.69387  0.59596  1.0000
  H   H3144     1.0  0.86776  0.64570  0.89435  1.0000
  N   N175      1.0  0.82610  0.67027  0.84886  1.0000
  C   C2634     1.0  0.92185  0.64765  0.64628  1.0000
  H   H3145     1.0  0.91711  0.63353  0.65265  1.0000
  H   H3146     1.0  0.90912  0.65783  0.64143  1.0000
  C   C2635     1.0  0.87065  0.71663  0.62856  1.0000
  C   C2636     1.0  0.84870  0.65795  0.87364  1.0000
  H   H3147     1.0  0.81794  0.68914  0.87008  1.0000
  C   C2637     1.0  0.92614  0.66761  0.53273  1.0000
  H   H3148     1.0  0.92862  0.68270  0.52682  1.0000
  C   C2638     1.0  0.95376  0.71788  0.55477  1.0000
  C   C2639     1.0  0.83444  0.67182  0.82801  1.0000
  H   H3149     1.0  0.93292  0.64559  0.63313  1.0000
  H   H3150     1.0  0.83738  0.53152  0.62889  1.0000
  C   C2640     1.0  0.95053  0.71677  0.52219  1.0000
  C   C2641     1.0  0.92527  0.54689  0.66452  1.0000
  H   H3151     1.0  0.93572  0.63034  0.54709  1.0000
  C   C2642     1.0  0.89956  0.60493  0.56212  1.0000
  H   H3152     1.0  0.82598  0.68393  0.81915  1.0000
  H   H3153     1.0  0.91030  0.70268  0.60720  1.0000
  H   H3154     1.0  0.91152  0.72132  0.63917  1.0000
  H   H3155     1.0  0.85339  0.60542  0.86525  1.0000
  H   H3156     1.0  0.92465  0.52523  0.71310  1.0000
  C   C2643     1.0  0.82433  0.68945  0.85449  1.0000
  H   H3157     1.0  0.84972  0.67428  0.82528  1.0000
  H   H3158     1.0  0.81462  0.70087  0.84627  1.0000
  H   H3159     1.0  0.96189  0.65056  0.53155  1.0000
  H   H3160     1.0  0.85324  0.50342  0.73010  1.0000
  H   H3161     1.0  0.84775  0.67207  0.87720  1.0000
  H   H3162     1.0  0.89289  0.70925  0.57958  1.0000
  H   H3163     1.0  0.91457  0.65809  0.96826  1.0000
  N   N176      1.0  0.93507  0.65976  0.55031  1.0000
  H   H3164     1.0  0.87439  0.72516  0.61449  1.0000
  S   S708      1.0  0.89983  0.49791  0.56337  1.0000
  C   C2644     1.0  0.88502  0.49617  0.54692  1.0000
  H   H3165     1.0  0.87116  0.61238  0.88864  1.0000
  H   H3166     1.0  0.98350  0.61973  0.57452  1.0000
  C   C2645     1.0  0.75907  0.66289  0.94829  1.0000
  H   H3167     1.0  0.77427  0.68224  0.95619  1.0000
  C   C2646     1.0  0.91338  0.49836  0.89389  1.0000
  H   H3168     1.0  0.67673  0.63727  0.87318  1.0000
  H   H3169     1.0  0.88448  0.52419  0.70359  1.0000
  H   H3170     1.0  0.79772  0.50602  0.65781  1.0000
  C   C2647     1.0  0.84910  0.49730  0.76132  1.0000
  C   C2648     1.0  0.71923  0.71019  0.86312  1.0000
  C   C2649     1.0  0.84470  0.50545  0.66077  1.0000
  C   C2650     1.0  0.68245  0.62261  0.87905  1.0000
  H   H3171     1.0  0.80204  0.65681  0.96370  1.0000
  C   C2651     1.0  0.70215  0.71864  0.83588  1.0000
  C   C2652     1.0  0.67398  0.61340  0.89739  1.0000
  C   C2653     1.0  0.93122  0.72621  0.52566  1.0000
  H   H3172     1.0  0.66933  0.72809  0.81760  1.0000
  H   H3173     1.0  0.70056  0.71464  0.82265  1.0000
  H   H3174     1.0  0.92247  0.72928  0.51440  1.0000
  H   H3175     1.0  0.93544  0.67886  0.97506  1.0000
  H   H3176     1.0  0.92863  0.73183  0.57197  1.0000
  H   H3177     1.0  0.71025  0.72872  0.88445  1.0000
  C   C2654     1.0  0.66213  0.64080  0.91396  1.0000
  H   H3178     1.0  0.81822  0.48730  0.65319  1.0000
  H   H3179     1.0  0.98513  0.72780  0.57900  1.0000
  C   C2655     1.0  0.69042  0.73494  0.84332  1.0000
  Fe  Fe353     1.0  0.99289  0.65263  0.59402  1.0000
  Fe  Fe354     1.0  0.89620  0.48565  0.83512  1.0000
  H   H3180     1.0  0.84365  0.91284  0.31358  1.0000
  C   C2656     1.0  0.78670  0.82641  0.29418  1.0000
  N   N177      1.0  0.69786  0.87791  0.47796  1.0000
  Fe  Fe355     1.0  0.84309  0.77516  0.12171  1.0000
  S   S709      1.0  0.86034  0.77174  0.14572  1.0000
  C   C2657     1.0  0.91532  0.97909  0.28343  1.0000
  Fe  Fe356     1.0  0.85636  0.81341  0.10299  1.0000
  S   S710      1.0  0.87482  0.81280  0.12480  1.0000
  S   S711      1.0  0.85337  0.83796  0.07823  1.0000
  Fe  Fe357     1.0  0.88394  0.78146  0.12220  1.0000
  Fe  Fe358     1.0  0.84978  0.80350  0.14657  1.0000
  S   S712      1.0  0.83965  0.81556  0.17481  1.0000
  S   S713      1.0  0.86772  0.78290  0.09823  1.0000
  S   S714      1.0  0.83025  0.80610  0.12475  1.0000
  Fe  Fe359     1.0  0.95624  0.89618  0.09744  1.0000
  S   S715      1.0  0.95630  0.90989  0.06656  1.0000
  S   S716      1.0  0.94417  0.91313  0.12167  1.0000
  Fe  Fe360     1.0  0.94353  0.88467  0.06449  1.0000
  S   S717      1.0  0.91722  0.89157  0.05037  1.0000
  S   S718      1.0  0.94167  0.87194  0.09573  1.0000
  C   C2658     1.0  0.91326  0.96402  0.45230  1.0000
  H   H3181     1.0  0.83158  0.95322  0.11294  1.0000
  Fe  Fe361     1.0  0.86237  0.89426  0.22860  1.0000
  S   S719      1.0  0.83077  0.90062  0.24146  1.0000
  S   S720      1.0  0.87507  0.87729  0.20381  1.0000
  Fe  Fe362     1.0  0.87331  0.92109  0.25245  1.0000
  S   S721      1.0  0.84262  0.92922  0.26669  1.0000
  S   S722      1.0  0.89902  0.93133  0.25870  1.0000
  Fe  Fe363     1.0  0.84115  0.89781  0.26966  1.0000
  S   S723      1.0  0.83078  0.88041  0.29853  1.0000
  Fe  Fe364     1.0  0.83567  0.93131  0.23713  1.0000
  S   S724      1.0  0.81531  0.95655  0.22437  1.0000
  S   S725      1.0  0.87257  0.88926  0.25719  1.0000
  S   S726      1.0  0.86652  0.92535  0.22252  1.0000
  H   H3182     1.0  0.85058  0.86552  0.39175  1.0000
  H   H3183     1.0  0.70483  0.88464  0.44682  1.0000
  Fe  Fe365     1.0  0.72822  0.87798  0.35938  1.0000
  S   S727      1.0  0.74355  0.84955  0.37311  1.0000
  S   S728      1.0  0.74120  0.89709  0.33293  1.0000
  Fe  Fe366     1.0  0.69093  0.87540  0.38854  1.0000
  S   S729      1.0  0.70342  0.84686  0.40424  1.0000
  H   H3184     1.0  0.92490  0.78137  0.05423  1.0000
  Fe  Fe367     1.0  0.73005  0.86011  0.40119  1.0000
  S   S730      1.0  0.74169  0.86206  0.42775  1.0000
  Fe  Fe368     1.0  0.71517  0.83948  0.37458  1.0000
  S   S731      1.0  0.71233  0.81102  0.36701  1.0000
  S   S732      1.0  0.71656  0.88927  0.38718  1.0000
  S   S733      1.0  0.70084  0.86730  0.35913  1.0000
  Fe  Fe369     1.0  0.84066  0.87929  0.44375  1.0000
  S   S734      1.0  0.83054  0.85749  0.43105  1.0000
  S   S735      1.0  0.87216  0.88172  0.43487  1.0000
  C   C2659     1.0  0.76649  0.86158  0.42765  1.0000
  C   C2660     1.0  0.77171  0.87080  0.44083  1.0000
  C   C2661     1.0  0.79133  0.87016  0.44160  1.0000
  C   C2662     1.0  0.80585  0.85981  0.42955  1.0000
  C   C2663     1.0  0.80066  0.85059  0.41637  1.0000
  C   C2664     1.0  0.78104  0.85173  0.41519  1.0000
  H   H3185     1.0  0.76057  0.87859  0.45041  1.0000
  H   H3186     1.0  0.79521  0.87729  0.45181  1.0000
  H   H3187     1.0  0.81186  0.84240  0.40715  1.0000
  H   H3188     1.0  0.77716  0.84439  0.40516  1.0000
  H   H3189     1.0  0.89585  0.74466  0.05904  1.0000
  H   H3190     1.0  0.96548  0.74673  0.06982  1.0000
  N   N178      1.0  0.87153  0.90898  0.32244  1.0000
  C   C2665     1.0  0.89280  0.97035  0.07638  1.0000
  H   H3191     1.0  0.89610  0.96643  0.22679  1.0000
  S   S736      1.0  0.84130  0.87967  0.47477  1.0000
  H   H3192     1.0  0.67960  0.88607  0.45600  1.0000
  C   C2666     1.0  0.80588  0.88512  0.30790  1.0000
  C   C2667     1.0  0.79820  0.87285  0.32426  1.0000
  C   C2668     1.0  0.77835  0.87633  0.33205  1.0000
  C   C2669     1.0  0.76612  0.89214  0.32352  1.0000
  C   C2670     1.0  0.77385  0.90448  0.30726  1.0000
  C   C2671     1.0  0.79370  0.90099  0.29945  1.0000
  H   H3193     1.0  0.80761  0.86053  0.33079  1.0000
  H   H3194     1.0  0.77257  0.86680  0.34459  1.0000
  H   H3195     1.0  0.76444  0.91675  0.30061  1.0000
  H   H3196     1.0  0.79953  0.91052  0.28683  1.0000
  H   H3197     1.0  0.91767  0.96149  0.46632  1.0000
  H   H3198     1.0  0.99131  0.76362  0.05605  1.0000
  H   H3199     1.0  0.84513  0.83152  0.46669  1.0000
  C   C2672     1.0  0.92310  0.82117  0.12317  1.0000
  H   H3200     1.0  0.95382  0.75805  0.04970  1.0000
  C   C2673     1.0  0.88578  0.88610  0.11417  1.0000
  H   H3201     1.0  0.97047  0.79098  0.08515  1.0000
  C   C2674     1.0  0.82251  0.96334  0.19938  1.0000
  C   C2675     1.0  0.86593  0.88844  0.37655  1.0000
  C   C2676     1.0  0.84275  0.94542  0.10325  1.0000
  C   C2677     1.0  0.92348  0.95232  0.26554  1.0000
  C   C2678     1.0  0.90400  0.95043  0.26820  1.0000
  C   C2679     1.0  0.85783  0.74168  0.06901  1.0000
  H   H3202     1.0  0.79050  0.94052  0.34918  1.0000
  H   H3203     1.0  0.78518  0.87651  0.37373  1.0000
  H   H3204     1.0  0.93450  0.94264  0.25769  1.0000
  C   C2680     1.0  0.96396  0.77846  0.08429  1.0000
  N   N179      1.0  0.75453  0.83115  0.31642  1.0000
  C   C2681     1.0  0.93896  0.93822  0.11399  1.0000
  C   C2682     1.0  0.92570  0.94973  0.12602  1.0000
  H   H3205     1.0  0.72863  0.87526  0.46721  1.0000
  C   C2683     1.0  0.92903  0.96657  0.27287  1.0000
  C   C2684     1.0  0.94746  0.94679  0.09580  1.0000
  H   H3206     1.0  0.91943  0.94331  0.14032  1.0000
  C   C2685     1.0  0.89775  0.95410  0.43005  1.0000
  H   H3207     1.0  0.95754  0.86753  0.13942  1.0000
  C   C2686     1.0  0.81137  0.76010  0.08777  1.0000
  C   C2687     1.0  0.80180  0.75609  0.07405  1.0000
  C   C2688     1.0  0.79982  0.85311  0.27275  1.0000
  S   S737      1.0  0.91553  0.76780  0.11933  1.0000
  C   C2689     1.0  0.76308  0.82150  0.33383  1.0000
  H   H3208     1.0  0.81505  0.77428  0.08634  1.0000
  H   H3209     1.0  0.79819  0.76729  0.06210  1.0000
  H   H3210     1.0  0.69120  0.83891  0.33939  1.0000
  C   C2690     1.0  0.77162  0.91289  0.36201  1.0000
  C   C2691     1.0  0.84897  0.83357  0.18216  1.0000
  C   C2692     1.0  0.86367  0.84283  0.17029  1.0000
  C   C2693     1.0  0.87113  0.85649  0.17698  1.0000
  C   C2694     1.0  0.86396  0.86120  0.19554  1.0000
  C   C2695     1.0  0.84886  0.85240  0.20718  1.0000
  C   C2696     1.0  0.84148  0.83862  0.20054  1.0000
  H   H3211     1.0  0.86923  0.83950  0.15595  1.0000
  H   H3212     1.0  0.88249  0.86349  0.16765  1.0000
  H   H3213     1.0  0.84317  0.85585  0.22148  1.0000
  H   H3214     1.0  0.83003  0.83165  0.20979  1.0000
  C   C2697     1.0  0.87145  0.85251  0.07135  1.0000
  C   C2698     1.0  0.88876  0.84766  0.07888  1.0000
  C   C2699     1.0  0.90289  0.85970  0.07280  1.0000
  C   C2700     1.0  0.89978  0.87643  0.05903  1.0000
  C   C2701     1.0  0.88249  0.88121  0.05161  1.0000
  C   C2702     1.0  0.86838  0.86932  0.05776  1.0000
  H   H3215     1.0  0.89144  0.83447  0.08901  1.0000
  H   H3216     1.0  0.91636  0.85571  0.07834  1.0000
  H   H3217     1.0  0.88003  0.89405  0.04090  1.0000
  H   H3218     1.0  0.85508  0.87308  0.05183  1.0000
  H   H3219     1.0  0.76300  0.92733  0.36408  1.0000
  C   C2703     1.0  0.67123  0.80418  0.32793  1.0000
  C   C2704     1.0  0.67913  0.78829  0.34047  1.0000
  C   C2705     1.0  0.69159  0.79062  0.35243  1.0000
  C   C2706     1.0  0.69601  0.80888  0.35223  1.0000
  C   C2707     1.0  0.68786  0.82481  0.33988  1.0000
  C   C2708     1.0  0.67565  0.82244  0.32774  1.0000
  H   H3220     1.0  0.67591  0.77414  0.34075  1.0000
  H   H3221     1.0  0.69787  0.77817  0.36186  1.0000
  N   N180      1.0  0.87559  0.91827  0.15251  1.0000
  C   C2709     1.0  0.89372  0.91094  0.16066  1.0000
  C   C2710     1.0  0.87707  0.93736  0.14018  1.0000
  C   C2711     1.0  0.85938  0.92135  0.16888  1.0000
  C   C2712     1.0  0.87297  0.90453  0.14078  1.0000
  C   C2713     1.0  0.88762  0.89948  0.12509  1.0000
  C   C2714     1.0  0.85631  0.89549  0.14468  1.0000
  C   C2715     1.0  0.86941  0.87730  0.11855  1.0000
  C   C2716     1.0  0.85471  0.88201  0.13373  1.0000
  H   H3222     1.0  0.88637  0.90427  0.29384  1.0000
  H   H3223     1.0  0.89384  0.89592  0.16865  1.0000
  H   H3224     1.0  0.90696  0.91077  0.14938  1.0000
  H   H3225     1.0  0.89542  0.91991  0.17097  1.0000
  H   H3226     1.0  0.88923  0.93657  0.12780  1.0000
  H   H3227     1.0  0.87952  0.94791  0.14846  1.0000
  H   H3228     1.0  0.86346  0.94362  0.13431  1.0000
  H   H3229     1.0  0.85740  0.90760  0.17888  1.0000
  H   H3230     1.0  0.86210  0.93118  0.17779  1.0000
  H   H3231     1.0  0.84543  0.92805  0.16379  1.0000
  H   H3232     1.0  0.90075  0.90567  0.12131  1.0000
  H   H3233     1.0  0.84449  0.89817  0.15641  1.0000
  Fe  Fe370     1.0  0.98526  0.89100  0.06061  1.0000
  H   H3234     1.0  0.94451  0.98345  0.39350  1.0000
  C   C2717     1.0  0.90315  0.95118  0.44812  1.0000
  H   H3235     1.0  0.72698  0.83986  0.33403  1.0000
  H   H3236     1.0  0.91120  0.90336  0.46474  1.0000
  S   S738      1.0  0.87554  0.92733  0.40004  1.0000
  H   H3237     1.0  0.78875  0.81108  0.29959  1.0000
  S   S739      1.0  0.86348  0.91762  0.45906  1.0000
  H   H3238     1.0  0.72522  0.74423  0.14652  1.0000
  C   C2718     1.0  0.85405  0.92145  0.31585  1.0000
  H   H3239     1.0  0.91012  0.83283  0.12325  1.0000
  C   C2719     1.0  0.88557  0.92165  0.32245  1.0000
  C   C2720     1.0  0.76829  0.85887  0.29297  1.0000
  C   C2721     1.0  0.94225  0.96664  0.08938  1.0000
  N   N181      1.0  0.92788  0.81439  0.14289  1.0000
  C   C2722     1.0  0.91210  0.80427  0.15473  1.0000
  H   H3240     1.0  0.94953  0.74146  0.10603  1.0000
  C   C2723     1.0  0.94606  0.80000  0.14167  1.0000
  C   C2724     1.0  0.93055  0.83098  0.15083  1.0000
  C   C2725     1.0  0.94470  0.84245  0.14089  1.0000
  C   C2726     1.0  0.91930  0.83642  0.16830  1.0000
  C   C2727     1.0  0.94692  0.85874  0.14753  1.0000
  C   C2728     1.0  0.92183  0.85260  0.17496  1.0000
  C   C2729     1.0  0.93544  0.86385  0.16450  1.0000
  H   H3241     1.0  0.91027  0.79202  0.14830  1.0000
  H   H3242     1.0  0.91515  0.79799  0.16953  1.0000
  H   H3243     1.0  0.89783  0.81410  0.15593  1.0000
  H   H3244     1.0  0.83869  0.95212  0.36872  1.0000
  C   C2730     1.0  0.85936  0.95330  0.09427  1.0000
  H   H3245     1.0  0.95052  0.79498  0.15608  1.0000
  H   H3246     1.0  0.89586  0.93920  0.04565  1.0000
  H   H3247     1.0  0.95834  0.80591  0.13167  1.0000
  H   H3248     1.0  0.95406  0.83898  0.12775  1.0000
  H   H3249     1.0  0.90824  0.82860  0.17704  1.0000
  H   H3250     1.0  0.91082  0.92321  0.07362  1.0000
  H   H3251     1.0  0.91294  0.85657  0.18824  1.0000
  H   H3252     1.0  0.93714  0.87654  0.16957  1.0000
  N   N182      1.0  0.96188  0.77795  0.06427  1.0000
  H   H3253     1.0  0.83969  0.86099  0.36263  1.0000
  H   H3254     1.0  0.88890  0.74063  0.12700  1.0000
  Fe  Fe371     1.0  0.87185  0.88545  0.46520  1.0000
  C   C2731     1.0  0.94850  0.79545  0.05718  1.0000
  H   H3255     1.0  0.87477  0.96182  0.28069  1.0000
  H   H3256     1.0  0.88057  0.96250  0.04561  1.0000
  C   C2732     1.0  0.69407  0.87789  0.45839  1.0000
  H   H3257     1.0  0.74041  0.82338  0.29609  1.0000
  C   C2733     1.0  0.81463  0.91413  0.38520  1.0000
  C   C2734     1.0  0.89381  0.95335  0.05057  1.0000
  H   H3258     1.0  0.91043  0.97834  0.12908  1.0000
  H   H3259     1.0  0.98860  0.78924  0.05268  1.0000
  S   S740      1.0  0.82842  0.74974  0.12093  1.0000
  H   H3260     1.0  0.67295  0.93367  0.43351  1.0000
  C   C2735     1.0  0.81385  0.97311  0.16741  1.0000
  H   H3261     1.0  0.86063  0.75197  0.05528  1.0000
  H   H3262     1.0  0.91416  0.84246  0.03787  1.0000
  H   H3263     1.0  0.94433  0.78708  0.13621  1.0000
  C   C2736     1.0  0.92876  0.97814  0.10127  1.0000
  H   H3264     1.0  0.82756  0.92164  0.10679  1.0000
  H   H3265     1.0  0.84211  0.87489  0.13728  1.0000
  H   H3266     1.0  0.78197  0.88102  0.27313  1.0000
  C   C2737     1.0  0.75441  0.75533  0.11806  1.0000
  H   H3267     1.0  0.88971  0.95078  0.36504  1.0000
  H   H3268     1.0  0.89233  0.96970  0.09211  1.0000
  H   H3269     1.0  0.91996  0.80925  0.11712  1.0000
  C   C2738     1.0  0.66471  0.92238  0.43428  1.0000
  H   H3270     1.0  0.85239  0.96323  0.20071  1.0000
  H   H3271     1.0  0.87053  0.89047  0.38940  1.0000
  H   H3272     1.0  0.73029  0.85361  0.31027  1.0000
  C   C2739     1.0  0.82820  0.94281  0.36973  1.0000
  H   H3273     1.0  0.88061  0.98153  0.07167  1.0000
  C   C2740     1.0  0.79663  0.73784  0.07579  1.0000
  H   H3274     1.0  0.75771  0.80410  0.30617  1.0000
  C   C2741     1.0  0.97912  0.97709  0.10303  1.0000
  H   H3275     1.0  0.93527  0.91934  0.47335  1.0000
  H   H3276     1.0  0.84855  0.95834  0.41690  1.0000
  C   C2742     1.0  0.84046  0.92768  0.09980  1.0000
  H   H3277     1.0  0.95825  0.93824  0.08672  1.0000
  S   S741      1.0  0.82967  0.91100  0.43659  1.0000
  Fe  Fe372     1.0  0.86126  0.91365  0.42928  1.0000
  C   C2743     1.0  0.95342  0.81406  0.05501  1.0000
  C   C2744     1.0  0.94121  0.83075  0.04795  1.0000
  H   H3278     1.0  0.87914  0.93296  0.33159  1.0000
  H   H3279     1.0  0.86374  0.96255  0.24544  1.0000
  S   S742      1.0  0.97244  0.86709  0.05507  1.0000
  H   H3280     1.0  0.75188  0.81633  0.34602  1.0000
  C   C2745     1.0  0.88073  0.89604  0.30813  1.0000
  C   C2746     1.0  0.80862  0.96716  0.18733  1.0000
  H   H3281     1.0  0.90643  0.97579  0.06896  1.0000
  C   C2747     1.0  0.79571  0.88639  0.37235  1.0000
  C   C2748     1.0  0.83279  0.97611  0.15954  1.0000
  C   C2749     1.0  0.93023  0.79472  0.05259  1.0000
  C   C2750     1.0  0.86515  0.97464  0.23371  1.0000
  H   H3282     1.0  0.66984  0.80687  0.25492  1.0000
  H   H3283     1.0  0.85424  0.75035  0.08092  1.0000
  H   H3284     1.0  0.75455  0.75995  0.13191  1.0000
  H   H3285     1.0  0.88217  0.91706  0.06889  1.0000
  C   C2751     1.0  0.86575  0.89742  0.34163  1.0000
  H   H3286     1.0  0.89898  0.91312  0.32758  1.0000
  H   H3287     1.0  0.80470  0.88685  0.35765  1.0000
  C   C2752     1.0  0.86964  0.95224  0.39181  1.0000
  H   H3288     1.0  0.84452  0.73578  0.06933  1.0000
  C   C2753     1.0  0.92049  0.96961  0.11962  1.0000
  H   H3289     1.0  0.81532  0.90135  0.39623  1.0000
  S   S743      1.0  0.98021  0.82417  0.09595  1.0000
  C   C2754     1.0  0.73798  0.84618  0.32246  1.0000
  C   C2755     1.0  0.74656  0.81681  0.30947  1.0000
  H   H3290     1.0  0.73474  0.81104  0.32051  1.0000
  C   C2756     1.0  0.66840  0.91176  0.41910  1.0000
  C   C2757     1.0  0.78318  0.86572  0.27896  1.0000
  H   H3291     1.0  0.89314  0.88545  0.31318  1.0000
  C   C2758     1.0  0.91786  0.97997  0.43847  1.0000
  C   C2759     1.0  0.81615  0.74576  0.10327  1.0000
  H   H3292     1.0  0.75603  0.86961  0.29733  1.0000
  C   C2760     1.0  0.76969  0.83893  0.30115  1.0000
  C   C2761     1.0  0.87145  0.92541  0.07836  1.0000
  H   H3293     1.0  0.81452  0.82371  0.27529  1.0000
  H   H3294     1.0  0.77015  0.83155  0.33888  1.0000
  C   C2762     1.0  0.89560  0.97737  0.28632  1.0000
  H   H3295     1.0  0.77898  0.91360  0.34668  1.0000
  H   H3296     1.0  0.74612  0.76769  0.10934  1.0000
  H   H3297     1.0  0.89958  0.93889  0.45887  1.0000
  H   H3298     1.0  0.94883  0.97315  0.07524  1.0000
  H   H3299     1.0  0.86803  0.86682  0.11017  1.0000
  C   C2763     1.0  0.80031  0.91870  0.37312  1.0000
  H   H3300     1.0  0.77418  0.80857  0.33120  1.0000
  Fe  Fe373     1.0  0.97177  0.85626  0.08673  1.0000
  N   N183      1.0  0.78573  0.90602  0.37556  1.0000
  C   C2764     1.0  0.84846  0.87195  0.36153  1.0000
  H   H3301     1.0  0.84622  0.93080  0.32661  1.0000
  H   H3302     1.0  0.89711  0.88255  0.10222  1.0000
  H   H3303     1.0  0.74283  0.85721  0.32838  1.0000
  H   H3304     1.0  0.94098  0.75870  0.07421  1.0000
  N   N184      1.0  0.89216  0.95120  0.07183  1.0000
  H   H3305     1.0  0.70766  0.90543  0.47004  1.0000
  H   H3306     1.0  0.80543  0.87950  0.38300  1.0000
  C   C2765     1.0  0.95515  0.75964  0.06445  1.0000
  H   H3307     1.0  0.92302  0.94310  0.07085  1.0000
  H   H3308     1.0  0.76091  0.90300  0.36420  1.0000
  C   C2766     1.0  0.87431  0.94344  0.08155  1.0000
  H   H3309     1.0  0.87043  0.88779  0.30511  1.0000
  C   C2767     1.0  0.80153  0.83347  0.28025  1.0000
  C   C2768     1.0  0.91617  0.89842  0.47845  1.0000
  H   H3310     1.0  0.76739  0.91929  0.39878  1.0000
  H   H3311     1.0  0.78369  0.89791  0.40659  1.0000
  H   H3312     1.0  0.76286  0.89582  0.39770  1.0000
  C   C2769     1.0  0.85377  0.88335  0.34367  1.0000
  Fe  Fe374     1.0  0.83288  0.91166  0.46702  1.0000
  H   H3313     1.0  0.86005  0.96715  0.09759  1.0000
  H   H3314     1.0  0.81146  0.85860  0.26216  1.0000
  H   H3315     1.0  0.90406  0.81076  0.04260  1.0000
  C   C2770     1.0  0.82829  0.92606  0.38347  1.0000
  H   H3316     1.0  0.83898  0.92236  0.39296  1.0000
  H   H3317     1.0  0.88002  0.91055  0.35892  1.0000
  H   H3318     1.0  0.66469  0.82586  0.38774  1.0000
  C   C2771     1.0  0.77447  0.90472  0.39548  1.0000
  H   H3319     1.0  0.97348  0.76524  0.09037  1.0000
  H   H3320     1.0  0.96670  0.81586  0.05891  1.0000
  H   H3321     1.0  0.66968  0.83481  0.31804  1.0000
  H   H3322     1.0  0.94518  0.84485  0.04632  1.0000
  C   C2772     1.0  0.90934  0.93760  0.07779  1.0000
  C   C2773     1.0  0.87918  0.96009  0.37372  1.0000
  C   C2774     1.0  0.88990  0.96313  0.27851  1.0000
  H   H3323     1.0  0.85792  0.93100  0.30184  1.0000
  C   C2775     1.0  0.81449  0.94766  0.35751  1.0000
  C   C2776     1.0  0.80074  0.93582  0.35905  1.0000
  C   C2777     1.0  0.85473  0.91776  0.08728  1.0000
  C   C2778     1.0  0.87139  0.89989  0.35875  1.0000
  H   H3324     1.0  0.84852  0.88097  0.33140  1.0000
  C   C2779     1.0  0.92366  0.82946  0.04319  1.0000
  H   H3325     1.0  0.88694  0.74450  0.08444  1.0000
  H   H3326     1.0  0.93522  0.82690  0.11271  1.0000
  C   C2780     1.0  0.85599  0.96432  0.40293  1.0000
  H   H3327     1.0  0.81437  0.96084  0.34695  1.0000
  H   H3328     1.0  0.67929  0.91505  0.40658  1.0000
  H   H3329     1.0  0.89034  0.92947  0.30768  1.0000
  H   H3330     1.0  0.94424  0.96774  0.27047  1.0000
  H   H3331     1.0  0.81102  0.84031  0.47886  1.0000
  H   H3332     1.0  0.85291  0.90397  0.08452  1.0000
  H   H3333     1.0  0.94959  0.77951  0.09399  1.0000
  H   H3334     1.0  0.68220  0.90713  0.47846  1.0000
  C   C2781     1.0  0.85459  0.87444  0.37792  1.0000
  H   H3335     1.0  0.71709  0.75475  0.12389  1.0000
  H   H3336     1.0  0.69485  0.86292  0.45592  1.0000
  H   H3337     1.0  0.80307  0.97576  0.15815  1.0000
  C   C2782     1.0  0.91880  0.74355  0.11637  1.0000
  C   C2783     1.0  0.84163  0.96588  0.19146  1.0000
  H   H3338     1.0  0.99231  0.92736  0.07083  1.0000
  C   C2784     1.0  0.98129  0.77728  0.05182  1.0000
  C   C2785     1.0  0.84671  0.97258  0.17158  1.0000
  H   H3339     1.0  0.90864  0.93533  0.09369  1.0000
  H   H3340     1.0  0.89006  0.94396  0.42676  1.0000
  H   H3341     1.0  0.98019  0.77804  0.03642  1.0000
  C   C2786     1.0  0.91805  0.81154  0.04577  1.0000
  H   H3342     1.0  0.90653  0.96015  0.04273  1.0000
  C   C2787     1.0  0.72554  0.74174  0.13164  1.0000
  H   H3343     1.0  0.89803  0.97136  0.40222  1.0000
  C   C2788     1.0  0.88345  0.97680  0.22318  1.0000
  C   C2789     1.0  0.99163  0.96008  0.09914  1.0000
  H   H3344     1.0  0.86136  0.97497  0.16558  1.0000
  H   H3345     1.0  0.79269  0.90593  0.47032  1.0000
  H   H3346     1.0  0.79382  0.96528  0.19338  1.0000
  C   C2790     1.0  0.90231  0.96993  0.41611  1.0000
  S   S744      1.0  0.98633  0.87930  0.09194  1.0000
  C   C2791     1.0  0.89108  0.73536  0.07292  1.0000
  H   H3347     1.0  0.97114  0.97802  0.11750  1.0000
  C   C2792     1.0  0.87540  0.98001  0.36689  1.0000
  H   H3348     1.0  0.72037  0.85283  0.47629  1.0000
  H   H3349     1.0  0.83493  0.98476  0.23751  1.0000
  S   S745      1.0  0.83878  0.98373  0.13458  1.0000
  C   C2793     1.0  0.85217  0.98430  0.39605  1.0000
  H   H3350     1.0  0.76952  0.75320  0.10988  1.0000
  C   C2794     1.0  0.71818  0.86802  0.47869  1.0000
  N   N185      1.0  0.74578  0.73753  0.12134  1.0000
  C   C2795     1.0  0.91234  0.98349  0.41993  1.0000
  H   H3351     1.0  0.92487  0.98333  0.38148  1.0000
  H   H3352     1.0  0.73880  0.74598  0.09247  1.0000
  C   C2796     1.0  0.69652  0.89815  0.48055  1.0000
  H   H3353     1.0  0.76233  0.89214  0.48034  1.0000
  H   H3354     1.0  0.99294  0.94822  0.11105  1.0000
  H   H3355     1.0  0.85868  0.82412  0.52356  1.0000
  S   S746      1.0  0.67041  0.87842  0.69493  1.0000
  Fe  Fe375     1.0  0.96211  0.88719  0.57572  1.0000
  S   S747      1.0  0.96564  0.87227  0.55045  1.0000
  S   S748      1.0  0.93894  0.87736  0.59970  1.0000
  H   H3356     1.0  0.92573  0.80469  0.53389  1.0000
  H   H3357     1.0  0.67844  0.83204  0.53182  1.0000
  Fe  Fe376     1.0  0.96951  0.90082  0.53246  1.0000
  S   S749      1.0  0.95477  0.91188  0.50605  1.0000
  C   C2797     1.0  0.84039  0.83162  0.48207  1.0000
  S   S750      1.0  0.96378  0.91661  0.55773  1.0000
  Fe  Fe377     1.0  0.89160  0.76100  0.57160  1.0000
  S   S751      1.0  0.90562  0.75404  0.59795  1.0000
  H   H3358     1.0  0.96617  0.82566  0.63041  1.0000
  Fe  Fe378     1.0  0.86802  0.79914  0.58196  1.0000
  S   S752      1.0  0.88050  0.79550  0.60903  1.0000
  S   S753      1.0  0.84874  0.82706  0.57181  1.0000
  Fe  Fe379     1.0  0.90894  0.78516  0.59118  1.0000
  S   S754      1.0  0.93847  0.79200  0.59011  1.0000
  Fe  Fe380     1.0  0.87601  0.76478  0.61331  1.0000
  S   S755      1.0  0.89699  0.79142  0.56373  1.0000
  S   S756      1.0  0.86136  0.76901  0.58756  1.0000
  S   S757      1.0  0.86425  0.75040  0.64300  1.0000
  H   H3359     1.0  0.68494  0.94693  0.64822  1.0000
  C   C2798     1.0  0.81441  0.83556  0.62508  1.0000
  H   H3360     1.0  0.98827  0.81755  0.52765  1.0000
  C   C2799     1.0  0.97073  0.78047  0.50189  1.0000
  C   C2800     1.0  0.93875  0.79832  0.52531  1.0000
  H   H3361     1.0  0.66395  0.92576  0.63532  1.0000
  C   C2801     1.0  0.96030  0.84013  0.51027  1.0000
  H   H3362     1.0  0.84439  0.82311  0.62510  1.0000
  H   H3363     1.0  0.83044  0.88743  0.55646  1.0000
  H   H3364     1.0  0.88462  0.91155  0.52637  1.0000
  H   H3365     1.0  0.81318  0.75003  0.62980  1.0000
  Fe  Fe381     1.0  0.70962  0.88903  0.58844  1.0000
  S   S758      1.0  0.70766  0.85819  0.60100  1.0000
  S   S759      1.0  0.69507  0.91214  0.60638  1.0000
  Fe  Fe382     1.0  0.72586  0.87979  0.54813  1.0000
  S   S760      1.0  0.72439  0.84829  0.55766  1.0000
  S   S761      1.0  0.73591  0.88794  0.51612  1.0000
  Fe  Fe383     1.0  0.69542  0.85822  0.57477  1.0000
  C   C2802     1.0  0.66514  0.97434  0.65190  1.0000
  Fe  Fe384     1.0  0.73687  0.85122  0.58285  1.0000
  S   S762      1.0  0.75867  0.82595  0.59367  1.0000
  S   S763      1.0  0.69559  0.88949  0.56306  1.0000
  S   S764      1.0  0.74029  0.88228  0.57238  1.0000
  C   C2803     1.0  0.79054  0.91536  0.49741  1.0000
  C   C2804     1.0  0.77962  0.91619  0.51593  1.0000
  C   C2805     1.0  0.76273  0.90790  0.52181  1.0000
  C   C2806     1.0  0.75650  0.89917  0.50900  1.0000
  C   C2807     1.0  0.76719  0.89873  0.49034  1.0000
  C   C2808     1.0  0.82837  0.83266  0.52142  1.0000
  H   H3366     1.0  0.78427  0.92318  0.52576  1.0000
  H   H3367     1.0  0.75440  0.90854  0.53612  1.0000
  C   C2809     1.0  0.85406  0.82724  0.49432  1.0000
  N   N186      1.0  0.98736  0.75652  0.56330  1.0000
  N   N187      1.0  0.79336  0.84331  0.51759  1.0000
  C   C2810     1.0  0.95909  0.79778  0.63327  1.0000
  C   C2811     1.0  0.67748  0.88861  0.67057  1.0000
  H   H3368     1.0  0.86853  0.86494  0.52091  1.0000
  C   C2812     1.0  0.67247  0.91287  0.64213  1.0000
  C   C2813     1.0  0.68875  0.90324  0.63115  1.0000
  C   C2814     1.0  0.69939  0.88632  0.63991  1.0000
  C   C2815     1.0  0.69379  0.87908  0.65956  1.0000
  H   H3369     1.0  0.83852  0.78992  0.63477  1.0000
  H   H3370     1.0  0.80199  0.77667  0.67145  1.0000
  H   H3371     1.0  0.71208  0.87890  0.63161  1.0000
  H   H3372     1.0  0.70212  0.86597  0.66624  1.0000
  H   H3373     1.0  0.66671  0.94020  0.67832  1.0000
  H   H3374     1.0  0.96232  0.77645  0.55523  1.0000
  H   H3375     1.0  0.67232  0.86623  0.62945  1.0000
  H   H3376     1.0  0.70336  0.84621  0.50818  1.0000
  C   C2816     1.0  0.78019  0.84756  0.50314  1.0000
  C   C2817     1.0  0.78672  0.82770  0.53302  1.0000
  C   C2818     1.0  0.82366  0.82677  0.57719  1.0000
  C   C2819     1.0  0.81668  0.80935  0.58319  1.0000
  C   C2820     1.0  0.79666  0.80933  0.58764  1.0000
  C   C2821     1.0  0.78349  0.82672  0.58618  1.0000
  C   C2822     1.0  0.79039  0.84419  0.57961  1.0000
  C   C2823     1.0  0.81049  0.84419  0.57514  1.0000
  H   H3377     1.0  0.82669  0.79589  0.58445  1.0000
  H   H3378     1.0  0.79129  0.79582  0.59241  1.0000
  H   H3379     1.0  0.78028  0.85767  0.57855  1.0000
  H   H3380     1.0  0.81582  0.85772  0.57049  1.0000
  H   H3381     1.0  0.84387  0.87236  0.51708  1.0000
  H   H3382     1.0  0.90824  0.88349  0.57668  1.0000
  C   C2824     1.0  0.67197  0.98065  0.61086  1.0000
  H   H3383     1.0  0.72249  0.86823  0.49266  1.0000
  N   N188      1.0  0.95735  0.82448  0.52706  1.0000
  H   H3384     1.0  0.83127  0.76475  0.62511  1.0000
  H   H3385     1.0  0.98600  0.83663  0.64593  1.0000
  C   C2825     1.0  0.93702  0.90064  0.50078  1.0000
  H   H3386     1.0  0.69005  0.95266  0.61334  1.0000
  C   C2826     1.0  0.90955  0.88258  0.49098  1.0000
  C   C2827     1.0  0.91629  0.87617  0.50861  1.0000
  C   C2828     1.0  0.92992  0.88516  0.51352  1.0000
  H   H3387     1.0  0.91067  0.86440  0.51862  1.0000
  H   H3388     1.0  0.93479  0.88021  0.52724  1.0000
  C   C2829     1.0  0.93875  0.85328  0.59834  1.0000
  C   C2830     1.0  0.92145  0.84580  0.60365  1.0000
  C   C2831     1.0  0.92116  0.82702  0.60099  1.0000
  C   C2832     1.0  0.93828  0.81553  0.59357  1.0000
  C   C2833     1.0  0.95567  0.82282  0.58881  1.0000
  C   C2834     1.0  0.95586  0.84169  0.59103  1.0000
  H   H3389     1.0  0.90822  0.85469  0.60941  1.0000
  H   H3390     1.0  0.90771  0.82145  0.60482  1.0000
  H   H3391     1.0  0.96903  0.81396  0.58334  1.0000
  H   H3392     1.0  0.96930  0.84728  0.58708  1.0000
  H   H3393     1.0  0.79619  0.87301  0.51499  1.0000
  H   H3394     1.0  0.81167  0.77156  0.61181  1.0000
  H   H3395     1.0  0.67972  0.77412  0.84164  1.0000
  S   S765      1.0  0.89895  0.74325  0.54781  1.0000
  C   C2835     1.0  0.97414  0.82059  0.53732  1.0000
  C   C2836     1.0  0.98546  0.77077  0.63373  1.0000
  H   H3396     1.0  0.80747  0.75300  0.66475  1.0000
  C   C2837     1.0  0.93799  0.78122  0.51922  1.0000
  C   C2838     1.0  0.80998  0.76819  0.66001  1.0000
  H   H3397     1.0  0.97532  0.75527  0.59368  1.0000
  C   C2839     1.0  0.80712  0.79705  0.63577  1.0000
  C   C2840     1.0  0.67996  0.76802  0.82855  1.0000
  C   C2841     1.0  0.79182  0.81305  0.63329  1.0000
  C   C2842     1.0  0.69381  0.73825  0.86110  1.0000
  N   N189      1.0  0.80384  0.77677  0.64113  1.0000
  H   H3398     1.0  0.88302  0.86269  0.58616  1.0000
  C   C2843     1.0  0.68847  0.85252  0.50711  1.0000
  H   H3399     1.0  0.94798  0.84351  0.50211  1.0000
  S   S766      1.0  0.66938  0.84366  0.58036  1.0000
  H   H3400     1.0  0.95700  0.75415  0.56960  1.0000
  C   C2844     1.0  0.67107  0.95254  0.68256  1.0000
  H   H3401     1.0  0.99172  0.97550  0.56399  1.0000
  C   C2845     1.0  0.67756  0.96045  0.64131  1.0000
  H   H3402     1.0  0.76478  0.85209  0.50977  1.0000
  H   H3403     1.0  0.90860  0.90774  0.54685  1.0000
  H   H3404     1.0  0.78368  0.84387  0.62566  1.0000
  H   H3405     1.0  0.77687  0.81142  0.63473  1.0000
  H   H3406     1.0  0.81725  0.85020  0.62054  1.0000
  H   H3407     1.0  0.78865  0.81398  0.52736  1.0000
  H   H3408     1.0  0.82574  0.76768  0.65947  1.0000
  H   H3409     1.0  0.98970  0.84151  0.61123  1.0000
  C   C2846     1.0  0.68332  0.86868  0.49283  1.0000
  H   H3410     1.0  0.92678  0.83588  0.53363  1.0000
  C   C2847     1.0  0.92988  0.90737  0.48332  1.0000
  C   C2848     1.0  0.78439  0.90648  0.48467  1.0000
  H   H3411     1.0  0.97298  0.80822  0.54940  1.0000
  H   H3412     1.0  0.95322  0.75909  0.50280  1.0000
  H   H3413     1.0  0.97951  0.77853  0.58142  1.0000
  C   C2849     1.0  0.96576  0.77803  0.63421  1.0000
  C   C2850     1.0  0.81545  0.76533  0.62633  1.0000
  H   H3414     1.0  0.96151  0.85372  0.51482  1.0000
  H   H3415     1.0  0.69458  0.76827  0.81947  1.0000
  C   C2851     1.0  0.79552  0.83197  0.62803  1.0000
  H   H3416     1.0  0.77109  0.83153  0.53935  1.0000
  H   H3417     1.0  0.98302  0.77364  0.49255  1.0000
  H   H3418     1.0  0.66190  0.87961  0.55320  1.0000
  H   H3419     1.0  0.86937  0.82369  0.48851  1.0000
  H   H3420     1.0  0.78390  0.85969  0.49143  1.0000
  C   C2852     1.0  0.96781  0.76067  0.55790  1.0000
  H   H3421     1.0  0.78128  0.75940  0.64662  1.0000
  C   C2853     1.0  0.82616  0.80129  0.63297  1.0000
  C   C2854     1.0  0.98549  0.76287  0.58215  1.0000
  H   H3422     1.0  0.84885  0.86097  0.54038  1.0000
  H   H3423     1.0  0.82281  0.89950  0.53410  1.0000
  H   H3424     1.0  0.68714  0.95122  0.67879  1.0000
  H   H3425     1.0  0.92484  0.77490  0.52347  1.0000
  C   C2855     1.0  0.82969  0.82026  0.62760  1.0000
  H   H3426     1.0  0.77565  0.86601  0.53223  1.0000
  C   C2856     1.0  0.78324  0.77479  0.64284  1.0000
  H   H3427     1.0  0.96766  0.75489  0.54470  1.0000
  H   H3428     1.0  0.79939  0.85871  0.53805  1.0000
  H   H3429     1.0  0.66737  0.95058  0.69865  1.0000
  S   S767      1.0  0.81199  0.92517  0.49052  1.0000
  N   N190      1.0  0.67535  0.74818  0.83332  1.0000
  H   H3430     1.0  0.93691  0.82060  0.55368  1.0000
  H   H3431     1.0  0.84586  0.90448  0.50454  1.0000
  H   H3432     1.0  0.66207  0.75290  0.80787  1.0000
  C   C2857     1.0  0.82066  0.83674  0.48934  1.0000
  H   H3433     1.0  0.79474  0.82467  0.54531  1.0000
  H   H3434     1.0  0.85532  0.91937  0.51594  1.0000
  H   H3435     1.0  0.97509  0.83318  0.54369  1.0000
  C   C2858     1.0  0.81404  0.83748  0.50934  1.0000
  C   C2859     1.0  0.66321  0.87610  0.49354  1.0000
  C   C2860     1.0  0.93987  0.83166  0.54061  1.0000
  H   H3436     1.0  0.82449  0.83284  0.53674  1.0000
  H   H3437     1.0  0.95560  0.76838  0.63532  1.0000
  H   H3438     1.0  0.94155  0.84470  0.54585  1.0000
  C   C2861     1.0  0.95395  0.77229  0.50756  1.0000
  H   H3439     1.0  0.85810  0.86614  0.56648  1.0000
  H   H3440     1.0  0.69879  0.89873  0.49533  1.0000
  H   H3441     1.0  0.98506  0.80322  0.50340  1.0000
  C   C2862     1.0  0.97210  0.81042  0.63143  1.0000
  C   C2863     1.0  0.79110  0.86099  0.52608  1.0000
  H   H3442     1.0  0.83398  0.91183  0.54709  1.0000
  H   H3443     1.0  0.97381  0.83640  0.49995  1.0000
  H   H3444     1.0  0.94373  0.80339  0.63360  1.0000
  H   H3445     1.0  0.66529  0.98459  0.69622  1.0000
  C   C2864     1.0  0.95582  0.80677  0.52027  1.0000
  C   C2865     1.0  0.97174  0.79741  0.50817  1.0000
  C   C2866     1.0  0.84804  0.82764  0.51399  1.0000
  N   N191      1.0  0.85379  0.89064  0.53218  1.0000
  C   C2867     1.0  0.85678  0.90423  0.51364  1.0000
  C   C2868     1.0  0.85374  0.87143  0.52749  1.0000
  C   C2869     1.0  0.83441  0.89759  0.54297  1.0000
  C   C2870     1.0  0.86877  0.88903  0.54422  1.0000
  C   C2871     1.0  0.88340  0.90083  0.53932  1.0000
  C   C2872     1.0  0.86891  0.87541  0.56162  1.0000
  C   C2873     1.0  0.89739  0.89878  0.55099  1.0000
  C   C2874     1.0  0.88307  0.87338  0.57308  1.0000
  C   C2875     1.0  0.89728  0.88504  0.56777  1.0000
  H   H3446     1.0  0.87121  0.90004  0.50486  1.0000
  C   C2876     1.0  0.68074  0.96360  0.62111  1.0000
  H   H3447     1.0  0.77779  0.78077  0.62896  1.0000
  S   S768      1.0  0.89337  0.87000  0.48495  1.0000
  C   C2877     1.0  0.67426  0.84410  0.52078  1.0000
  H   H3448     1.0  0.78069  0.83470  0.49651  1.0000
  H   H3449     1.0  0.68723  0.74270  0.80435  1.0000
  H   H3450     1.0  0.67444  0.98299  0.59520  1.0000
  C   C2878     1.0  0.67351  0.74262  0.81501  1.0000
  H   H3451     1.0  0.77370  0.78229  0.65439  1.0000
  H   H3452     1.0  0.68546  0.75032  0.86768  1.0000
  C   C2879     1.0  0.66678  0.90552  0.66175  1.0000
  H   H3453     1.0  0.98729  0.97769  0.59858  1.0000
  H   H3454     1.0  0.66922  0.77823  0.82040  1.0000
  H   H3455     1.0  0.99056  0.75531  0.63476  1.0000
  C   C2880     1.0  0.99231  0.80359  0.63059  1.0000
  N   N192      1.0  0.66110  0.97138  0.67329  1.0000
  H   H3456     1.0  0.66010  0.91889  0.58454  1.0000
