data_image0
_chemical_formula_structural       C3HCH4C2HCHCH2CHC3H5CHCHC5HC2H2CH3CHCHFeS2FeS2FeSFeS3FeS2FeS2FeSFeS3FeS2FeS2FeSFeS3FeS2FeS2FeSFeS3HC3H2C7H4C2H3C6H5C4HC6H4C7H5CH3C2H2C5H3CH2CH2CH2CH2NCH3CH2CHCH2CNHC3H8NH2CHCHNHCH3C2NHCNHCH2CH6CH2NH5CHC2NC4H2C2H2C2H6CHCH5NHC4HCHC2HCH6C3H2CH3C3HCHCH2CH2CHCHC2FeS2FeS2FeSFeS3FeS2FeS2FeSFeS3FeS2FeS2FeSFeS3FeS2FeS2FeSFeS3C6H4CH3C3H3C6H4CH2C8H4C6H4C3H3NHCNC9H14CH3CHCNH5CHC2H8C2NC2NH3C2H2CH2CH7CHC3H3C2HC2H3CHCH2N2CH4CH2C2H2C2HCHCHC3HCH2C2H2C2HC2H2C2H2CH5CH2CHC3HCNH2C2H3CH2CH5CH3C2HC2HCHC3HCH7C3HC2HCH2CH2CH5C4H3C4HCH4CH3CH3CHC2H4CHCFeS2FeS2FeSFeS3FeS2FeS2FeSFeS3FeS2FeS2FeSFeS3FeS2FeS2FeSFeS3CHCH2C4H3C6H4C6H4CHC6H2C6H4C3H2CHCH2C6H4CH2CHC2H9NH2CHC2H2C2HCHNCNC9H14NC9HCH13CH3CH4CHCH3C2HCHC3HCHCNH2CHCH2C2H2C5H4C2NCHCH3CHC2H2CHC2HCH2CHCHC4H2FeS2FeS2FeSFeS3FeS2FeS2FeSFeS3FeS2FeS2FeSFeS3FeS2FeS2FeSFeS3C2H3CHC2HC6H4C6H4C6H4C3H2C6H4C2H2CHC3HC3HNH3C2H3CHNC9H17NC7H13CH2NHC3H3C2H4CHC2H6C2H2CH2C2NHCH3CHCH5C2NHCH3CH3CH2C3HNHNHCNCHC3H2C2HCHC3HC3H3C2H4C2H2CHCH3CH2C2H2C3HCH4CHCH
_chemical_formula_sum              "C480 H576 Fe64 S128 N32"
_cell_length_a       45.6788
_cell_length_b       45.5494
_cell_length_c       37.8451
_cell_angle_alpha    89.9004
_cell_angle_beta     90.1283
_cell_angle_gamma    90.6415

_space_group_name_H-M_alt    "P 1"
_space_group_IT_number       1

loop_
  _space_group_symop_operation_xyz
  'x, y, z'

loop_
  _atom_site_type_symbol
  _atom_site_label
  _atom_site_symmetry_multiplicity
  _atom_site_fract_x
  _atom_site_fract_y
  _atom_site_fract_z
  _atom_site_occupancy
  C   C1        1.0  0.23363  0.45198  0.01297  1.0000
  C   C2        1.0  0.31721  0.13444  0.45852  1.0000
  C   C3        1.0  0.06612  0.47239  0.99282  1.0000
  H   H1        1.0  0.28419  0.50285  0.11228  1.0000
  C   C4        1.0  0.15872  0.02945  0.00258  1.0000
  H   H2        1.0  0.25335  0.48908  0.13702  1.0000
  H   H3        1.0  0.31761  0.45931  0.44555  1.0000
  H   H4        1.0  0.16127  0.04751  0.02090  1.0000
  H   H5        1.0  0.29738  0.13105  0.44177  1.0000
  C   C5        1.0  0.16364  0.47475  0.00142  1.0000
  C   C6        1.0  0.07025  0.49763  0.01338  1.0000
  H   H6        1.0  0.41857  0.49350  0.39829  1.0000
  C   C7        1.0  0.38905  0.01295  0.47121  1.0000
  H   H7        1.0  0.22671  0.46034  0.10125  1.0000
  C   C8        1.0  0.32736  0.08228  0.45571  1.0000
  H   H8        1.0  0.30121  0.01272  0.43806  1.0000
  H   H9        1.0  0.05942  0.49961  0.03871  1.0000
  C   C9        1.0  0.30989  0.05628  0.45812  1.0000
  H   H10       1.0  0.15544  0.45651  0.01697  1.0000
  C   C10       1.0  0.32682  0.47671  0.46168  1.0000
  C   C11       1.0  0.34936  0.08288  0.42922  1.0000
  C   C12       1.0  0.42642  0.49232  0.47094  1.0000
  H   H11       1.0  0.46958  0.49505  0.42379  1.0000
  H   H12       1.0  0.34002  0.01508  0.39292  1.0000
  H   H13       1.0  0.36376  0.10167  0.42606  1.0000
  H   H14       1.0  0.39215  0.46869  0.44105  1.0000
  H   H15       1.0  0.37103  0.05955  0.38725  1.0000
  C   C13       1.0  0.24035  0.49582  0.06581  1.0000
  H   H16       1.0  0.22131  0.42306  0.05527  1.0000
  C   C14       1.0  0.23171  0.46660  0.07438  1.0000
  H   H17       1.0  0.33558  0.14078  0.44077  1.0000
  C   C15       1.0  0.31420  0.03266  0.43521  1.0000
  C   C16       1.0  0.16669  0.50267  0.01721  1.0000
  C   C17       1.0  0.22847  0.44508  0.04828  1.0000
  C   C18       1.0  0.02782  0.04338  0.99234  1.0000
  C   C19       1.0  0.35365  0.05899  0.40672  1.0000
  H   H18       1.0  0.23020  0.43552  0.99262  1.0000
  C   C20       1.0  0.33608  0.03395  0.40969  1.0000
  C   C21       1.0  0.40597  0.46920  0.46423  1.0000
  H   H19       1.0  0.40821  0.02058  0.45700  1.0000
  H   H20       1.0  0.04103  0.03093  0.01057  1.0000
  C   C22       1.0  0.24202  0.48042  0.00361  1.0000
  H   H21       1.0  0.05183  0.45538  0.00310  1.0000
  H   H22       1.0  0.07413  0.41253  0.98537  1.0000
  H   H23       1.0  0.08660  0.02405  0.98620  1.0000
  C   C23       1.0  0.24517  0.50217  0.02943  1.0000
  H   H24       1.0  0.20348  0.50343  0.12094  1.0000
  C   C24       1.0  0.33045  0.50510  0.44709  1.0000
  H   H25       1.0  0.31334  0.15383  0.47579  1.0000
  Fe  Fe1       1.0  0.34701  0.41031  0.64488  1.0000
  S   S1        1.0  0.31565  0.39141  0.60537  1.0000
  S   S2        1.0  0.33035  0.42934  0.69667  1.0000
  Fe  Fe2       1.0  0.40073  0.39287  0.60106  1.0000
  S   S3        1.0  0.37198  0.37223  0.55925  1.0000
  S   S4        1.0  0.44822  0.38699  0.58481  1.0000
  Fe  Fe3       1.0  0.34484  0.41297  0.56449  1.0000
  S   S5        1.0  0.32673  0.43523  0.51486  1.0000
  Fe  Fe4       1.0  0.34619  0.35293  0.60419  1.0000
  S   S6        1.0  0.32778  0.30737  0.61644  1.0000
  S   S7        1.0  0.37465  0.43454  0.60418  1.0000
  S   S8        1.0  0.37644  0.37095  0.64573  1.0000
  Fe  Fe5       1.0  0.40613  0.10165  0.63380  1.0000
  S   S9        1.0  0.39747  0.10521  0.57567  1.0000
  S   S10       1.0  0.45087  0.09504  0.65857  1.0000
  Fe  Fe6       1.0  0.34165  0.11368  0.65395  1.0000
  S   S11       1.0  0.32854  0.11825  0.59672  1.0000
  S   S12       1.0  0.31322  0.12751  0.70078  1.0000
  Fe  Fe7       1.0  0.35684  0.07856  0.58708  1.0000
  S   S13       1.0  0.33943  0.03946  0.55515  1.0000
  Fe  Fe8       1.0  0.37026  0.14436  0.59034  1.0000
  S   S14       1.0  0.37733  0.18630  0.55910  1.0000
  S   S15       1.0  0.36721  0.07227  0.64503  1.0000
  S   S16       1.0  0.38181  0.14252  0.64759  1.0000
  Fe  Fe9       1.0  0.12446  0.38148  0.84788  1.0000
  S   S17       1.0  0.14615  0.36964  0.89887  1.0000
  S   S18       1.0  0.07650  0.36723  0.84739  1.0000
  Fe  Fe10      1.0  0.18362  0.40036  0.81520  1.0000
  S   S19       1.0  0.20869  0.39024  0.86518  1.0000
  S   S20       1.0  0.20171  0.40977  0.75974  1.0000
  Fe  Fe11      1.0  0.18106  0.34897  0.86645  1.0000
  S   S21       1.0  0.20011  0.30439  0.87946  1.0000
  Fe  Fe12      1.0  0.17122  0.41225  0.89382  1.0000
  S   S22       1.0  0.16980  0.43378  0.94872  1.0000
  S   S23       1.0  0.15796  0.35778  0.81559  1.0000
  S   S24       1.0  0.14758  0.42526  0.84358  1.0000
  Fe  Fe13      1.0  0.17034  0.08741  0.81706  1.0000
  S   S25       1.0  0.18161  0.11791  0.86188  1.0000
  S   S26       1.0  0.20269  0.06813  0.77760  1.0000
  Fe  Fe14      1.0  0.10467  0.08454  0.83827  1.0000
  S   S27       1.0  0.11176  0.11506  0.88383  1.0000
  S   S28       1.0  0.06083  0.06227  0.82756  1.0000
  Fe  Fe15      1.0  0.14013  0.14130  0.84659  1.0000
  S   S29       1.0  0.13094  0.18891  0.83289  1.0000
  Fe  Fe16      1.0  0.15193  0.08823  0.89463  1.0000
  S   S30       1.0  0.16069  0.07210  0.95076  1.0000
  S   S31       1.0  0.13044  0.11205  0.79996  1.0000
  S   S32       1.0  0.14341  0.05640  0.85083  1.0000
  H   H26       1.0  0.18889  0.49061  0.91907  1.0000
  C   C25       1.0  0.02801  0.08109  0.83662  1.0000
  C   C26       1.0  0.02238  0.43739  0.83593  1.0000
  C   C27       1.0  0.02850  0.10807  0.85415  1.0000
  H   H27       1.0  0.42387  0.21183  0.61595  1.0000
  H   H28       1.0  0.04915  0.11827  0.86119  1.0000
  C   C28       1.0  0.03454  0.04550  0.95571  1.0000
  C   C29       1.0  0.18056  0.27232  0.86708  1.0000
  C   C30       1.0  0.18928  0.24488  0.88023  1.0000
  C   C31       1.0  0.17417  0.21898  0.87044  1.0000
  C   C32       1.0  0.15055  0.22043  0.84696  1.0000
  C   C33       1.0  0.14240  0.24775  0.83315  1.0000
  C   C34       1.0  0.15708  0.27362  0.84341  1.0000
  H   H29       1.0  0.20750  0.24372  0.89849  1.0000
  H   H30       1.0  0.18071  0.19801  0.88119  1.0000
  H   H31       1.0  0.12468  0.24887  0.81428  1.0000
  H   H32       1.0  0.15038  0.29454  0.83282  1.0000
  C   C35       1.0  0.04772  0.42001  0.83664  1.0000
  C   C36       1.0  0.04559  0.39025  0.84564  1.0000
  H   H33       1.0  0.46357  0.14686  0.58714  1.0000
  H   H34       1.0  0.06875  0.42951  0.82971  1.0000
  H   H35       1.0  0.44600  0.22611  0.58128  1.0000
  C   C37       1.0  0.28271  0.11028  0.72185  1.0000
  C   C38       1.0  0.27037  0.12377  0.75171  1.0000
  C   C39       1.0  0.24580  0.11134  0.76893  1.0000
  C   C40       1.0  0.23325  0.08517  0.75648  1.0000
  C   C41       1.0  0.24573  0.07154  0.72684  1.0000
  C   C42       1.0  0.27023  0.08405  0.70951  1.0000
  H   H36       1.0  0.27995  0.14399  0.76156  1.0000
  H   H37       1.0  0.23686  0.12171  0.79213  1.0000
  H   H38       1.0  0.23632  0.05120  0.71708  1.0000
  H   H39       1.0  0.27943  0.07338  0.68663  1.0000
  H   H40       1.0  0.49385  0.24310  0.58882  1.0000
  C   C43       1.0  0.48438  0.09439  0.63525  1.0000
  C   C44       1.0  0.23243  0.22427  0.72274  1.0000
  C   C45       1.0  0.48523  0.09133  0.59853  1.0000
  C   C46       1.0  0.15720  0.03528  0.96608  1.0000
  H   H41       1.0  0.46509  0.08938  0.58365  1.0000
  C   C47       1.0  0.29454  0.42361  0.71396  1.0000
  C   C48       1.0  0.28921  0.42908  0.74996  1.0000
  C   C49       1.0  0.26123  0.42403  0.76480  1.0000
  C   C50       1.0  0.23799  0.41440  0.74346  1.0000
  C   C51       1.0  0.24328  0.40935  0.70735  1.0000
  C   C52       1.0  0.27143  0.41347  0.69278  1.0000
  H   H42       1.0  0.30688  0.43703  0.76661  1.0000
  H   H43       1.0  0.25746  0.42835  0.79252  1.0000
  H   H44       1.0  0.22541  0.40209  0.69057  1.0000
  H   H45       1.0  0.27510  0.40910  0.66513  1.0000
  C   C53       1.0  0.33436  0.47081  0.49707  1.0000
  C   C54       1.0  0.34349  0.27423  0.60152  1.0000
  C   C55       1.0  0.36383  0.27366  0.57394  1.0000
  C   C56       1.0  0.37425  0.24659  0.56136  1.0000
  C   C57       1.0  0.36483  0.21996  0.57662  1.0000
  C   C58       1.0  0.34526  0.22060  0.60498  1.0000
  C   C59       1.0  0.33445  0.24761  0.61711  1.0000
  H   H46       1.0  0.37083  0.29400  0.56161  1.0000
  H   H47       1.0  0.38932  0.24631  0.53936  1.0000
  H   H48       1.0  0.33787  0.20026  0.61700  1.0000
  H   H49       1.0  0.31877  0.24788  0.63844  1.0000
  H   H50       1.0  0.00450  0.30715  0.82353  1.0000
  C   C60       1.0  0.48130  0.39778  0.60561  1.0000
  H   H51       1.0  0.24024  0.45201  0.57290  1.0000
  H   H52       1.0  0.46186  0.42259  0.64764  1.0000
  H   H53       1.0  0.23428  0.27383  0.82337  1.0000
  C   C61       1.0  0.22635  0.01181  0.93882  1.0000
  C   C62       1.0  0.26984  0.49550  0.53360  1.0000
  H   H54       1.0  0.02406  0.46034  0.82870  1.0000
  H   H55       1.0  0.30358  0.08480  0.52344  1.0000
  C   C63       1.0  0.17960  0.16309  0.74887  1.0000
  C   C64       1.0  0.48209  0.41525  0.63595  1.0000
  C   C65       1.0  0.26595  0.20551  0.67897  1.0000
  C   C66       1.0  0.44703  0.21692  0.60856  1.0000
  C   C67       1.0  0.40237  0.44589  0.48799  1.0000
  H   H56       1.0  0.29327  0.05321  0.47806  1.0000
  H   H57       1.0  0.11232  0.49135  0.92507  1.0000
  H   H58       1.0  0.06161  0.22412  0.83323  1.0000
  C   C68       1.0  0.29949  0.10376  0.50549  1.0000
  H   H59       1.0  0.35224  0.48954  0.54472  1.0000
  H   H60       1.0  0.02005  0.06649  0.90698  1.0000
  C   C69       1.0  0.42176  0.03330  0.58642  1.0000
  H   H61       1.0  0.45209  0.32318  0.61090  1.0000
  H   H62       1.0  0.48267  0.32362  0.66316  1.0000
  C   C70       1.0  0.05041  0.01267  0.90903  1.0000
  H   H63       1.0  0.25368  0.46912  0.64743  1.0000
  H   H64       1.0  0.46850  0.02928  0.63971  1.0000
  C   C71       1.0  0.25739  0.32557  0.76453  1.0000
  H   H65       1.0  0.17091  0.16056  0.72153  1.0000
  H   H66       1.0  0.32660  0.34820  0.76290  1.0000
  N   N1        1.0  0.46559  0.19033  0.61013  1.0000
  C   C72       1.0  0.45241  0.16833  0.58584  1.0000
  H   H67       1.0  0.47486  0.15693  0.64939  1.0000
  H   H68       1.0  0.26415  0.47396  0.52367  1.0000
  H   H69       1.0  0.03364  0.17874  0.82924  1.0000
  C   C73       1.0  0.41856  0.44503  0.51915  1.0000
  H   H70       1.0  0.11064  0.41960  0.96983  1.0000
  H   H71       1.0  0.08675  0.39511  0.94606  1.0000
  C   C74       1.0  0.25626  0.48690  0.62732  1.0000
  H   H72       1.0  0.41557  0.42690  0.53743  1.0000
  C   C75       1.0  0.08086  0.46876  0.96011  1.0000
  H   H73       1.0  0.42907  0.16382  0.59241  1.0000
  H   H74       1.0  0.03169  0.43420  0.95433  1.0000
  C   C76       1.0  0.23064  0.17283  0.70663  1.0000
  N   N2        1.0  0.06005  0.03089  0.93953  1.0000
  H   H75       1.0  0.44114  0.17507  0.65558  1.0000
  C   C77       1.0  0.25372  0.17760  0.68304  1.0000
  C   C78       1.0  0.48030  0.01863  0.61862  1.0000
  C   C79       1.0  0.02389  0.25254  0.84398  1.0000
  H   H76       1.0  0.25407  0.02743  0.82741  1.0000
  H   H77       1.0  0.04110  0.02600  0.88715  1.0000
  H   H78       1.0  0.45319  0.17607  0.55792  1.0000
  H   H79       1.0  0.28398  0.20887  0.66076  1.0000
  H   H80       1.0  0.11780  0.44350  0.91096  1.0000
  H   H81       1.0  0.21808  0.21384  0.79591  1.0000
  H   H82       1.0  0.29603  0.36904  0.74817  1.0000
  H   H83       1.0  0.32727  0.36613  0.72045  1.0000
  N   N3        1.0  0.27481  0.47759  0.59724  1.0000
  H   H84       1.0  0.30550  0.26951  0.75102  1.0000
  H   H85       1.0  0.07120  0.06766  0.90584  1.0000
  C   C80       1.0  0.18241  0.49384  0.94625  1.0000
  H   H86       1.0  0.27295  0.02243  0.86882  1.0000
  C   C81       1.0  0.31312  0.35362  0.73930  1.0000
  H   H87       1.0  0.08279  0.30086  0.84088  1.0000
  N   N4        1.0  0.22627  0.01640  0.87158  1.0000
  H   H88       1.0  0.21875  0.06044  0.85239  1.0000
  C   C82       1.0  0.25528  0.22885  0.69871  1.0000
  H   H89       1.0  0.39741  0.03353  0.58500  1.0000
  H   H90       1.0  0.33871  0.32164  0.69027  1.0000
  H   H91       1.0  0.34023  0.30254  0.73136  1.0000
  C   C83       1.0  0.49655  0.19581  0.60018  1.0000
  C   C84       1.0  0.32516  0.30904  0.70967  1.0000
  N   N5        1.0  0.07717  0.44120  0.93973  1.0000
  H   H92       1.0  0.02848  0.29098  0.79161  1.0000
  C   C85       1.0  0.09388  0.44104  0.90613  1.0000
  N   N6        1.0  0.30040  0.32678  0.72296  1.0000
  H   H93       1.0  0.29595  0.34710  0.67165  1.0000
  C   C86       1.0  0.28250  0.33540  0.69194  1.0000
  H   H94       1.0  0.22557  0.24287  0.73820  1.0000
  H   H95       1.0  0.27564  0.24705  0.79678  1.0000
  C   C87       1.0  0.26262  0.44926  0.58400  1.0000
  H   H96       1.0  0.26450  0.35043  0.69909  1.0000
  H   H97       1.0  0.31729  0.28909  0.69539  1.0000
  H   H98       1.0  0.08857  0.06819  0.94849  1.0000
  H   H99       1.0  0.45059  0.46680  0.55148  1.0000
  H   H100      1.0  0.23400  0.49307  0.61808  1.0000
  H   H101      1.0  0.19358  0.14393  0.75524  1.0000
  C   C88       1.0  0.28178  0.31125  0.74920  1.0000
  H   H102      1.0  0.35682  0.09290  0.51524  1.0000
  H   H103      1.0  0.01604  0.35529  0.86110  1.0000
  N   N7        1.0  0.03961  0.28115  0.84560  1.0000
  H   H104      1.0  0.38643  0.42861  0.48254  1.0000
  H   H105      1.0  0.27256  0.31582  0.67882  1.0000
  H   H106      1.0  0.16564  0.21807  0.72318  1.0000
  H   H107      1.0  0.31930  0.46510  0.58851  1.0000
  H   H108      1.0  0.15370  0.21030  0.76734  1.0000
  C   C89       1.0  0.01801  0.37811  0.85377  1.0000
  H   H109      1.0  0.25150  0.34769  0.75695  1.0000
  C   C90       1.0  0.28760  0.28224  0.76116  1.0000
  C   C91       1.0  0.04585  0.43637  0.93067  1.0000
  N   N8        1.0  0.19548  0.19154  0.75333  1.0000
  C   C92       1.0  0.27047  0.26892  0.78744  1.0000
  C   C93       1.0  0.34619  0.49361  0.51756  1.0000
  C   C94       1.0  0.21903  0.19617  0.72700  1.0000
  C   C95       1.0  0.24709  0.28385  0.80236  1.0000
  H   H110      1.0  0.19221  0.18637  0.80978  1.0000
  H   H111      1.0  0.22272  0.15047  0.70889  1.0000
  C   C96       1.0  0.24046  0.31203  0.79077  1.0000
  C   C97       1.0  0.22061  0.04805  0.87770  1.0000
  H   H112      1.0  0.34888  0.13145  0.51882  1.0000
  H   H113      1.0  0.03731  0.45470  0.91422  1.0000
  C   C98       1.0  0.35387  0.01969  0.51868  1.0000
  C   C99       1.0  0.17335  0.21519  0.75088  1.0000
  H   H114      1.0  0.22242  0.32370  0.80284  1.0000
  H   H115      1.0  0.22656  0.17561  0.79136  1.0000
  H   H116      1.0  0.04830  0.31546  0.88363  1.0000
  H   H117      1.0  0.39046  0.04871  0.50880  1.0000
  H   H118      1.0  0.16057  0.16123  0.76714  1.0000
  H   H119      1.0  0.09106  0.41989  0.89174  1.0000
  C   C100      1.0  0.01603  0.06337  0.93480  1.0000
  H   H120      1.0  0.18161  0.23667  0.76082  1.0000
  C   C101      1.0  0.30479  0.47207  0.61049  1.0000
  H   H121      1.0  0.15277  0.01578  0.91468  1.0000
  H   H122      1.0  0.07631  0.27009  0.81266  1.0000
  H   H123      1.0  0.43036  0.04407  0.56208  1.0000
  H   H124      1.0  0.26496  0.25052  0.69554  1.0000
  H   H125      1.0  0.22421  0.03516  0.94286  1.0000
  N   N9        1.0  0.32362  0.10774  0.47957  1.0000
  H   H126      1.0  0.23867  0.05881  0.89281  1.0000
  C   C102      1.0  0.02762  0.30117  0.81830  1.0000
  C   C103      1.0  0.08099  0.05355  0.92666  1.0000
  C   C104      1.0  0.35100  0.11286  0.49988  1.0000
  C   C105      1.0  0.08749  0.41607  0.96125  1.0000
  H   H127      1.0  0.04254  0.41579  0.91518  1.0000
  C   C106      1.0  0.20868  0.19193  0.78912  1.0000
  H   H128      1.0  0.26098  0.43250  0.60537  1.0000
  C   C107      1.0  0.46415  0.17864  0.64673  1.0000
  C   C108      1.0  0.37898  0.02900  0.50057  1.0000
  H   H129      1.0  0.04307  0.27942  0.90223  1.0000
  C   C109      1.0  0.02238  0.19912  0.83466  1.0000
  H   H130      1.0  0.42817  0.04736  0.60924  1.0000
  H   H131      1.0  0.01235  0.29995  0.88634  1.0000
  H   H132      1.0  0.30498  0.45458  0.63109  1.0000
  H   H133      1.0  0.26264  0.15931  0.66835  1.0000
  H   H134      1.0  0.19976  0.05123  0.89233  1.0000
  H   H135      1.0  0.47502  0.19385  0.66575  1.0000
  C   C110      1.0  0.47529  0.31859  0.60846  1.0000
  C   C111      1.0  0.49330  0.31899  0.63840  1.0000
  C   C112      1.0  0.17175  0.47007  0.96598  1.0000
  H   H136      1.0  0.08237  0.26490  0.85966  1.0000
  H   H137      1.0  0.45496  0.23423  0.62705  1.0000
  C   C113      1.0  0.03821  0.22555  0.83700  1.0000
  H   H138      1.0  0.29714  0.12331  0.52288  1.0000
  H   H139      1.0  0.36993  0.11843  0.48269  1.0000
  H   H140      1.0  0.27688  0.43953  0.56331  1.0000
  C   C114      1.0  0.43833  0.46759  0.52692  1.0000
  C   C115      1.0  0.07162  0.27895  0.83940  1.0000
  C   C116      1.0  0.07606  0.01141  0.96431  1.0000
  H   H141      1.0  0.19898  0.01899  0.82483  1.0000
  C   C117      1.0  0.09963  0.49218  0.94909  1.0000
  H   H142      1.0  0.04018  0.32225  0.81691  1.0000
  C   C118      1.0  0.44224  0.49097  0.50328  1.0000
  H   H143      1.0  0.27802  0.10030  0.49207  1.0000
  H   H144      1.0  0.31499  0.49185  0.62273  1.0000
  C   C119      1.0  0.03558  0.29452  0.88096  1.0000
  H   H145      1.0  0.24499  0.48590  0.97593  1.0000
  H   H146      1.0  0.10082  0.04359  0.91480  1.0000
  C   C120      1.0  0.25438  0.01424  0.85232  1.0000
  H   H147      1.0  0.47313  0.31493  0.55194  1.0000
  C   C121      1.0  0.48715  0.31406  0.57509  1.0000
  H   H148      1.0  0.08671  0.45874  0.88787  1.0000
  C   C122      1.0  0.27609  0.50090  0.56988  1.0000
  C   C123      1.0  0.15398  0.01171  0.94273  1.0000
  Fe  Fe17      1.0  0.37170  0.92888  0.38917  1.0000
  S   S33       1.0  0.37477  0.93430  0.32995  1.0000
  S   S34       1.0  0.38724  0.96911  0.42119  1.0000
  Fe  Fe18      1.0  0.35653  0.86289  0.38092  1.0000
  S   S35       1.0  0.35804  0.86438  0.32178  1.0000
  S   S36       1.0  0.35131  0.82000  0.41156  1.0000
  Fe  Fe19      1.0  0.39888  0.89175  0.33000  1.0000
  S   S37       1.0  0.43828  0.87989  0.29684  1.0000
  Fe  Fe20      1.0  0.33347  0.90682  0.32643  1.0000
  S   S38       1.0  0.29738  0.92558  0.29065  1.0000
  S   S39       1.0  0.39886  0.88781  0.38889  1.0000
  S   S40       1.0  0.32885  0.90378  0.38595  1.0000
  Fe  Fe21      1.0  0.36198  0.64408  0.35857  1.0000
  S   S41       1.0  0.38533  0.62049  0.31494  1.0000
  S   S42       1.0  0.35844  0.69242  0.34234  1.0000
  Fe  Fe22      1.0  0.35082  0.58475  0.39798  1.0000
  S   S43       1.0  0.37189  0.55857  0.35494  1.0000
  S   S44       1.0  0.34122  0.56535  0.45297  1.0000
  Fe  Fe23      1.0  0.40736  0.59346  0.35669  1.0000
  S   S45       1.0  0.45401  0.58305  0.37435  1.0000
  Fe  Fe24      1.0  0.34740  0.58827  0.31703  1.0000
  S   S46       1.0  0.32803  0.57826  0.26206  1.0000
  S   S47       1.0  0.38655  0.61928  0.40020  1.0000
  S   S48       1.0  0.32364  0.61231  0.36005  1.0000
  Fe  Fe25      1.0  0.15248  0.91399  0.05852  1.0000
  S   S49       1.0  0.15201  0.92694  0.11645  1.0000
  S   S50       1.0  0.15602  0.93951  0.00623  1.0000
  Fe  Fe26      1.0  0.14317  0.84838  0.07541  1.0000
  S   S51       1.0  0.14183  0.85662  0.13338  1.0000
  S   S52       1.0  0.13196  0.80359  0.05262  1.0000
  Fe  Fe27      1.0  0.11365  0.89511  0.12032  1.0000
  S   S53       1.0  0.07309  0.89765  0.15487  1.0000
  Fe  Fe28      1.0  0.18038  0.88705  0.12558  1.0000
  S   S54       1.0  0.21890  0.87618  0.16260  1.0000
  S   S55       1.0  0.11234  0.88490  0.06263  1.0000
  S   S56       1.0  0.18346  0.87622  0.06738  1.0000
  Fe  Fe29      1.0  0.17063  0.58199  0.06903  1.0000
  S   S57       1.0  0.14491  0.56076  0.11311  1.0000
  S   S58       1.0  0.18529  0.56126  0.01701  1.0000
  Fe  Fe30      1.0  0.17340  0.64195  0.10721  1.0000
  S   S59       1.0  0.14824  0.62438  0.15347  1.0000
  S   S60       1.0  0.19077  0.68842  0.11413  1.0000
  Fe  Fe31      1.0  0.17709  0.58485  0.14920  1.0000
  S   S61       1.0  0.19786  0.56560  0.19922  1.0000
  Fe  Fe32      1.0  0.11887  0.60266  0.11331  1.0000
  S   S62       1.0  0.07087  0.61542  0.11011  1.0000
  S   S63       1.0  0.20398  0.60362  0.10510  1.0000
  S   S64       1.0  0.14289  0.62254  0.06705  1.0000
  C   C124      1.0  0.14910  0.77180  0.06908  1.0000
  C   C125      1.0  0.14051  0.74411  0.05610  1.0000
  C   C126      1.0  0.15292  0.71827  0.06977  1.0000
  C   C127      1.0  0.17428  0.72006  0.09625  1.0000
  C   C128      1.0  0.18298  0.74775  0.10902  1.0000
  C   C129      1.0  0.17035  0.77353  0.09565  1.0000
  H   H149      1.0  0.12420  0.74267  0.03539  1.0000
  H   H150      1.0  0.14634  0.69706  0.05947  1.0000
  H   H151      1.0  0.19958  0.74930  0.12938  1.0000
  H   H152      1.0  0.17719  0.79474  0.10576  1.0000
  C   C130      1.0  0.03838  0.90224  0.13454  1.0000
  H   H153      1.0  0.43119  0.84010  0.35422  1.0000
  H   H154      1.0  0.47824  0.52157  0.45757  1.0000
  H   H155      1.0  0.05140  0.70758  0.08201  1.0000
  C   C131      1.0  0.09612  0.75417  0.13387  1.0000
  C   C132      1.0  0.03376  0.57054  0.13412  1.0000
  C   C133      1.0  0.03664  0.59893  0.12024  1.0000
  H   H156      1.0  0.09775  0.66692  0.14796  1.0000
  H   H157      1.0  0.05310  0.55769  0.13919  1.0000
  H   H158      1.0  0.23900  0.69314  0.16483  1.0000
  C   C134      1.0  0.29121  0.57706  0.24592  1.0000
  C   C135      1.0  0.26754  0.56892  0.26736  1.0000
  C   C136      1.0  0.23919  0.56570  0.25267  1.0000
  C   C137      1.0  0.23387  0.57141  0.21663  1.0000
  C   C138      1.0  0.25735  0.58061  0.19546  1.0000
  C   C139      1.0  0.28585  0.58299  0.20993  1.0000
  H   H159      1.0  0.27123  0.56400  0.29498  1.0000
  H   H160      1.0  0.22128  0.55851  0.26934  1.0000
  H   H161      1.0  0.25369  0.58538  0.16783  1.0000
  H   H162      1.0  0.30394  0.58935  0.19306  1.0000
  C   C140      1.0  0.36673  0.89389  0.23966  1.0000
  H   H163      1.0  0.02390  0.79316  0.15768  1.0000
  H   H164      1.0  0.10145  0.69806  0.17682  1.0000
  C   C141      1.0  0.34093  0.52821  0.46807  1.0000
  C   C142      1.0  0.04445  0.75152  0.14755  1.0000
  C   C143      1.0  0.27593  0.91131  0.25498  1.0000
  C   C144      1.0  0.25492  0.92949  0.23896  1.0000
  C   C145      1.0  0.23700  0.91916  0.21104  1.0000
  C   C146      1.0  0.24007  0.89047  0.19849  1.0000
  C   C147      1.0  0.26116  0.87235  0.21441  1.0000
  C   C148      1.0  0.27893  0.88262  0.24249  1.0000
  H   H165      1.0  0.25233  0.95171  0.24842  1.0000
  H   H166      1.0  0.22111  0.93350  0.19903  1.0000
  H   H167      1.0  0.26384  0.85017  0.20485  1.0000
  H   H168      1.0  0.29480  0.86825  0.25452  1.0000
  C   C149      1.0  0.35321  0.78455  0.39217  1.0000
  C   C150      1.0  0.35328  0.78073  0.35553  1.0000
  C   C151      1.0  0.35507  0.75237  0.34100  1.0000
  C   C152      1.0  0.35674  0.72741  0.36281  1.0000
  C   C153      1.0  0.35682  0.73114  0.39950  1.0000
  C   C154      1.0  0.35501  0.75960  0.41406  1.0000
  H   H169      1.0  0.35164  0.79960  0.33833  1.0000
  H   H170      1.0  0.35502  0.74977  0.31260  1.0000
  H   H171      1.0  0.35804  0.71215  0.41662  1.0000
  H   H172      1.0  0.35489  0.76228  0.44247  1.0000
  C   C155      1.0  0.47354  0.89275  0.30934  1.0000
  C   C156      1.0  0.09553  0.78467  0.13753  1.0000
  C   C157      1.0  0.47708  0.91735  0.33104  1.0000
  H   H173      1.0  0.33770  0.95839  0.46937  1.0000
  H   H174      1.0  0.45803  0.92839  0.34125  1.0000
  H   H175      1.0  0.23909  0.55735  0.06130  1.0000
  N   N10       1.0  0.24256  0.51846  0.09381  1.0000
  H   H176      1.0  0.07247  0.67494  0.08880  1.0000
  C   C158      1.0  0.04602  0.68858  0.14911  1.0000
  N   N11       1.0  0.14726  0.89084  0.23980  1.0000
  C   C159      1.0  0.11887  0.89608  0.25762  1.0000
  C   C160      1.0  0.14992  0.91122  0.20938  1.0000
  C   C161      1.0  0.14624  0.86044  0.22560  1.0000
  C   C162      1.0  0.17187  0.89613  0.26466  1.0000
  C   C163      1.0  0.19380  0.87490  0.27159  1.0000
  C   C164      1.0  0.17482  0.92354  0.28224  1.0000
  C   C165      1.0  0.21667  0.88069  0.29529  1.0000
  C   C166      1.0  0.19793  0.92913  0.30569  1.0000
  C   C167      1.0  0.21875  0.90771  0.31228  1.0000
  H   H177      1.0  0.11624  0.91933  0.26569  1.0000
  H   H178      1.0  0.09993  0.89114  0.23979  1.0000
  H   H179      1.0  0.11655  0.88213  0.28166  1.0000
  H   H180      1.0  0.14922  0.93462  0.21745  1.0000
  H   H181      1.0  0.13177  0.90782  0.19002  1.0000
  H   H182      1.0  0.17094  0.90793  0.19516  1.0000
  H   H183      1.0  0.14464  0.84388  0.24717  1.0000
  H   H184      1.0  0.44988  0.76055  0.35197  1.0000
  H   H185      1.0  0.16591  0.85572  0.20919  1.0000
  H   H186      1.0  0.19428  0.85391  0.25843  1.0000
  H   H187      1.0  0.15954  0.94105  0.27753  1.0000
  H   H188      1.0  0.23355  0.86450  0.29963  1.0000
  H   H189      1.0  0.19769  0.53073  0.08754  1.0000
  H   H190      1.0  0.23714  0.91235  0.32969  1.0000
  C   C168      1.0  0.47858  0.80973  0.37909  1.0000
  H   H191      1.0  0.32319  0.69596  0.23271  1.0000
  H   H192      1.0  0.02520  0.69336  0.13506  1.0000
  H   H193      1.0  0.06927  0.82241  0.14883  1.0000
  C   C169      1.0  0.31020  0.65009  0.27332  1.0000
  H   H194      1.0  0.41964  0.53240  0.39399  1.0000
  C   C170      1.0  0.04512  0.80071  0.06149  1.0000
  N   N12       1.0  0.29237  0.67690  0.26953  1.0000
  H   H195      1.0  0.32975  0.65387  0.29039  1.0000
  H   H196      1.0  0.27947  0.70431  0.20424  1.0000
  H   H197      1.0  0.00684  0.92437  0.05748  1.0000
  H   H198      1.0  0.27926  0.94293  0.15653  1.0000
  H   H199      1.0  0.31680  0.86046  0.12921  1.0000
  C   C171      1.0  0.17829  0.52623  0.99780  1.0000
  H   H200      1.0  0.02380  0.74013  0.15096  1.0000
  C   C172      1.0  0.43486  0.81092  0.41500  1.0000
  C   C173      1.0  0.03498  0.82840  0.07054  1.0000
  H   H201      1.0  0.11665  0.74468  0.12609  1.0000
  H   H202      1.0  0.05044  0.84537  0.07878  1.0000
  H   H203      1.0  0.39044  0.51588  0.41835  1.0000
  H   H204      1.0  0.33030  0.70485  0.27769  1.0000
  H   H205      1.0  0.41772  0.76381  0.37833  1.0000
  H   H206      1.0  0.21355  0.54062  0.12964  1.0000
  H   H207      1.0  0.20774  0.62597  0.23479  1.0000
  H   H208      1.0  0.41472  0.92034  0.21211  1.0000
  C   C174      1.0  0.01135  0.61544  0.11406  1.0000
  C   C175      1.0  0.39597  0.91614  0.19376  1.0000
  N   N13       1.0  0.44717  0.80131  0.38074  1.0000
  C   C176      1.0  0.44162  0.76920  0.37752  1.0000
  C   C177      1.0  0.26219  0.50853  0.12270  1.0000
  N   N14       1.0  0.07152  0.70438  0.13331  1.0000
  H   H209      1.0  0.30053  0.72228  0.25586  1.0000
  H   H210      1.0  0.40744  0.80929  0.35131  1.0000
  H   H211      1.0  0.04364  0.69397  0.17762  1.0000
  C   C178      1.0  0.00567  0.55891  0.14172  1.0000
  C   C179      1.0  0.28041  0.68478  0.30465  1.0000
  H   H212      1.0  0.09063  0.70942  0.08162  1.0000
  H   H213      1.0  0.29777  0.63164  0.28561  1.0000
  C   C180      1.0  0.01264  0.89652  0.15385  1.0000
  H   H214      1.0  0.20007  0.95036  0.31840  1.0000
  H   H215      1.0  0.47260  0.58976  0.30040  1.0000
  C   C181      1.0  0.07146  0.69885  0.09477  1.0000
  H   H216      1.0  0.12686  0.85685  0.20813  1.0000
  H   H217      1.0  0.44056  0.81067  0.32545  1.0000
  H   H218      1.0  0.44729  0.80155  0.43760  1.0000
  H   H219      1.0  0.40002  0.89428  0.18188  1.0000
  H   H220      1.0  0.47107  0.85701  0.38223  1.0000
  H   H221      1.0  0.39705  0.93277  0.17220  1.0000
  H   H222      1.0  0.27611  0.54479  0.06864  1.0000
  C   C182      1.0  0.29702  0.92746  0.15901  1.0000
  H   H223      1.0  0.45171  0.75681  0.39971  1.0000
  C   C183      1.0  0.22088  0.65909  0.19753  1.0000
  C   C184      1.0  0.34139  0.88638  0.16695  1.0000
  C   C185      1.0  0.48872  0.58578  0.35362  1.0000
  H   H224      1.0  0.29815  0.69044  0.32381  1.0000
  H   H225      1.0  0.26571  0.70403  0.30268  1.0000
  H   H226      1.0  0.22611  0.95059  0.99055  1.0000
  C   C186      1.0  0.37419  0.98746  0.45950  1.0000
  C   C187      1.0  0.08900  0.52001  0.00194  1.0000
  H   H227      1.0  0.46814  0.53365  0.41471  1.0000
  C   C188      1.0  0.25415  0.54715  0.08091  1.0000
  C   C189      1.0  0.03603  0.91203  0.09962  1.0000
  H   H228      1.0  0.26782  0.66642  0.31690  1.0000
  H   H229      1.0  0.11866  0.69739  0.13396  1.0000
  H   H230      1.0  0.11522  0.79750  0.13250  1.0000
  C   C190      1.0  0.31807  0.88092  0.14376  1.0000
  H   H231      1.0  0.35780  0.86961  0.16944  1.0000
  C   C191      1.0  0.32005  0.93304  0.18257  1.0000
  H   H232      1.0  0.41155  0.80393  0.41800  1.0000
  H   H233      1.0  0.31813  0.64223  0.24722  1.0000
  N   N15       1.0  0.36749  0.91731  0.21248  1.0000
  N   N16       1.0  0.43203  0.51655  0.44559  1.0000
  C   C192      1.0  0.31232  0.70112  0.25822  1.0000
  H   H234      1.0  0.20309  0.65430  0.17941  1.0000
  H   H235      1.0  0.38512  0.94884  0.24979  1.0000
  H   H236      1.0  0.24844  0.63538  0.27527  1.0000
  H   H237      1.0  0.15908  0.99620  0.04368  1.0000
  C   C193      1.0  0.36633  0.94592  0.23123  1.0000
  H   H238      1.0  0.36998  0.87166  0.22842  1.0000
  H   H239      1.0  0.43518  0.83521  0.41789  1.0000
  C   C194      1.0  0.34307  0.91259  0.18720  1.0000
  C   C195      1.0  0.07073  0.73653  0.13919  1.0000
  H   H240      1.0  0.49598  0.85966  0.27940  1.0000
  H   H241      1.0  0.34530  0.89364  0.25366  1.0000
  C   C196      1.0  0.26451  0.68712  0.21239  1.0000
  C   C197      1.0  0.43096  0.81587  0.35169  1.0000
  H   H242      1.0  0.36713  0.96471  0.21243  1.0000
  C   C198      1.0  0.26802  0.67117  0.24448  1.0000
  H   H243      1.0  0.04832  0.66431  0.14738  1.0000
  C   C199      1.0  0.24127  0.68097  0.18936  1.0000
  H   H244      1.0  0.38432  0.89708  0.25976  1.0000
  C   C200      1.0  0.09844  0.69138  0.14878  1.0000
  C   C201      1.0  0.24688  0.64890  0.25184  1.0000
  C   C202      1.0  0.49186  0.58849  0.31701  1.0000
  H   H245      1.0  0.06840  0.79621  0.06257  1.0000
  C   C203      1.0  0.06966  0.79865  0.14649  1.0000
  H   H246      1.0  0.31880  0.95314  0.19752  1.0000
  H   H247      1.0  0.26527  0.52582  0.14329  1.0000
  C   C204      1.0  0.49851  0.87872  0.29618  1.0000
  C   C205      1.0  0.21307  0.52350  0.10864  1.0000
  H   H248      1.0  0.34619  0.94758  0.24769  1.0000
  H   H249      1.0  0.05562  0.91667  0.08451  1.0000
  C   C206      1.0  0.02534  0.77888  0.05103  1.0000
  C   C207      1.0  0.22355  0.64322  0.22879  1.0000
  H   H250      1.0  0.27736  0.89673  0.12270  1.0000
  C   C208      1.0  0.29591  0.90140  0.13986  1.0000
  C   C209      1.0  0.48712  0.83980  0.38051  1.0000
  H   H251      1.0  0.01422  0.88905  0.18092  1.0000
  H   H252      1.0  0.25657  0.56337  0.10275  1.0000
  C   C210      1.0  0.15511  0.97676  0.99212  1.0000
  C   C211      1.0  0.41431  0.51425  0.41273  1.0000
  H   H253      1.0  0.03344  0.75740  0.04399  1.0000
  H   H254      1.0  0.00824  0.52773  0.99827  1.0000
  C   C212      1.0  0.04414  0.78211  0.15140  1.0000
  H   H255      1.0  0.22394  0.00459  0.99507  1.0000
  H   H256      1.0  0.01330  0.63736  0.10323  1.0000
  H   H257      1.0  0.16073  0.50575  0.04457  1.0000
  H   H258      1.0  0.40208  0.54567  0.47128  1.0000
  H   H259      1.0  0.25045  0.52396  0.01997  1.0000
  C   C213      1.0  0.42523  0.54515  0.46221  1.0000
  H   H260      1.0  0.42817  0.56376  0.44326  1.0000
  H   H261      1.0  0.09281  0.53927  0.01824  1.0000
  C   C214      1.0  0.15745  0.00037  0.01560  1.0000
  H   H262      1.0  0.32380  0.50937  0.42013  1.0000
  C   C215      1.0  0.00509  0.83449  0.06857  1.0000
  C   C216      1.0  0.00830  0.91655  0.08441  1.0000
  C   C217      1.0  0.46334  0.51662  0.43511  1.0000
  H   H263      1.0  0.49723  0.76548  0.37592  1.0000
  C   C218      1.0  0.50145  0.78882  0.37679  1.0000
  N   N17       1.0  0.43290  0.00301  0.58989  1.0000
  H   H264      1.0  0.23059  0.92701  0.93215  1.0000
  H   H265      1.0  0.26803  0.51314  0.48070  1.0000
  C   C219      1.0  0.22628  0.99444  0.96934  1.0000
  C   C220      1.0  0.22979  0.95076  0.93386  1.0000
  H   H266      1.0  0.29477  0.57391  0.56083  1.0000
  H   H267      1.0  0.25931  0.99128  0.84466  1.0000
  H   H268      1.0  0.43077  0.96795  0.62801  1.0000
  C   C221      1.0  0.23019  0.96790  0.90316  1.0000
  H   H269      1.0  0.06904  0.00073  0.89694  1.0000
  H   H270      1.0  0.31984  0.98654  0.52114  1.0000
  C   C222      1.0  0.42144  0.99009  0.62322  1.0000
  H   H271      1.0  0.28342  0.56307  0.49833  1.0000
  H   H272      1.0  0.39711  0.98776  0.62264  1.0000
  H   H273      1.0  0.29115  0.53547  0.60576  1.0000
  H   H274      1.0  0.35686  0.53989  0.51990  1.0000
  H   H275      1.0  0.15165  0.96456  0.93726  1.0000
  C   C223      1.0  0.34900  0.52218  0.50328  1.0000
  H   H276      1.0  0.09416  0.99973  0.95087  1.0000
  H   H277      1.0  0.39612  0.98488  0.56065  1.0000
  H   H278      1.0  0.01616  0.50566  0.94032  1.0000
  C   C224      1.0  0.18588  0.52166  0.96220  1.0000
  C   C225      1.0  0.28510  0.52988  0.57898  1.0000
  H   H279      1.0  0.23189  0.95658  0.87821  1.0000
  C   C226      1.0  0.42055  0.98547  0.56016  1.0000
  C   C227      1.0  0.22756  0.96399  0.96686  1.0000
  H   H280      1.0  0.19492  0.53971  0.94695  1.0000
  C   C228      1.0  0.27202  0.51790  0.50838  1.0000
  H   H281      1.0  0.20699  0.98264  0.83808  1.0000
  C   C229      1.0  0.28732  0.55207  0.55349  1.0000
  C   C230      1.0  0.15323  0.98267  0.95566  1.0000
  C   C231      1.0  0.28076  0.54609  0.51827  1.0000
  H   H282      1.0  0.42789  0.96226  0.56125  1.0000
  C   C232      1.0  0.33928  0.99399  0.50733  1.0000
  H   H283      1.0  0.26576  0.50591  0.64187  1.0000
  H   H284      1.0  0.03354  0.99621  0.91708  1.0000
  H   H285      1.0  0.42659  0.99501  0.53403  1.0000
  H   H286      1.0  0.47363  0.98017  0.54126  1.0000
  H   H287      1.0  0.43940  0.55009  0.48532  1.0000
  H   H288      1.0  0.11863  0.53453  0.96142  1.0000
  H   H289      1.0  0.45776  0.50801  0.51043  1.0000
  C   C233      1.0  0.48293  0.99162  0.56365  1.0000
  C   C234      1.0  0.10349  0.51735  0.96981  1.0000
  C   C235      1.0  0.34936  0.97793  0.47797  1.0000
  H   H290      1.0  0.42654  0.00393  0.64667  1.0000
  C   C236      1.0  0.46533  0.00400  0.59069  1.0000
  C   C237      1.0  0.22770  0.99894  0.90461  1.0000
  H   H291      1.0  0.18132  0.00357  0.86309  1.0000
  C   C238      1.0  0.20242  0.00486  0.84853  1.0000
  H   H292      1.0  0.06148  0.99409  0.97561  1.0000
  H   H293      1.0  0.77606  0.50174  0.00866  1.0000
  C   C239      1.0  0.84920  0.48725  0.99897  1.0000
  H   H294      1.0  0.63134  0.03161  0.42088  1.0000
  H   H295      1.0  0.96756  0.08678  0.99635  1.0000
  C   C240      1.0  0.59321  0.00907  0.44442  1.0000
  H   H296      1.0  0.76915  0.02636  0.41531  1.0000
  H   H297      1.0  0.73498  0.42626  0.44593  1.0000
  H   H298      1.0  0.69575  0.03168  0.43693  1.0000
  H   H299      1.0  0.74091  0.46400  0.40047  1.0000
  H   H300      1.0  0.73302  0.49437  0.11944  1.0000
  C   C241      1.0  0.75371  0.49742  0.13469  1.0000
  C   C242      1.0  0.74026  0.47096  0.42772  1.0000
  C   C243      1.0  0.61619  0.03034  0.44268  1.0000
  C   C244      1.0  0.62076  0.05057  0.46993  1.0000
  H   H301      1.0  0.55501  0.01521  0.39188  1.0000
  H   H302      1.0  0.76924  0.47975  0.12745  1.0000
  H   H303      1.0  0.66000  0.44981  0.45085  1.0000
  C   C245      1.0  0.68761  0.01380  0.45313  1.0000
  C   C246      1.0  0.82203  0.03134  0.99355  1.0000
  C   C247      1.0  0.90361  0.03467  0.98856  1.0000
  C   C248      1.0  0.66105  0.49723  0.45145  1.0000
  H   H304      1.0  0.76258  0.48991  0.06897  1.0000
  C   C249      1.0  0.93853  0.50324  0.98164  1.0000
  H   H305      1.0  0.84268  0.46959  0.01653  1.0000
  H   H306      1.0  0.81246  0.04816  0.00989  1.0000
  H   H307      1.0  0.60752  0.01166  0.37293  1.0000
  H   H308      1.0  0.88946  0.03547  0.01136  1.0000
  C   C250      1.0  0.73689  0.44915  0.45349  1.0000
  H   H309      1.0  0.65894  0.49921  0.42311  1.0000
  H   H310      1.0  0.91630  0.50197  0.99123  1.0000
  H   H311      1.0  0.74814  0.49383  0.16306  1.0000
  C   C251      1.0  0.57513  0.00957  0.47494  1.0000
  H   H312      1.0  0.71531  0.50168  0.37287  1.0000
  H   H313      1.0  0.91282  0.00938  0.05504  1.0000
  H   H314      1.0  0.76906  0.49703  0.37194  1.0000
  C   C252      1.0  0.66132  0.46916  0.46734  1.0000
  H   H315      1.0  0.97176  0.49169  0.06285  1.0000
  C   C253      1.0  0.92345  0.01132  0.98269  1.0000
  C   C254      1.0  0.98604  0.07528  0.98521  1.0000
  H   H316      1.0  0.58689  0.46983  0.47039  1.0000
  H   H317      1.0  0.63881  0.06624  0.46853  1.0000
  H   H318      1.0  0.99926  0.05649  0.03473  1.0000
  H   H319      1.0  0.96434  0.00770  0.03343  1.0000
  C   C255      1.0  0.74193  0.50117  0.43687  1.0000
  H   H320      1.0  0.91886  0.50539  0.05162  1.0000
  C   C256      1.0  0.00381  0.05804  0.00667  1.0000
  Fe  Fe33      1.0  0.67777  0.39603  0.65426  1.0000
  S   S65       1.0  0.68564  0.37311  0.60205  1.0000
  S   S66       1.0  0.70452  0.39371  0.70579  1.0000
  Fe  Fe34      1.0  0.61275  0.40743  0.63515  1.0000
  S   S67       1.0  0.61678  0.38562  0.58273  1.0000
  S   S68       1.0  0.56944  0.42512  0.65512  1.0000
  Fe  Fe35      1.0  0.64204  0.35060  0.61085  1.0000
  S   S69       1.0  0.62325  0.30413  0.60741  1.0000
  Fe  Fe36      1.0  0.65938  0.41054  0.57805  1.0000
  S   S70       1.0  0.66569  0.42974  0.52237  1.0000
  S   S71       1.0  0.63552  0.37136  0.66373  1.0000
  S   S72       1.0  0.65406  0.43464  0.62973  1.0000
  Fe  Fe37      1.0  0.61993  0.09620  0.59301  1.0000
  S   S73       1.0  0.64644  0.11320  0.54705  1.0000
  S   S74       1.0  0.57203  0.09093  0.57615  1.0000
  Fe  Fe38      1.0  0.67569  0.08879  0.63831  1.0000
  S   S75       1.0  0.70500  0.10361  0.59418  1.0000
  S   S76       1.0  0.69216  0.08341  0.69532  1.0000
  Fe  Fe39      1.0  0.67204  0.13943  0.58667  1.0000
  S   S77       1.0  0.69145  0.18528  0.58005  1.0000
  Fe  Fe40      1.0  0.67656  0.07565  0.55822  1.0000
  S   S78       1.0  0.69353  0.05295  0.50821  1.0000
  S   S79       1.0  0.64339  0.12576  0.63187  1.0000
  S   S80       1.0  0.64941  0.05760  0.60313  1.0000
  Fe  Fe41      1.0  0.91905  0.42474  0.84931  1.0000
  S   S81       1.0  0.90789  0.40023  0.89888  1.0000
  S   S82       1.0  0.96330  0.44720  0.84264  1.0000
  Fe  Fe42      1.0  0.85716  0.41472  0.81763  1.0000
  S   S83       1.0  0.84187  0.38952  0.86556  1.0000
  S   S84       1.0  0.83240  0.42401  0.76616  1.0000
  Fe  Fe43      1.0  0.86556  0.42505  0.89689  1.0000
  S   S85       1.0  0.84611  0.44535  0.94664  1.0000
  Fe  Fe44      1.0  0.88572  0.36734  0.86292  1.0000
  S   S86       1.0  0.89896  0.31931  0.86317  1.0000
  S   S87       1.0  0.87795  0.45154  0.84915  1.0000
  S   S88       1.0  0.89972  0.39066  0.81327  1.0000
  Fe  Fe45      1.0  0.89444  0.11924  0.85443  1.0000
  S   S89       1.0  0.86711  0.13693  0.89886  1.0000
  S   S90       1.0  0.94279  0.12774  0.86625  1.0000
  Fe  Fe46      1.0  0.83934  0.10216  0.81171  1.0000
  S   S91       1.0  0.80921  0.11863  0.85362  1.0000
  S   S92       1.0  0.82203  0.08262  0.75989  1.0000
  Fe  Fe47      1.0  0.83978  0.15771  0.85661  1.0000
  S   S93       1.0  0.81977  0.20332  0.85826  1.0000
  Fe  Fe48      1.0  0.83957  0.09618  0.89196  1.0000
  S   S94       1.0  0.82172  0.07338  0.94134  1.0000
  S   S95       1.0  0.86841  0.14263  0.81228  1.0000
  S   S96       1.0  0.86834  0.07706  0.84993  1.0000
  C   C257      1.0  0.82957  0.03793  0.95836  1.0000
  H   H321      1.0  0.58123  0.33966  0.68559  1.0000
  C   C258      1.0  0.97498  0.10903  0.85410  1.0000
  H   H322      1.0  0.54407  0.31846  0.72362  1.0000
  H   H323      1.0  0.95361  0.07203  0.82942  1.0000
  C   C259      1.0  0.56529  0.33931  0.66330  1.0000
  C   C260      1.0  0.71529  0.45610  0.80018  1.0000
  C   C261      1.0  0.76822  0.48065  0.77708  1.0000
  C   C262      1.0  0.00213  0.12168  0.86330  1.0000
  H   H324      1.0  0.54366  0.49047  0.57659  1.0000
  H   H325      1.0  0.69496  0.44590  0.80878  1.0000
  H   H326      1.0  0.97159  0.38566  0.85887  1.0000
  C   C263      1.0  0.87629  0.28750  0.86260  1.0000
  C   C264      1.0  0.88936  0.26011  0.85719  1.0000
  C   C265      1.0  0.87235  0.23416  0.85607  1.0000
  C   C266      1.0  0.84199  0.23540  0.86020  1.0000
  C   C267      1.0  0.82884  0.26283  0.86547  1.0000
  C   C268      1.0  0.84593  0.28878  0.86695  1.0000
  H   H327      1.0  0.91282  0.25895  0.85396  1.0000
  H   H328      1.0  0.88273  0.21318  0.85206  1.0000
  H   H329      1.0  0.80539  0.26391  0.86906  1.0000
  H   H330      1.0  0.83570  0.30962  0.87207  1.0000
  C   C269      1.0  0.72875  0.08524  0.71190  1.0000
  C   C270      1.0  0.73353  0.09324  0.74741  1.0000
  C   C271      1.0  0.76197  0.09349  0.76220  1.0000
  C   C272      1.0  0.78598  0.08496  0.74188  1.0000
  C   C273      1.0  0.78123  0.07720  0.70630  1.0000
  C   C274      1.0  0.75289  0.07764  0.69127  1.0000
  H   H331      1.0  0.71507  0.09923  0.76362  1.0000
  H   H332      1.0  0.76524  0.09991  0.78941  1.0000
  H   H333      1.0  0.79958  0.07050  0.69031  1.0000
  H   H334      1.0  0.74962  0.07113  0.66406  1.0000
  C   C275      1.0  0.99478  0.42505  0.84372  1.0000
  H   H335      1.0  0.60683  0.06568  0.52080  1.0000
  C   C276      1.0  0.81497  0.49426  0.82472  1.0000
  C   C277      1.0  0.55595  0.20424  0.57996  1.0000
  C   C278      1.0  0.00086  0.06803  0.82804  1.0000
  C   C279      1.0  0.53798  0.09592  0.63657  1.0000
  C   C280      1.0  0.53881  0.09259  0.59988  1.0000
  C   C281      1.0  0.53536  0.31009  0.60118  1.0000
  H   H336      1.0  0.55823  0.09761  0.65138  1.0000
  H   H337      1.0  0.75942  0.49000  0.88379  1.0000
  C   C282      1.0  0.74064  0.40142  0.72135  1.0000
  C   C283      1.0  0.76183  0.41543  0.70048  1.0000
  C   C284      1.0  0.78983  0.42182  0.71460  1.0000
  C   C285      1.0  0.79706  0.41426  0.74963  1.0000
  C   C286      1.0  0.77597  0.39998  0.77040  1.0000
  C   C287      1.0  0.74797  0.39364  0.75631  1.0000
  H   H338      1.0  0.75656  0.42161  0.67362  1.0000
  H   H339      1.0  0.80594  0.43294  0.69830  1.0000
  H   H340      1.0  0.78098  0.39414  0.79741  1.0000
  H   H341      1.0  0.73174  0.38282  0.77269  1.0000
  C   C288      1.0  0.66361  0.46586  0.50425  1.0000
  C   C289      1.0  0.97755  0.22462  0.84679  1.0000
  C   C290      1.0  0.50924  0.42353  0.65095  1.0000
  H   H342      1.0  0.75119  0.13224  0.65284  1.0000
  H   H343      1.0  0.69681  0.16533  0.65645  1.0000
  C   C291      1.0  0.53567  0.41405  0.63605  1.0000
  H   H344      1.0  0.78840  0.48907  0.76601  1.0000
  C   C292      1.0  0.53473  0.39622  0.60605  1.0000
  H   H345      1.0  0.54464  0.26760  0.66976  1.0000
  H   H346      1.0  0.55476  0.38845  0.59451  1.0000
  C   C293      1.0  0.64311  0.27140  0.60124  1.0000
  C   C294      1.0  0.67271  0.27172  0.59195  1.0000
  C   C295      1.0  0.68723  0.24511  0.58571  1.0000
  C   C296      1.0  0.67238  0.21803  0.58895  1.0000
  C   C297      1.0  0.64295  0.21769  0.59902  1.0000
  C   C298      1.0  0.62837  0.24431  0.60498  1.0000
  H   H347      1.0  0.68423  0.29244  0.58885  1.0000
  H   H348      1.0  0.70998  0.24554  0.57781  1.0000
  H   H349      1.0  0.63140  0.19696  0.60174  1.0000
  H   H350      1.0  0.60554  0.24389  0.61235  1.0000
  C   C299      1.0  0.94363  0.49046  0.94865  1.0000
  H   H351      1.0  0.86512  0.50021  0.91262  1.0000
  H   H352      1.0  0.54487  0.24933  0.57173  1.0000
  C   C300      1.0  0.76405  0.01404  0.92220  1.0000
  H   H353      1.0  0.00281  0.14217  0.87769  1.0000
  C   C301      1.0  0.73757  0.46227  0.82457  1.0000
  C   C302      1.0  0.74566  0.47463  0.75301  1.0000
  H   H354      1.0  0.76401  0.21352  0.65350  1.0000
  H   H355      1.0  0.92575  0.47998  0.93429  1.0000
  H   H356      1.0  0.55418  0.36088  0.66307  1.0000
  H   H357      1.0  0.81360  0.04574  0.86750  1.0000
  H   H358      1.0  0.80464  0.43658  0.83566  1.0000
  H   H359      1.0  0.73354  0.45660  0.85186  1.0000
  H   H360      1.0  0.61931  0.46481  0.56238  1.0000
  H   H361      1.0  0.74899  0.47850  0.72502  1.0000
  H   H362      1.0  0.82539  0.47974  0.80477  1.0000
  N   N18       1.0  0.76912  0.03220  0.85866  1.0000
  H   H363      1.0  0.77893  0.44115  0.87083  1.0000
  H   H364      1.0  0.57470  0.28584  0.69202  1.0000
  C   C303      1.0  0.68339  0.01841  0.48956  1.0000
  H   H365      1.0  0.98067  0.27072  0.85470  1.0000
  C   C304      1.0  0.50773  0.38854  0.59066  1.0000
  C   C305      1.0  0.79710  0.45213  0.85631  1.0000
  H   H366      1.0  0.73163  0.43982  0.50887  1.0000
  H   H367      1.0  0.50731  0.37517  0.56707  1.0000
  C   C306      1.0  0.66546  0.49113  0.52516  1.0000
  C   C307      1.0  0.51714  0.30980  0.57144  1.0000
  H   H368      1.0  0.75787  0.03532  0.93204  1.0000
  C   C308      1.0  0.77064  0.00893  0.88601  1.0000
  H   H369      1.0  0.59269  0.44770  0.59051  1.0000
  N   N19       1.0  0.54385  0.31482  0.66669  1.0000
  C   C309      1.0  0.93984  0.01234  0.95082  1.0000
  N   N20       1.0  0.83713  0.32414  0.76430  1.0000
  C   C310      1.0  0.84634  0.29338  0.77072  1.0000
  C   C311      1.0  0.86188  0.33972  0.74667  1.0000
  C   C312      1.0  0.83238  0.33858  0.79877  1.0000
  C   C313      1.0  0.80948  0.32467  0.74381  1.0000
  C   C314      1.0  0.80604  0.34165  0.71250  1.0000
  C   C315      1.0  0.78437  0.30906  0.75610  1.0000
  C   C316      1.0  0.77921  0.34257  0.69467  1.0000
  C   C317      1.0  0.75758  0.31040  0.73822  1.0000
  C   C318      1.0  0.75499  0.32720  0.70761  1.0000
  H   H370      1.0  0.84832  0.28110  0.74547  1.0000
  H   H371      1.0  0.86789  0.29245  0.78460  1.0000
  H   H372      1.0  0.83092  0.28102  0.78804  1.0000
  H   H373      1.0  0.86638  0.33031  0.72015  1.0000
  H   H374      1.0  0.88250  0.33815  0.76236  1.0000
  H   H375      1.0  0.85760  0.36369  0.74385  1.0000
  H   H376      1.0  0.81519  0.32732  0.81468  1.0000
  H   H377      1.0  0.85270  0.33873  0.81507  1.0000
  H   H378      1.0  0.82553  0.36175  0.79501  1.0000
  H   H379      1.0  0.82347  0.35509  0.70171  1.0000
  H   H380      1.0  0.78510  0.29629  0.78018  1.0000
  H   H381      1.0  0.77680  0.35623  0.67136  1.0000
  H   H382      1.0  0.73853  0.29890  0.74852  1.0000
  H   H383      1.0  0.73398  0.32902  0.69437  1.0000
  N   N21       1.0  0.74114  0.17527  0.67290  1.0000
  C   C319      1.0  0.74128  0.20569  0.65882  1.0000
  C   C320      1.0  0.75176  0.15569  0.64441  1.0000
  C   C321      1.0  0.79901  0.03862  0.84544  1.0000
  C   C322      1.0  0.75914  0.17418  0.70550  1.0000
  C   C323      1.0  0.75138  0.19113  0.73548  1.0000
  C   C324      1.0  0.78503  0.15723  0.70831  1.0000
  C   C325      1.0  0.76842  0.19105  0.76627  1.0000
  C   C326      1.0  0.80206  0.15765  0.73906  1.0000
  C   C327      1.0  0.79372  0.17437  0.76799  1.0000
  H   H384      1.0  0.73096  0.22144  0.67722  1.0000
  C   C328      1.0  0.57597  0.43933  0.52508  1.0000
  H   H385      1.0  0.72882  0.20722  0.63356  1.0000
  H   H386      1.0  0.73782  0.15713  0.62027  1.0000
  H   H387      1.0  0.74800  0.03999  0.80833  1.0000
  H   H388      1.0  0.57854  0.20727  0.57174  1.0000
  H   H389      1.0  0.80922  0.01927  0.83283  1.0000
  H   H390      1.0  0.73201  0.20451  0.73532  1.0000
  H   H391      1.0  0.79249  0.14308  0.68740  1.0000
  H   H392      1.0  0.76209  0.20387  0.78910  1.0000
  H   H393      1.0  0.82162  0.14441  0.74074  1.0000
  H   H394      1.0  0.80683  0.17421  0.79191  1.0000
  H   H395      1.0  0.88515  0.07500  0.96886  1.0000
  H   H396      1.0  0.56607  0.03016  0.52524  1.0000
  H   H397      1.0  0.56086  0.15809  0.59021  1.0000
  C   C329      1.0  0.60284  0.05023  0.49958  1.0000
  H   H398      1.0  0.79904  0.05634  0.82511  1.0000
  H   H399      1.0  0.59623  0.48647  0.59020  1.0000
  H   H400      1.0  0.73438  0.05684  0.88273  1.0000
  C   C330      1.0  0.51233  0.09033  0.58099  1.0000
  H   H401      1.0  0.77097  0.07023  0.89270  1.0000
  H   H402      1.0  0.69943  0.18178  0.69894  1.0000
  H   H403      1.0  0.81519  0.45521  0.87582  1.0000
  H   H404      1.0  0.51284  0.08769  0.55259  1.0000
  C   C331      1.0  0.99272  0.39535  0.85271  1.0000
  H   H405      1.0  0.70238  0.45661  0.74545  1.0000
  C   C332      1.0  0.73512  0.45672  0.48903  1.0000
  H   H406      1.0  0.57123  0.42065  0.54328  1.0000
  H   H407      1.0  0.77432  0.16171  0.63589  1.0000
  H   H408      1.0  0.97869  0.09189  0.93272  1.0000
  C   C333      1.0  0.58122  0.49352  0.52052  1.0000
  C   C334      1.0  0.54598  0.17657  0.59031  1.0000
  H   H409      1.0  0.75515  0.07694  0.85051  1.0000
  C   C335      1.0  0.52401  0.31459  0.63565  1.0000
  H   H410      1.0  0.70966  0.14420  0.69332  1.0000
  C   C336      1.0  0.71050  0.16635  0.68085  1.0000
  C   C337      1.0  0.71933  0.46229  0.76448  1.0000
  C   C338      1.0  0.85350  0.48130  0.96288  1.0000
  H   H411      1.0  0.50976  0.43730  0.67423  1.0000
  C   C339      1.0  0.76477  0.47476  0.81379  1.0000
  H   H412      1.0  0.66774  0.48909  0.55351  1.0000
  C   C340      1.0  0.51084  0.09663  0.65418  1.0000
  N   N22       1.0  0.57498  0.46799  0.54373  1.0000
  H   H413      1.0  0.53943  0.45172  0.57602  1.0000
  H   H414      1.0  0.52838  0.47273  0.53818  1.0000
  C   C341      1.0  0.59672  0.46686  0.57287  1.0000
  H   H415      1.0  0.00030  0.04710  0.81458  1.0000
  C   C342      1.0  0.51084  0.02075  0.61944  1.0000
  H   H416      1.0  0.91479  0.07576  0.91438  1.0000
  H   H417      1.0  0.94921  0.03563  0.90220  1.0000
  C   C343      1.0  0.53684  0.22789  0.57992  1.0000
  C   C344      1.0  0.55996  0.28672  0.66855  1.0000
  H   H418      1.0  0.95404  0.22399  0.85085  1.0000
  H   H419      1.0  0.75812  0.01773  0.47842  1.0000
  C   C345      1.0  0.97153  0.49126  0.93386  1.0000
  C   C346      1.0  0.91724  0.05795  0.93325  1.0000
  C   C347      1.0  0.93661  0.03527  0.92648  1.0000
  C   C348      1.0  0.97439  0.08205  0.83649  1.0000
  C   C349      1.0  0.52742  0.00870  0.59243  1.0000
  H   H420      1.0  0.57837  0.33804  0.63867  1.0000
  H   H421      1.0  0.55860  0.30733  0.59688  1.0000
  H   H422      1.0  0.97517  0.48155  0.90807  1.0000
  H   H423      1.0  0.57444  0.28349  0.64538  1.0000
  C   C350      1.0  0.75679  0.06017  0.87186  1.0000
  C   C351      1.0  0.75057  0.02233  0.82855  1.0000
  N   N23       1.0  0.78829  0.48033  0.84008  1.0000
  C   C352      1.0  0.57996  0.02993  0.50205  1.0000
  H   H424      1.0  0.73399  0.49191  0.52653  1.0000
  C   C353      1.0  0.73647  0.48612  0.49893  1.0000
  H   H425      1.0  0.59815  0.43532  0.51383  1.0000
  H   H426      1.0  0.55109  0.01103  0.59293  1.0000
  H   H427      1.0  0.55936  0.43793  0.50361  1.0000
  C   C354      1.0  0.54534  0.47093  0.55920  1.0000
  H   H428      1.0  0.52646  0.30701  0.54534  1.0000
  C   C355      1.0  0.86175  0.50437  0.94043  1.0000
  C   C356      1.0  0.51682  0.17240  0.60041  1.0000
  H   H429      1.0  0.51220  0.30072  0.70562  1.0000
  H   H430      1.0  0.83199  0.49868  0.84522  1.0000
  C   C357      1.0  0.58610  0.49081  0.48354  1.0000
  H   H431      1.0  0.84778  0.02066  0.91042  1.0000
  C   C358      1.0  0.84178  0.01595  0.93747  1.0000
  C   C359      1.0  0.52848  0.31865  0.70092  1.0000
  H   H432      1.0  0.51037  0.09887  0.68264  1.0000
  C   C360      1.0  0.50750  0.22392  0.58982  1.0000
  H   H433      1.0  0.72831  0.01571  0.83770  1.0000
  H   H434      1.0  0.52173  0.03249  0.64077  1.0000
  C   C361      1.0  0.77759  0.50004  0.86833  1.0000
  H   H435      1.0  0.51022  0.15051  0.60815  1.0000
  C   C362      1.0  0.99227  0.07809  0.94938  1.0000
  H   H436      1.0  0.51721  0.34022  0.70209  1.0000
  C   C363      1.0  0.90081  0.05765  0.96419  1.0000
  C   C364      1.0  0.99212  0.19870  0.83934  1.0000
  C   C365      1.0  0.99455  0.50475  0.95210  1.0000
  C   C366      1.0  0.99307  0.25119  0.84905  1.0000
  H   H437      1.0  0.97985  0.17822  0.83735  1.0000
  H   H438      1.0  0.79519  0.50539  0.88785  1.0000
  Fe  Fe49      1.0  0.66093  0.57676  0.39736  1.0000
  S   S97       1.0  0.65245  0.55141  0.34728  1.0000
  S   S98       1.0  0.66437  0.55864  0.45393  1.0000
  Fe  Fe50      1.0  0.66773  0.63562  0.35677  1.0000
  S   S99       1.0  0.65968  0.61386  0.30441  1.0000
  S   S100      1.0  0.68419  0.68280  0.35333  1.0000
  Fe  Fe51      1.0  0.62342  0.58945  0.33270  1.0000
  S   S101      1.0  0.58020  0.58670  0.30262  1.0000
  Fe  Fe52      1.0  0.68948  0.57842  0.32348  1.0000
  S   S102      1.0  0.72837  0.55780  0.29480  1.0000
  S   S103      1.0  0.62966  0.61352  0.38412  1.0000
  S   S104      1.0  0.69956  0.60139  0.37458  1.0000
  Fe  Fe53      1.0  0.66940  0.88761  0.31206  1.0000
  S   S105      1.0  0.67933  0.86616  0.36463  1.0000
  S   S106      1.0  0.69963  0.88185  0.26392  1.0000
  Fe  Fe54      1.0  0.60737  0.90505  0.33615  1.0000
  S   S107      1.0  0.61386  0.88464  0.38919  1.0000
  S   S108      1.0  0.56516  0.93086  0.33268  1.0000
  Fe  Fe55      1.0  0.65814  0.90616  0.38873  1.0000
  S   S109      1.0  0.67125  0.92576  0.44217  1.0000
  Fe  Fe56      1.0  0.63393  0.84686  0.36057  1.0000
  S   S110      1.0  0.61591  0.80209  0.37678  1.0000
  S   S111      1.0  0.65103  0.92889  0.33662  1.0000
  S   S112      1.0  0.62455  0.86594  0.30703  1.0000
  Fe  Fe57      1.0  0.88683  0.64802  0.10407  1.0000
  S   S113      1.0  0.88459  0.62345  0.15551  1.0000
  S   S114      1.0  0.90480  0.69440  0.11144  1.0000
  Fe  Fe58      1.0  0.86727  0.59284  0.06153  1.0000
  S   S115      1.0  0.86285  0.56531  0.11053  1.0000
  S   S116      1.0  0.86251  0.57613  0.00481  1.0000
  Fe  Fe59      1.0  0.84185  0.60509  0.13551  1.0000
  S   S117      1.0  0.79838  0.61299  0.16401  1.0000
  Fe  Fe60      1.0  0.90600  0.58672  0.12592  1.0000
  S   S118      1.0  0.94522  0.56022  0.14367  1.0000
  S   S119      1.0  0.84322  0.63138  0.08482  1.0000
  S   S120      1.0  0.91110  0.61236  0.07592  1.0000
  Fe  Fe61      1.0  0.84594  0.92298  0.05594  1.0000
  S   S121      1.0  0.86795  0.94185  0.10410  1.0000
  S   S122      1.0  0.83990  0.94378  0.00117  1.0000
  Fe  Fe62      1.0  0.85317  0.85926  0.08440  1.0000
  S   S123      1.0  0.87678  0.87395  0.13354  1.0000
  S   S124      1.0  0.84346  0.81291  0.06525  1.0000
  Fe  Fe63      1.0  0.84118  0.90837  0.13553  1.0000
  S   S125      1.0  0.82009  0.92118  0.18849  1.0000
  Fe  Fe64      1.0  0.90126  0.90609  0.09840  1.0000
  S   S126      1.0  0.94847  0.91644  0.08235  1.0000
  S   S127      1.0  0.81674  0.89211  0.08737  1.0000
  S   S128      1.0  0.87994  0.88837  0.04953  1.0000
  C   C367      1.0  0.67337  0.96231  0.45874  1.0000
  C   C368      1.0  0.98256  0.91084  0.10365  1.0000
  H   H439      1.0  0.74054  0.92742  0.45838  1.0000
  H   H440      1.0  0.99836  0.85637  0.07544  1.0000
  H   H441      1.0  0.92671  0.85015  0.02240  1.0000
  C   C369      1.0  0.98040  0.57558  0.13555  1.0000
  H   H442      1.0  0.80127  0.58889  0.03891  1.0000
  C   C370      1.0  0.98346  0.60396  0.12189  1.0000
  C   C371      1.0  0.83735  0.98072  0.98634  1.0000
  H   H443      1.0  0.96434  0.61724  0.11755  1.0000
  C   C372      1.0  0.88662  0.72691  0.09935  1.0000
  C   C373      1.0  0.86473  0.72697  0.07352  1.0000
  C   C374      1.0  0.85169  0.75356  0.06347  1.0000
  C   C375      1.0  0.86012  0.78017  0.07946  1.0000
  C   C376      1.0  0.88148  0.78000  0.10597  1.0000
  C   C377      1.0  0.89491  0.75348  0.11556  1.0000
  H   H444      1.0  0.85830  0.70666  0.06073  1.0000
  H   H445      1.0  0.83508  0.75356  0.04303  1.0000
  H   H446      1.0  0.88752  0.80022  0.11913  1.0000
  H   H447      1.0  0.91165  0.75349  0.13583  1.0000
  C   C378      1.0  0.73337  0.89317  0.24371  1.0000
  C   C379      1.0  0.74142  0.88053  0.21121  1.0000
  C   C380      1.0  0.76770  0.88878  0.19392  1.0000
  C   C381      1.0  0.78651  0.90980  0.20898  1.0000
  C   C382      1.0  0.77856  0.92231  0.24162  1.0000
  C   C383      1.0  0.75221  0.91416  0.25882  1.0000
  H   H448      1.0  0.72707  0.86437  0.19911  1.0000
  H   H449      1.0  0.77329  0.87902  0.16883  1.0000
  H   H450      1.0  0.79283  0.93866  0.25347  1.0000
  H   H451      1.0  0.74636  0.92436  0.28347  1.0000
  C   C384      1.0  0.74860  0.57474  0.25999  1.0000
  C   C385      1.0  0.77593  0.56323  0.25032  1.0000
  C   C386      1.0  0.79212  0.57535  0.22197  1.0000
  C   C387      1.0  0.78074  0.59864  0.20232  1.0000
  C   C388      1.0  0.75350  0.61022  0.21208  1.0000
  C   C389      1.0  0.73763  0.59854  0.24089  1.0000
  H   H452      1.0  0.78470  0.54491  0.26500  1.0000
  H   H453      1.0  0.81322  0.56646  0.21517  1.0000
  H   H454      1.0  0.74439  0.62820  0.19710  1.0000
  H   H455      1.0  0.71663  0.60759  0.24792  1.0000
  C   C390      1.0  0.54526  0.58657  0.32300  1.0000
  C   C391      1.0  0.54213  0.58449  0.35965  1.0000
  C   C392      1.0  0.52002  0.58865  0.30179  1.0000
  H   H456      1.0  0.56135  0.58292  0.37627  1.0000
  H   H457      1.0  0.52223  0.59013  0.27338  1.0000
  C   C393      1.0  0.66532  0.71574  0.36195  1.0000
  C   C394      1.0  0.67831  0.74254  0.35173  1.0000
  C   C395      1.0  0.66371  0.76924  0.35681  1.0000
  C   C396      1.0  0.63585  0.76931  0.37200  1.0000
  C   C397      1.0  0.62305  0.74256  0.38282  1.0000
  C   C398      1.0  0.63783  0.71588  0.37811  1.0000
  H   H458      1.0  0.69971  0.74263  0.33953  1.0000
  H   H459      1.0  0.67380  0.78971  0.34849  1.0000
  H   H460      1.0  0.60164  0.74252  0.39497  1.0000
  H   H461      1.0  0.62812  0.69552  0.38727  1.0000
  C   C399      1.0  0.52682  0.88942  0.30428  1.0000
  C   C400      1.0  0.53030  0.91471  0.32487  1.0000
  H   H462      1.0  0.52257  0.87149  0.38043  1.0000
  H   H463      1.0  0.54588  0.87868  0.29365  1.0000
  C   C401      1.0  0.59097  0.51556  0.46232  1.0000
  H   H464      1.0  0.58533  0.94059  0.40895  1.0000
  C   C402      1.0  0.86020  0.53916  0.98983  1.0000
  C   C403      1.0  0.98433  0.81301  0.05733  1.0000
  C   C404      1.0  0.90858  0.98885  0.03992  1.0000
  H   H465      1.0  0.56123  0.83425  0.37611  1.0000
  C   C405      1.0  0.79209  0.56758  0.04595  1.0000
  C   C406      1.0  0.79402  0.52909  0.14976  1.0000
  C   C407      1.0  0.95830  0.98655  0.02055  1.0000
  H   H466      1.0  0.75174  0.57053  0.40150  1.0000
  N   N24       1.0  0.58737  0.98757  0.41586  1.0000
  H   H467      1.0  0.76762  0.55613  0.44103  1.0000
  H   H468      1.0  0.96516  0.89615  0.15352  1.0000
  H   H469      1.0  0.55109  0.77587  0.29643  1.0000
  C   C408      1.0  0.78476  0.56130  0.08100  1.0000
  C   C409      1.0  0.78857  0.54627  0.01996  1.0000
  H   H470      1.0  0.91251  0.97033  0.05856  1.0000
  H   H471      1.0  0.69874  0.52802  0.40152  1.0000
  H   H472      1.0  0.93455  0.77719  0.06054  1.0000
  C   C410      1.0  0.68227  0.98605  0.43768  1.0000
  H   H473      1.0  0.76336  0.89315  0.41976  1.0000
  N   N25       1.0  0.80274  0.70663  0.17581  1.0000
  C   C411      1.0  0.82505  0.69736  0.14965  1.0000
  C   C412      1.0  0.81059  0.69294  0.21014  1.0000
  C   C413      1.0  0.77399  0.69470  0.16411  1.0000
  C   C414      1.0  0.80062  0.73893  0.17966  1.0000
  C   C415      1.0  0.81595  0.75900  0.15738  1.0000
  C   C416      1.0  0.78170  0.75125  0.20532  1.0000
  C   C417      1.0  0.81265  0.78937  0.16086  1.0000
  C   C418      1.0  0.77867  0.78167  0.20869  1.0000
  C   C419      1.0  0.79414  0.80069  0.18651  1.0000
  H   H474      1.0  0.84729  0.70584  0.15668  1.0000
  H   H475      1.0  0.82677  0.67300  0.14822  1.0000
  H   H476      1.0  0.81954  0.70480  0.12243  1.0000
  H   H477      1.0  0.81360  0.66875  0.20755  1.0000
  H   H478      1.0  0.79342  0.69572  0.23055  1.0000
  H   H479      1.0  0.83141  0.70247  0.22065  1.0000
  H   H480      1.0  0.76697  0.70508  0.13884  1.0000
  H   H481      1.0  0.77480  0.67056  0.15970  1.0000
  H   H482      1.0  0.75650  0.69846  0.18391  1.0000
  H   H483      1.0  0.83043  0.75182  0.13678  1.0000
  H   H484      1.0  0.76879  0.73745  0.22271  1.0000
  H   H485      1.0  0.82433  0.80425  0.14323  1.0000
  H   H486      1.0  0.76405  0.79065  0.22839  1.0000
  H   H487      1.0  0.79161  0.82428  0.18900  1.0000
  H   H488      1.0  0.96169  0.57306  0.06091  1.0000
  H   H489      1.0  0.84931  0.52014  0.04026  1.0000
  H   H490      1.0  0.59534  0.51307  0.43432  1.0000
  N   N26       1.0  0.58414  0.67835  0.29298  1.0000
  C   C420      1.0  0.55294  0.66872  0.29202  1.0000
  C   C421      1.0  0.59913  0.66407  0.26285  1.0000
  C   C422      1.0  0.59707  0.66742  0.32634  1.0000
  C   C423      1.0  0.58817  0.71064  0.29123  1.0000
  C   C424      1.0  0.56448  0.73055  0.29408  1.0000
  C   C425      1.0  0.61668  0.72312  0.28822  1.0000
  C   C426      1.0  0.59752  0.77240  0.29013  1.0000
  H   H491      1.0  0.92138  0.93974  0.00971  1.0000
  H   H492      1.0  0.68662  0.98273  0.40993  1.0000
  H   H493      1.0  0.54168  0.67688  0.26789  1.0000
  H   H494      1.0  0.55079  0.64433  0.29169  1.0000
  H   H495      1.0  0.54084  0.67593  0.31591  1.0000
  H   H496      1.0  0.59151  0.67319  0.23718  1.0000
  H   H497      1.0  0.59502  0.63988  0.26248  1.0000
  H   H498      1.0  0.62333  0.66665  0.26412  1.0000
  H   H499      1.0  0.62117  0.67122  0.32745  1.0000
  H   H500      1.0  0.58732  0.67847  0.34965  1.0000
  H   H501      1.0  0.59336  0.64340  0.32961  1.0000
  H   H502      1.0  0.54210  0.72322  0.29720  1.0000
  H   H503      1.0  0.63595  0.70953  0.28791  1.0000
  C   C427      1.0  0.74797  0.94817  0.44765  1.0000
  H   H504      1.0  0.96014  0.83878  0.00174  1.0000
  H   H505      1.0  0.77672  0.90738  0.34422  1.0000
  N   N27       1.0  0.95302  0.82072  0.05363  1.0000
  H   H506      1.0  0.54825  0.78167  0.37416  1.0000
  C   C428      1.0  0.95009  0.84481  0.02745  1.0000
  C   C429      1.0  0.93408  0.79591  0.04158  1.0000
  C   C430      1.0  0.77350  0.53334  0.09112  1.0000
  H   H507      1.0  0.81095  0.51394  0.13947  1.0000
  H   H508      1.0  0.91066  0.80246  0.03937  1.0000
  H   H509      1.0  0.98130  0.76688  0.04045  1.0000
  C   C431      1.0  0.99534  0.78474  0.04899  1.0000
  C   C432      1.0  0.92644  0.52859  0.04896  1.0000
  H   H510      1.0  0.57256  0.95264  0.45079  1.0000
  H   H511      1.0  0.97171  0.52397  0.08989  1.0000
  H   H512      1.0  0.72428  0.89804  0.41501  1.0000
  H   H513      1.0  0.75414  0.57166  0.14118  1.0000
  C   C433      1.0  0.58911  0.95725  0.43006  1.0000
  H   H514      1.0  0.51178  0.58172  0.40315  1.0000
  C   C434      1.0  0.74839  0.55415  0.42306  1.0000
  C   C435      1.0  0.53091  0.79775  0.37573  1.0000
  H   H515      1.0  0.72029  0.53988  0.36467  1.0000
  H   H516      1.0  0.80373  0.55155  0.14925  1.0000
  H   H517      1.0  0.96194  0.96872  0.04029  1.0000
  H   H518      1.0  0.95256  0.85118  0.09763  1.0000
  H   H519      1.0  0.72479  0.54828  0.12680  1.0000
  H   H520      1.0  0.72197  0.91691  0.34165  1.0000
  C   C436      1.0  0.53840  0.82744  0.37700  1.0000
  C   C437      1.0  0.56927  0.76096  0.29360  1.0000
  H   H521      1.0  0.60333  0.97332  0.36501  1.0000
  H   H522      1.0  0.76579  0.98626  0.37267  1.0000
  C   C438      1.0  0.77794  0.92624  0.36296  1.0000
  H   H523      1.0  0.96070  0.86556  0.03656  1.0000
  H   H524      1.0  0.74452  0.88134  0.38059  1.0000
  C   C439      1.0  0.72597  0.93484  0.36117  1.0000
  C   C440      1.0  0.98480  0.90055  0.13839  1.0000
  N   N28       1.0  0.76668  0.52706  0.12867  1.0000
  H   H525      1.0  0.92391  0.53882  0.07550  1.0000
  C   C441      1.0  0.82620  0.00299  0.00764  1.0000
  H   H526      1.0  0.72838  0.56118  0.43748  1.0000
  H   H527      1.0  0.74004  0.54480  0.17063  1.0000
  H   H528      1.0  0.94055  0.78799  0.01496  1.0000
  C   C442      1.0  0.51658  0.84839  0.37954  1.0000
  H   H529      1.0  0.78854  0.57846  0.10023  1.0000
  C   C443      1.0  0.96526  0.56225  0.03492  1.0000
  H   H530      1.0  0.94393  0.81372  0.10880  1.0000
  H   H531      1.0  0.99963  0.51972  0.05778  1.0000
  H   H532      1.0  0.79509  0.55109  0.99300  1.0000
  H   H533      1.0  0.91775  0.83629  0.08617  1.0000
  H   H534      1.0  0.95185  0.57411  0.01493  1.0000
  C   C444      1.0  0.75773  0.99953  0.45992  1.0000
  C   C445      1.0  0.55756  0.99223  0.40137  1.0000
  N   N29       1.0  0.75102  0.92837  0.38473  1.0000
  H   H535      1.0  0.98870  0.56605  0.02847  1.0000
  C   C446      1.0  0.97593  0.51581  0.06266  1.0000
  H   H536      1.0  0.64313  0.76255  0.28536  1.0000
  H   H537      1.0  0.88493  0.98761  0.03283  1.0000
  H   H538      1.0  0.54015  0.98771  0.42113  1.0000
  C   C447      1.0  0.76184  0.98118  0.40014  1.0000
  H   H539      1.0  0.70560  0.93755  0.37686  1.0000
  H   H540      1.0  0.78172  0.94592  0.34614  1.0000
  H   H541      1.0  0.61109  0.95306  0.44180  1.0000
  C   C448      1.0  0.92066  0.95845  0.99066  1.0000
  H   H542      1.0  0.79763  0.92330  0.37995  1.0000
  H   H543      1.0  0.72937  0.95539  0.34575  1.0000
  C   C449      1.0  0.94144  0.83087  0.08806  1.0000
  C   C450      1.0  0.85299  0.51589  0.01251  1.0000
  C   C451      1.0  0.62111  0.75352  0.28711  1.0000
  H   H544      1.0  0.60128  0.79596  0.29072  1.0000
  N   N30       1.0  0.74506  0.52385  0.40897  1.0000
  H   H545      1.0  0.97401  0.98274  0.99874  1.0000
  N   N31       1.0  0.92748  0.98687  0.00812  1.0000
  H   H546      1.0  0.55286  0.97746  0.37859  1.0000
  C   C452      1.0  0.51399  0.58381  0.37480  1.0000
  N   N32       1.0  0.95714  0.53063  0.03619  1.0000
  C   C453      1.0  0.71875  0.52321  0.38605  1.0000
  H   H547      1.0  0.77452  0.53533  0.36642  1.0000
  C   C454      1.0  0.75409  0.95227  0.41109  1.0000
  C   C455      1.0  0.74552  0.54880  0.14230  1.0000
  C   C456      1.0  0.74565  0.89902  0.40088  1.0000
  H   H548      1.0  0.81970  0.99810  0.03452  1.0000
  H   H549      1.0  0.63113  0.98542  0.39481  1.0000
  C   C457      1.0  0.74988  0.97153  0.47153  1.0000
  C   C458      1.0  0.98973  0.51745  0.98520  1.0000
  H   H550      1.0  0.79016  0.52363  0.17808  1.0000
  C   C459      1.0  0.77038  0.51196  0.06392  1.0000
  H   H551      1.0  0.50774  0.94816  0.35408  1.0000
  C   C460      1.0  0.77789  0.51850  0.02892  1.0000
  C   C461      1.0  0.66345  0.52250  0.47232  1.0000
  C   C462      1.0  0.60834  0.98978  0.38597  1.0000
  H   H552      1.0  0.91132  0.54051  0.03105  1.0000
  C   C463      1.0  0.50532  0.92852  0.33829  1.0000
  C   C464      1.0  0.96153  0.51717  0.00100  1.0000
  C   C465      1.0  0.76371  0.00435  0.42430  1.0000
  H   H553      1.0  0.79131  0.51683  0.40335  1.0000
  H   H554      1.0  0.59652  0.56248  0.46072  1.0000
  H   H555      1.0  0.00353  0.53700  0.15254  1.0000
  C   C466      1.0  0.77114  0.51792  0.38686  1.0000
  C   C467      1.0  0.73959  0.50816  0.47338  1.0000
  H   H556      1.0  0.89826  0.95853  0.97902  1.0000
  H   H557      1.0  0.78647  0.97503  0.85029  1.0000
  H   H558      1.0  0.66723  0.53856  0.52569  1.0000
  H   H559      1.0  0.57840  0.52621  0.56252  1.0000
  C   C468      1.0  0.58182  0.52239  0.53468  1.0000
  C   C469      1.0  0.77594  0.96393  0.93767  1.0000
  H   H560      1.0  0.66208  0.94882  0.51167  1.0000
  H   H561      1.0  0.93616  0.95327  0.96910  1.0000
  C   C470      1.0  0.76656  0.99173  0.94745  1.0000
  H   H562      1.0  0.95516  0.99530  0.94439  1.0000
  C   C471      1.0  0.66544  0.51921  0.50925  1.0000
  H   H563      1.0  0.76960  0.52107  0.85699  1.0000
  H   H564      1.0  0.85377  0.97034  0.93450  1.0000
  H   H565      1.0  0.67005  0.99811  0.53833  1.0000
  C   C472      1.0  0.58715  0.54692  0.51326  1.0000
  H   H566      1.0  0.79070  0.93674  0.89527  1.0000
  H   H567      1.0  0.87047  0.55096  0.93604  1.0000
  C   C473      1.0  0.66867  0.96706  0.49502  1.0000
  C   C474      1.0  0.78277  0.95824  0.90253  1.0000
  H   H568      1.0  0.58827  0.56870  0.52472  1.0000
  H   H569      1.0  0.73928  0.53048  0.48290  1.0000
  C   C475      1.0  0.78022  0.98033  0.87701  1.0000
  C   C476      1.0  0.51352  0.99402  0.56470  1.0000
  C   C477      1.0  0.86473  0.53316  0.95380  1.0000
  H   H570      1.0  0.77885  0.94707  0.95764  1.0000
  C   C478      1.0  0.84532  0.98744  0.95130  1.0000
  H   H571      1.0  0.52657  0.98457  0.54381  1.0000
  H   H572      1.0  0.74405  0.96817  0.49904  1.0000
  H   H573      1.0  0.80997  0.51569  0.81205  1.0000
  H   H574      1.0  0.76229  0.99631  0.97507  1.0000
  C   C479      1.0  0.67320  0.99500  0.51027  1.0000
  H   H575      1.0  0.76008  0.00349  0.81417  1.0000
  C   C480      1.0  0.59163  0.54350  0.47715  1.0000
  H   H576      1.0  0.55715  0.99421  0.47801  1.0000
