data_image0
_chemical_formula_structural       S2HFeS2FeS2FeCFeS3C2HC3H2C7H5CHC2H3CNHC3NH2CH4FeH2C3H4CHCNC6HCH12SCHC3H2C5H2CHCNCHCHS2H9C2FeS2FeS2FeSFeS3HS2C5H2C6H6CH6C2H6NC9H13CNCHCH2CHFeCHC4HCHCH2CH2CNH2CHCSH2CHC2H2CH2C5H2SFeS2FeS2FeSFeS3C6H2C3H3C2HSHC6H5C4HCHCH2C2H2CNC8H12CNCSHC3HCHCH6CH2CH6C2H2C3H3C2HFeS2FeS2FeSFeS3CHCH2C6H4C4H5C2HC3H2NSCH6CH5C2NHC2HFeH2SC3HCHCH5C2SCNHCH4C2H7C2H3CH3FeHSHS3HFeS2H3S2NC3FeHC2FeC6H3CSHC2HCH5CHFeHCH2C3H2FeHC2HCHC2HSHS2HFeSHSFeS2C2SH3CH3C6H4SH5SNHC2HCHC3HFeCNHCHFeHC2HCHFeCH2CHC2H2CFeS2CSFeS2H2CH2FeS3C6H5C2H5CHNH5C2H2SCH2C2H6NC8H2CH2CHCFeH3FeCHC2NHCFeCS2HS2FeS2FeCHS2HC2HC6H4CN2H4C2HSH2CHCH2C3HFeHCH3CH4CHC2FeC2H2CH2C2HCHCHCH2CHSHSHCFeS2FeSHFeSFeS3H2CHC2SH4C3HC7H4C4H6NCHSH3C3H2C2H2C2HCH5C2HNC9H3CH2CHC2H2C2HFeH2CH2FeS2FeS2FeSFeS3HSHCSHC4NH2C6H5C3HCHCHCH3C3HCH2C3H2CH2CH2CFeCH2NHC2HSCHCHCHCHCH4FeH2CH2C2H4C2HCH2S2FeSHFeS2FeSFeS3C2HCH3C2H2C2H3FeCHC6H4C2SH2C2SCHCHC3NCH3FeH2CH5SHCHCNC5H2CH10CHCHNCHC4H2CH3C2FeH4C2HCFeS2FeS2FeSFeS4HCHC6H4NC4HCH2C2HCSH4CH3NC2HC4HNC2FeH2CHCHCHCHCSHC3H2C2H4C2H4NCH2CFeNH3CH3C3HC2H2C2H3C2H3CH2CH7C2SHCH
_chemical_formula_sum              "S128 H576 Fe64 C480 N32"
_cell_length_a       38.783
_cell_length_b       37.1768
_cell_length_c       38.2087
_cell_angle_alpha    89.6931
_cell_angle_beta     92.1962
_cell_angle_gamma    92.1675

_space_group_name_H-M_alt    "P 1"
_space_group_IT_number       1

loop_
  _space_group_symop_operation_xyz
  'x, y, z'

loop_
  _atom_site_type_symbol
  _atom_site_label
  _atom_site_symmetry_multiplicity
  _atom_site_fract_x
  _atom_site_fract_y
  _atom_site_fract_z
  _atom_site_occupancy
  S   S1        1.0  0.30063  0.35180  0.33716  1.0000
  S   S2        1.0  0.29289  0.25264  0.29810  1.0000
  H   H1        1.0  0.21885  0.45609  0.41288  1.0000
  Fe  Fe1       1.0  0.19327  0.17300  0.13203  1.0000
  S   S3        1.0  0.15591  0.17619  0.08545  1.0000
  S   S4        1.0  0.22289  0.22483  0.14703  1.0000
  Fe  Fe2       1.0  0.17607  0.09255  0.14514  1.0000
  S   S5        1.0  0.13693  0.09061  0.10004  1.0000
  S   S6        1.0  0.19624  0.04681  0.18038  1.0000
  Fe  Fe3       1.0  0.17687  0.12300  0.06981  1.0000
  C   C1        1.0  0.27805  0.25239  0.47808  1.0000
  Fe  Fe4       1.0  0.11944  0.14436  0.11920  1.0000
  S   S7        1.0  0.06362  0.15708  0.13153  1.0000
  S   S8        1.0  0.21666  0.12234  0.11398  1.0000
  S   S9        1.0  0.15608  0.14381  0.16658  1.0000
  C   C2        1.0  0.03564  0.19273  0.11970  1.0000
  C   C3        1.0  0.04253  0.21695  0.09243  1.0000
  H   H2        1.0  0.06529  0.21407  0.07735  1.0000
  C   C4        1.0  0.04471  0.31325  0.13715  1.0000
  C   C5        1.0  0.27226  0.45262  0.43390  1.0000
  C   C6        1.0  0.22035  0.25670  0.45215  1.0000
  H   H3        1.0  0.02554  0.32166  0.22240  1.0000
  H   H4        1.0  0.27931  0.30146  0.40132  1.0000
  C   C7        1.0  0.30607  0.23788  0.41175  1.0000
  C   C8        1.0  0.24242  0.23192  0.18908  1.0000
  C   C9        1.0  0.26071  0.26459  0.19616  1.0000
  C   C10       1.0  0.27632  0.27137  0.22946  1.0000
  C   C11       1.0  0.27358  0.24549  0.25597  1.0000
  C   C12       1.0  0.25537  0.21279  0.24890  1.0000
  C   C13       1.0  0.23980  0.20600  0.21558  1.0000
  H   H5        1.0  0.26279  0.28478  0.17575  1.0000
  H   H6        1.0  0.29028  0.29667  0.23460  1.0000
  H   H7        1.0  0.25323  0.19257  0.26925  1.0000
  H   H8        1.0  0.22583  0.18072  0.21040  1.0000
  H   H9        1.0  0.29711  0.40243  0.39443  1.0000
  C   C14       1.0  0.29117  0.34979  0.46374  1.0000
  H   H10       1.0  0.18005  0.00751  0.07243  1.0000
  C   C15       1.0  0.22883  0.35388  0.46763  1.0000
  C   C16       1.0  0.25852  0.35336  0.44742  1.0000
  H   H11       1.0  0.31565  0.11024  0.04160  1.0000
  H   H12       1.0  0.20373  0.35639  0.45470  1.0000
  H   H13       1.0  0.25597  0.35590  0.41928  1.0000
  C   C17       1.0  0.00540  0.19669  0.13841  1.0000
  N   N1        1.0  0.26874  0.24558  0.41191  1.0000
  H   H14       1.0  0.25967  0.20891  0.36852  1.0000
  C   C18       1.0  0.26350  0.27834  0.39043  1.0000
  C   C19       1.0  0.29133  0.44649  0.46572  1.0000
  C   C20       1.0  0.25594  0.25124  0.44746  1.0000
  N   N2        1.0  0.23495  0.01697  0.06685  1.0000
  H   H15       1.0  0.25500  0.00357  0.01681  1.0000
  H   H16       1.0  0.30059  0.08466  0.14964  1.0000
  C   C21       1.0  0.26687  0.46303  0.36962  1.0000
  H   H17       1.0  0.23616  0.28623  0.38896  1.0000
  H   H18       1.0  0.25014  0.43834  0.36511  1.0000
  H   H19       1.0  0.27342  0.06413  0.02341  1.0000
  H   H20       1.0  0.32245  0.26107  0.42208  1.0000
  Fe  Fe5       1.0  0.32375  0.30388  0.31287  1.0000
  H   H21       1.0  0.31197  0.21345  0.42750  1.0000
  H   H22       1.0  0.18061  0.26780  0.48831  1.0000
  C   C22       1.0  0.27044  0.05228  0.11228  1.0000
  C   C23       1.0  0.29503  0.07918  0.12211  1.0000
  C   C24       1.0  0.23045  0.01121  0.02844  1.0000
  H   H23       1.0  0.24919  0.15434  0.02332  1.0000
  H   H24       1.0  0.22168  0.22010  0.38984  1.0000
  H   H25       1.0  0.20210  0.25735  0.43011  1.0000
  H   H26       1.0  0.20161  0.02975  0.10883  1.0000
  C   C25       1.0  0.01965  0.24480  0.08433  1.0000
  H   H27       1.0  0.03495  0.32083  0.11123  1.0000
  C   C26       1.0  0.17702  0.00595  0.19671  1.0000
  N   N3        1.0  0.11422  0.25478  0.17931  1.0000
  C   C27       1.0  0.14330  0.27318  0.19920  1.0000
  C   C28       1.0  0.10252  0.22241  0.19919  1.0000
  C   C29       1.0  0.12776  0.24207  0.14589  1.0000
  C   C30       1.0  0.08531  0.27949  0.17439  1.0000
  C   C31       1.0  0.06791  0.29195  0.20379  1.0000
  C   C32       1.0  0.07325  0.29147  0.14085  1.0000
  H   H28       1.0  0.25117  0.18999  0.41103  1.0000
  C   C33       1.0  0.24945  0.21482  0.39472  1.0000
  H   H29       1.0  0.28143  0.46724  0.34519  1.0000
  H   H30       1.0  0.16595  0.25561  0.20239  1.0000
  H   H31       1.0  0.15232  0.29801  0.18531  1.0000
  H   H32       1.0  0.13614  0.28102  0.22588  1.0000
  H   H33       1.0  0.12285  0.20214  0.20153  1.0000
  H   H34       1.0  0.07938  0.20904  0.18591  1.0000
  H   H35       1.0  0.09562  0.22867  0.22632  1.0000
  H   H36       1.0  0.13886  0.26462  0.13013  1.0000
  H   H37       1.0  0.14904  0.22321  0.15056  1.0000
  H   H38       1.0  0.10741  0.22713  0.12991  1.0000
  H   H39       1.0  0.07597  0.28450  0.23011  1.0000
  H   H40       1.0  0.08462  0.28349  0.11689  1.0000
  S   S10       1.0  0.18849  0.10478  0.01407  1.0000
  C   C34       1.0  0.02736  0.32371  0.16639  1.0000
  H   H41       1.0  0.02532  0.26335  0.06323  1.0000
  C   C35       1.0  0.26161  0.04516  0.07649  1.0000
  C   C36       1.0  0.20124  0.02734  0.07985  1.0000
  C   C37       1.0  0.23564  0.45216  0.43563  1.0000
  H   H42       1.0  0.19398  0.05387  0.06889  1.0000
  H   H43       1.0  0.27136  0.27462  0.36306  1.0000
  C   C38       1.0  0.03918  0.31346  0.19971  1.0000
  C   C39       1.0  0.21943  0.44574  0.46730  1.0000
  C   C40       1.0  0.29364  0.34774  0.50057  1.0000
  C   C41       1.0  0.31141  0.09988  0.09670  1.0000
  C   C42       1.0  0.20767  0.26249  0.48535  1.0000
  H   H44       1.0  0.31461  0.23304  0.38469  1.0000
  H   H45       1.0  0.25041  0.48668  0.37198  1.0000
  C   C43       1.0  0.31251  0.42823  0.39406  1.0000
  H   H46       1.0  0.30563  0.24988  0.47719  1.0000
  C   C44       1.0  0.27884  0.06680  0.05122  1.0000
  N   N4        1.0  0.29045  0.45894  0.40088  1.0000
  C   C45       1.0  0.30334  0.09367  0.06137  1.0000
  H   H47       1.0  0.25747  0.03800  0.13306  1.0000
  C   C46       1.0  0.31275  0.49213  0.40399  1.0000
  H   H48       1.0  0.32457  0.43074  0.36811  1.0000
  S   S11       1.0  0.32970  0.34793  0.43969  1.0000
  S   S12       1.0  0.32229  0.43911  0.28825  1.0000
  H   H49       1.0  0.13176  0.00528  0.16234  1.0000
  H   H50       1.0  0.00439  0.33932  0.16300  1.0000
  H   H51       1.0  0.22113  0.03581  0.01483  1.0000
  H   H52       1.0  0.32993  0.12121  0.10439  1.0000
  H   H53       1.0  0.01036  0.00570  0.20962  1.0000
  H   H54       1.0  0.19148  0.44446  0.46808  1.0000
  H   H55       1.0  0.31917  0.44571  0.46642  1.0000
  H   H56       1.0  0.99959  0.17806  0.15940  1.0000
  H   H57       1.0  0.21892  0.99809  0.23438  1.0000
  C   C47       1.0  0.27482  0.44012  0.49718  1.0000
  C   C48       1.0  0.23896  0.43974  0.49796  1.0000
  Fe  Fe6       1.0  0.13170  0.31680  0.63994  1.0000
  S   S13       1.0  0.15775  0.34773  0.68508  1.0000
  S   S14       1.0  0.08432  0.28300  0.65736  1.0000
  Fe  Fe7       1.0  0.18348  0.34942  0.58751  1.0000
  S   S15       1.0  0.21214  0.38291  0.62890  1.0000
  S   S16       1.0  0.19267  0.35236  0.52836  1.0000
  Fe  Fe8       1.0  0.20759  0.33259  0.66214  1.0000
  S   S17       1.0  0.25345  0.31806  0.69757  1.0000
  Fe  Fe9       1.0  0.16021  0.39570  0.64929  1.0000
  S   S18       1.0  0.14108  0.45181  0.66230  1.0000
  S   S19       1.0  0.18200  0.29804  0.61959  1.0000
  S   S20       1.0  0.13128  0.36586  0.60521  1.0000
  H   H58       1.0  0.03220  0.33628  0.62699  1.0000
  S   S21       1.0  0.26683  0.15784  0.75249  1.0000
  S   S22       1.0  0.29872  0.09618  0.82381  1.0000
  C   C49       1.0  0.27938  0.14754  0.97735  1.0000
  C   C50       1.0  0.28231  0.12973  0.94521  1.0000
  C   C51       1.0  0.25661  0.10406  0.93496  1.0000
  C   C52       1.0  0.22835  0.09661  0.95651  1.0000
  C   C53       1.0  0.23125  0.35151  0.50444  1.0000
  H   H59       1.0  0.25853  0.08989  0.91051  1.0000
  H   H60       1.0  0.20855  0.07688  0.94817  1.0000
  C   C54       1.0  0.25521  0.27404  0.71481  1.0000
  C   C55       1.0  0.23231  0.24660  0.70260  1.0000
  C   C56       1.0  0.23586  0.21118  0.71486  1.0000
  C   C57       1.0  0.26234  0.20296  0.73929  1.0000
  C   C58       1.0  0.28475  0.23052  0.75228  1.0000
  C   C59       1.0  0.28108  0.26602  0.74012  1.0000
  H   H61       1.0  0.21218  0.25256  0.68328  1.0000
  H   H62       1.0  0.21827  0.19004  0.70491  1.0000
  H   H63       1.0  0.30529  0.22441  0.77103  1.0000
  H   H64       1.0  0.29885  0.28720  0.74960  1.0000
  H   H65       1.0  0.29908  0.16741  0.98565  1.0000
  H   H66       1.0  0.27282  0.00382  0.75319  1.0000
  C   C60       1.0  0.17082  0.46836  0.72836  1.0000
  H   H67       1.0  0.09439  0.39455  0.68519  1.0000
  H   H68       1.0  0.18282  0.44258  0.72752  1.0000
  H   H69       1.0  0.19352  0.48236  0.77921  1.0000
  H   H70       1.0  0.28798  0.08305  0.74765  1.0000
  H   H71       1.0  0.26631  0.34696  0.54909  1.0000
  H   H72       1.0  0.28233  0.25959  0.53410  1.0000
  C   C61       1.0  0.04839  0.25871  0.63698  1.0000
  C   C62       1.0  0.04458  0.25428  0.60067  1.0000
  H   H73       1.0  0.22622  0.08651  0.75165  1.0000
  H   H74       1.0  0.18123  0.26038  0.95610  1.0000
  H   H75       1.0  0.06407  0.26562  0.58390  1.0000
  H   H76       1.0  0.05785  0.39020  0.61082  1.0000
  H   H77       1.0  0.06421  0.44767  0.68848  1.0000
  H   H78       1.0  0.22618  0.43352  0.52218  1.0000
  N   N5        1.0  0.23852  0.20648  0.86579  1.0000
  C   C63       1.0  0.22365  0.22934  0.83748  1.0000
  C   C64       1.0  0.27267  0.22234  0.87759  1.0000
  C   C65       1.0  0.24454  0.17075  0.85039  1.0000
  C   C66       1.0  0.21523  0.20478  0.89566  1.0000
  C   C67       1.0  0.20745  0.23671  0.91355  1.0000
  C   C68       1.0  0.19999  0.17198  0.90813  1.0000
  C   C69       1.0  0.18643  0.23574  0.94252  1.0000
  C   C70       1.0  0.17884  0.17139  0.93700  1.0000
  C   C71       1.0  0.17233  0.20309  0.95434  1.0000
  H   H79       1.0  0.22143  0.25775  0.84570  1.0000
  H   H80       1.0  0.23980  0.23002  0.81393  1.0000
  H   H81       1.0  0.19736  0.21901  0.82887  1.0000
  H   H82       1.0  0.29136  0.22283  0.85620  1.0000
  H   H83       1.0  0.28406  0.20648  0.89974  1.0000
  H   H84       1.0  0.27119  0.25054  0.88665  1.0000
  H   H85       1.0  0.25701  0.15254  0.86995  1.0000
  H   H86       1.0  0.22012  0.15758  0.83979  1.0000
  H   H87       1.0  0.26210  0.17303  0.82804  1.0000
  H   H88       1.0  0.21788  0.26267  0.90549  1.0000
  H   H89       1.0  0.20439  0.14626  0.89650  1.0000
  H   H90       1.0  0.02518  0.24691  0.68633  1.0000
  H   H91       1.0  0.28687  0.08653  0.70081  1.0000
  C   C72       1.0  0.01568  0.23458  0.58599  1.0000
  N   N6        1.0  0.25124  0.04673  0.72138  1.0000
  C   C73       1.0  0.25018  0.02132  0.75153  1.0000
  H   H92       1.0  0.31332  0.26845  0.65851  1.0000
  C   C74       1.0  0.22358  0.07278  0.72575  1.0000
  H   H93       1.0  0.22490  0.09492  0.70601  1.0000
  H   H94       1.0  0.20364  0.02332  0.60823  1.0000
  C   C75       1.0  0.02262  0.24363  0.65823  1.0000
  H   H95       1.0  0.07623  0.43016  0.63034  1.0000
  Fe  Fe10      1.0  0.31198  0.14161  0.78730  1.0000
  C   C76       1.0  0.07050  0.37781  0.67921  1.0000
  H   H96       1.0  0.20576  0.05648  0.66282  1.0000
  C   C77       1.0  0.22529  0.11469  0.98852  1.0000
  C   C78       1.0  0.28472  0.06725  0.72309  1.0000
  C   C79       1.0  0.05232  0.41257  0.62871  1.0000
  C   C80       1.0  0.24805  0.02673  0.68791  1.0000
  H   H97       1.0  0.22646  0.00352  0.74996  1.0000
  C   C81       1.0  0.01020  0.37667  0.66011  1.0000
  H   H98       1.0  0.25090  0.03575  0.77705  1.0000
  C   C82       1.0  0.14944  0.47913  0.70021  1.0000
  H   H99       1.0  0.03148  0.42829  0.61588  1.0000
  H   H100      1.0  0.30284  0.20253  0.65995  1.0000
  C   C83       1.0  0.26395  0.34870  0.52083  1.0000
  H   H101      1.0  0.07813  0.35649  0.66123  1.0000
  H   H102      1.0  0.19750  0.05924  0.72406  1.0000
  C   C84       1.0  0.25110  0.14015  0.99886  1.0000
  N   N7        1.0  0.04233  0.39942  0.66377  1.0000
  H   H103      1.0  0.16795  0.14602  0.94656  1.0000
  H   H104      1.0  0.01955  0.44978  0.67578  1.0000
  C   C85       1.0  0.22376  0.03524  0.66053  1.0000
  H   H105      1.0  0.30696  0.04940  0.72261  1.0000
  C   C86       1.0  0.03938  0.43141  0.68646  1.0000
  S   S23       1.0  0.31859  0.14061  0.91918  1.0000
  H   H106      1.0  0.28982  0.43426  0.52092  1.0000
  H   H107      1.0  0.03316  0.42338  0.71368  1.0000
  C   C87       1.0  0.22230  0.01641  0.62882  1.0000
  H   H108      1.0  0.31870  0.34520  0.51358  1.0000
  C   C88       1.0  0.00943  0.34482  0.63968  1.0000
  C   C89       1.0  0.32405  0.21474  0.67554  1.0000
  H   H109      1.0  0.06274  0.36424  0.70388  1.0000
  H   H110      1.0  0.01327  0.23096  0.55792  1.0000
  C   C90       1.0  0.26499  0.25795  0.51118  1.0000
  H   H111      1.0  0.22007  0.26864  0.54033  1.0000
  H   H112      1.0  0.15647  0.20220  0.97714  1.0000
  C   C91       1.0  0.17681  0.49102  0.75771  1.0000
  C   C92       1.0  0.22991  0.26296  0.51480  1.0000
  C   C93       1.0  0.27074  0.99867  0.68129  1.0000
  C   C94       1.0  0.33009  0.25189  0.67468  1.0000
  C   C95       1.0  0.02545  0.73085  0.30351  1.0000
  H   H113      1.0  0.00912  0.68392  0.27325  1.0000
  H   H114      1.0  0.29728  0.51581  0.40994  1.0000
  S   S24       1.0  0.31609  0.63282  0.14246  1.0000
  Fe  Fe11      1.0  0.16735  0.77999  0.29528  1.0000
  S   S25       1.0  0.19517  0.83417  0.30118  1.0000
  S   S26       1.0  0.18496  0.72953  0.26955  1.0000
  Fe  Fe12      1.0  0.10075  0.80358  0.32681  1.0000
  S   S27       1.0  0.12343  0.85971  0.33537  1.0000
  S   S28       1.0  0.04516  0.79163  0.34305  1.0000
  Fe  Fe13      1.0  0.14470  0.85690  0.28153  1.0000
  S   S29       1.0  0.13244  0.89644  0.23651  1.0000
  Fe  Fe14      1.0  0.17217  0.83329  0.35491  1.0000
  S   S30       1.0  0.19467  0.85437  0.40756  1.0000
  S   S31       1.0  0.11863  0.80232  0.27194  1.0000
  S   S32       1.0  0.14782  0.77751  0.35001  1.0000
  C   C96       1.0  0.24417  0.98211  0.08314  1.0000
  C   C97       1.0  0.27612  0.64733  0.29133  1.0000
  C   C98       1.0  0.23591  0.85627  0.46795  1.0000
  C   C99       1.0  0.23206  0.84324  0.43340  1.0000
  C   C100      1.0  0.25777  0.82194  0.42066  1.0000
  C   C101      1.0  0.28701  0.81411  0.44215  1.0000
  H   H115      1.0  0.21626  0.87286  0.47802  1.0000
  H   H116      1.0  0.25531  0.81186  0.39416  1.0000
  C   C102      1.0  0.26503  0.84822  0.48950  1.0000
  C   C103      1.0  0.01224  0.98109  0.22484  1.0000
  C   C104      1.0  0.01636  0.75575  0.32855  1.0000
  H   H117      1.0  0.20258  0.76526  0.42765  1.0000
  H   H118      1.0  0.24410  0.71808  0.33403  1.0000
  H   H119      1.0  0.30690  0.79794  0.43190  1.0000
  C   C105      1.0  0.14997  0.93905  0.22262  1.0000
  C   C106      1.0  0.18112  0.95398  0.23663  1.0000
  H   H120      1.0  0.06767  0.98514  0.23016  1.0000
  S   S33       1.0  0.32433  0.73271  0.18854  1.0000
  H   H121      1.0  0.19491  0.94004  0.25743  1.0000
  C   C107      1.0  0.28588  0.73045  0.21149  1.0000
  C   C108      1.0  0.26098  0.70269  0.20592  1.0000
  C   C109      1.0  0.23024  0.70244  0.22425  1.0000
  C   C110      1.0  0.22403  0.73025  0.24763  1.0000
  C   C111      1.0  0.24891  0.75801  0.25309  1.0000
  C   C112      1.0  0.27988  0.75787  0.23531  1.0000
  H   H122      1.0  0.26519  0.68168  0.18726  1.0000
  H   H123      1.0  0.21100  0.68092  0.21996  1.0000
  H   H124      1.0  0.24455  0.77930  0.27139  1.0000
  H   H125      1.0  0.29922  0.77922  0.23994  1.0000
  H   H126      1.0  0.25135  0.66764  0.04908  1.0000
  C   C113      1.0  0.04705  0.93788  0.25609  1.0000
  C   C114      1.0  0.24799  0.65647  0.02304  1.0000
  C   C115      1.0  0.15756  0.77681  0.45572  1.0000
  C   C116      1.0  0.14374  0.78104  0.48846  1.0000
  H   H127      1.0  0.31592  0.54703  0.21272  1.0000
  C   C117      1.0  0.29086  0.82717  0.47667  1.0000
  H   H128      1.0  0.30394  0.74164  0.32747  1.0000
  C   C118      1.0  0.28948  0.87841  0.21426  1.0000
  H   H129      1.0  0.06305  0.90503  0.31872  1.0000
  H   H130      1.0  0.10834  0.94659  0.18452  1.0000
  C   C119      1.0  0.14565  0.99120  0.18299  1.0000
  C   C120      1.0  0.27340  0.63485  0.01017  1.0000
  H   H131      1.0  0.05078  0.73295  0.29260  1.0000
  H   H132      1.0  0.11709  0.78846  0.49011  1.0000
  C   C121      1.0  0.04446  0.96953  0.23643  1.0000
  N   N8        1.0  0.19879  0.81728  0.17633  1.0000
  C   C122      1.0  0.17875  0.83936  0.15094  1.0000
  C   C123      1.0  0.20616  0.78287  0.15897  1.0000
  C   C124      1.0  0.17689  0.80841  0.20637  1.0000
  C   C125      1.0  0.23024  0.83798  0.18878  1.0000
  C   C126      1.0  0.26422  0.82655  0.18330  1.0000
  C   C127      1.0  0.22738  0.87079  0.20712  1.0000
  C   C128      1.0  0.29327  0.84652  0.19605  1.0000
  C   C129      1.0  0.25658  0.89060  0.21966  1.0000
  H   H133      1.0  0.32645  0.49792  0.37931  1.0000
  H   H134      1.0  0.19471  0.84783  0.12853  1.0000
  H   H135      1.0  0.15530  0.82429  0.14033  1.0000
  H   H136      1.0  0.16944  0.86418  0.16314  1.0000
  H   H137      1.0  0.22137  0.78744  0.13513  1.0000
  H   H138      1.0  0.18205  0.76758  0.15053  1.0000
  H   H139      1.0  0.22057  0.76477  0.17714  1.0000
  H   H140      1.0  0.16613  0.83266  0.21797  1.0000
  H   H141      1.0  0.15440  0.79018  0.19888  1.0000
  H   H142      1.0  0.19188  0.79481  0.22758  1.0000
  H   H143      1.0  0.26925  0.80182  0.16998  1.0000
  H   H144      1.0  0.20243  0.88122  0.21226  1.0000
  C   C130      1.0  0.32014  0.69471  0.30041  1.0000
  N   N9        1.0  0.02097  0.88316  0.28547  1.0000
  C   C131      1.0  0.19467  0.98699  0.22349  1.0000
  S   S34       1.0  0.31222  0.62559  0.03461  1.0000
  H   H145      1.0  0.26679  0.62162  0.28101  1.0000
  C   C132      1.0  0.25259  0.66801  0.30845  1.0000
  C   C133      1.0  0.26276  0.70171  0.32174  1.0000
  C   C134      1.0  0.01731  0.91662  0.26465  1.0000
  H   H146      1.0  0.07070  0.86926  0.26671  1.0000
  C   C135      1.0  0.32104  0.63163  0.23145  1.0000
  H   H147      1.0  0.31819  0.65760  0.21723  1.0000
  C   C136      1.0  0.13242  0.95786  0.19568  1.0000
  H   H148      1.0  0.22594  0.65851  0.31046  1.0000
  H   H149      1.0  0.25359  0.91536  0.23396  1.0000
  H   H150      1.0  0.29543  0.61722  0.23039  1.0000
  H   H151      1.0  0.24362  0.98283  0.11223  1.0000
  H   H152      1.0  0.03979  0.86774  0.33713  1.0000
  H   H153      1.0  0.27054  0.97467  0.07602  1.0000
  C   C137      1.0  0.03682  0.89219  0.32043  1.0000
  H   H154      1.0  0.31888  0.83673  0.19224  1.0000
  H   H155      1.0  0.03430  0.85379  0.23980  1.0000
  C   C138      1.0  0.00173  0.70300  0.29261  1.0000
  H   H156      1.0  0.23944  0.75763  0.47955  1.0000
  H   H157      1.0  0.07267  0.93015  0.26453  1.0000
  H   H158      1.0  0.31206  0.89357  0.22443  1.0000
  H   H159      1.0  0.22568  0.95990  0.07475  1.0000
  H   H160      1.0  0.04484  0.83189  0.28058  1.0000
  H   H161      1.0  0.14190  0.78141  0.43209  1.0000
  C   C139      1.0  0.29645  0.71498  0.31781  1.0000
  C   C140      1.0  0.04363  0.85858  0.26734  1.0000
  H   H162      1.0  0.02080  0.91109  0.33465  1.0000
  H   H163      1.0  0.19867  0.68031  0.01242  1.0000
  C   C141      1.0  0.21278  0.76333  0.48355  1.0000
  C   C142      1.0  0.19183  0.76760  0.45330  1.0000
  C   C143      1.0  0.31065  0.66008  0.28666  1.0000
  H   H164      1.0  0.31394  0.58608  0.28457  1.0000
  H   H165      1.0  0.00745  0.53859  0.28155  1.0000
  H   H166      1.0  0.21071  0.98951  0.02201  1.0000
  C   C144      1.0  0.31938  0.49949  0.24565  1.0000
  C   C145      1.0  0.21811  0.66359  0.00215  1.0000
  H   H167      1.0  0.29213  0.49834  0.25080  1.0000
  Fe  Fe15      1.0  0.10984  0.67204  0.82444  1.0000
  S   S35       1.0  0.12029  0.62161  0.85611  1.0000
  S   S36       1.0  0.05409  0.68689  0.80911  1.0000
  Fe  Fe16      1.0  0.18681  0.68723  0.81446  1.0000
  S   S37       1.0  0.20234  0.63806  0.84438  1.0000
  S   S38       1.0  0.23137  0.72541  0.80170  1.0000
  Fe  Fe17      1.0  0.15821  0.60926  0.81458  1.0000
  S   S39       1.0  0.17179  0.55277  0.79650  1.0000
  Fe  Fe18      1.0  0.16408  0.65401  0.88322  1.0000
  S   S40       1.0  0.17608  0.66128  0.94213  1.0000
  S   S41       1.0  0.14570  0.65775  0.78143  1.0000
  S   S42       1.0  0.15041  0.70508  0.85465  1.0000
  C   C146      1.0  0.23049  0.62857  0.75113  1.0000
  H   H168      1.0  0.28711  0.95900  0.64509  1.0000
  C   C147      1.0  0.22847  0.74717  0.93280  1.0000
  H   H169      1.0  0.20825  0.61576  0.76470  1.0000
  H   H170      1.0  0.24389  0.64708  0.77054  1.0000
  C   C148      1.0  0.24162  0.73511  0.75814  1.0000
  C   C149      1.0  0.27222  0.75498  0.75165  1.0000
  C   C150      1.0  0.28220  0.76153  0.71716  1.0000
  C   C151      1.0  0.26169  0.74795  0.68906  1.0000
  C   C152      1.0  0.23079  0.72856  0.69553  1.0000
  C   C153      1.0  0.22060  0.72240  0.73001  1.0000
  H   H171      1.0  0.28851  0.76496  0.77336  1.0000
  H   H172      1.0  0.30606  0.77644  0.71236  1.0000
  H   H173      1.0  0.21480  0.71809  0.67382  1.0000
  H   H174      1.0  0.19672  0.70756  0.73483  1.0000
  C   C154      1.0  0.21333  0.64956  0.96803  1.0000
  C   C155      1.0  0.23864  0.62777  0.95527  1.0000
  C   C156      1.0  0.24496  0.98895  0.62333  1.0000
  C   C157      1.0  0.31773  0.66844  0.69684  1.0000
  H   H175      1.0  0.23208  0.77272  0.94772  1.0000
  H   H176      1.0  0.25939  0.79797  0.89347  1.0000
  H   H177      1.0  0.23532  0.61648  0.92927  1.0000
  H   H178      1.0  0.24441  0.56857  0.78403  1.0000
  H   H179      1.0  0.27253  0.75203  0.56924  1.0000
  C   C158      1.0  0.02855  0.72467  0.81778  1.0000
  C   C159      1.0  0.04038  0.75291  0.83971  1.0000
  H   H180      1.0  0.06632  0.75283  0.85117  1.0000
  C   C160      1.0  0.14006  0.53548  0.73135  1.0000
  C   C161      1.0  0.16149  0.52469  0.75949  1.0000
  C   C162      1.0  0.01854  0.78133  0.84699  1.0000
  H   H181      1.0  0.12821  0.56133  0.73214  1.0000
  H   H182      1.0  0.02808  0.80304  0.86390  1.0000
  N   N10       1.0  0.25752  0.74209  0.90933  1.0000
  S   S43       1.0  0.32834  0.81639  0.50253  1.0000
  C   C163      1.0  0.25595  0.77060  0.88196  1.0000
  H   H183      1.0  0.27072  0.77634  0.52911  1.0000
  H   H184      1.0  0.32988  0.93673  0.77234  1.0000
  H   H185      1.0  0.22180  0.72960  0.59607  1.0000
  H   H186      1.0  0.28181  0.55715  0.76148  1.0000
  H   H187      1.0  0.11757  0.52153  0.68035  1.0000
  H   H188      1.0  0.20319  0.74755  0.91791  1.0000
  C   C164      1.0  0.23293  0.57688  0.71439  1.0000
  H   H189      1.0  0.21937  0.64477  0.72919  1.0000
  H   H190      1.0  0.23057  0.76966  0.86715  1.0000
  H   H191      1.0  0.26788  0.85897  0.51572  1.0000
  H   H192      1.0  0.02824  0.64117  0.89491  1.0000
  H   H193      1.0  0.27312  0.70193  0.87336  1.0000
  C   C165      1.0  0.29004  0.65461  0.71578  1.0000
  C   C166      1.0  0.32643  0.71653  0.97769  1.0000
  N   N11       1.0  0.25387  0.60122  0.73824  1.0000
  H   H194      1.0  0.27563  0.76700  0.86188  1.0000
  C   C167      1.0  0.20560  0.73445  0.57191  1.0000
  C   C168      1.0  0.26916  0.98013  0.64951  1.0000
  H   H195      1.0  0.32158  0.69737  0.69370  1.0000
  Fe  Fe19      1.0  0.31899  0.79078  0.63129  1.0000
  H   H196      1.0  0.24680  0.55260  0.70709  1.0000
  H   H197      1.0  0.01340  0.61024  0.84309  1.0000
  S   S44       1.0  0.30480  0.84116  0.60202  1.0000
  C   C169      1.0  0.31885  0.76662  0.92334  1.0000
  C   C170      1.0  0.28372  0.61689  0.71957  1.0000
  C   C171      1.0  0.25201  0.70697  0.89145  1.0000
  H   H198      1.0  0.22731  0.70588  0.87571  1.0000
  C   C172      1.0  0.22172  0.79779  0.57020  1.0000
  H   H199      1.0  0.99790  0.87149  0.76969  1.0000
  C   C173      1.0  0.13410  0.51282  0.70196  1.0000
  H   H200      1.0  0.22489  0.59109  0.68986  1.0000
  H   H201      1.0  0.23234  0.82053  0.55432  1.0000
  H   H202      1.0  0.20312  0.70872  0.55712  1.0000
  H   H203      1.0  0.28258  0.59749  0.78732  1.0000
  H   H204      1.0  0.27393  0.67412  0.72704  1.0000
  C   C174      1.0  0.26839  0.62049  0.97622  1.0000
  C   C175      1.0  0.30746  0.59411  0.70417  1.0000
  S   S45       1.0  0.27465  0.75284  0.64564  1.0000
  C   C176      1.0  0.26632  0.58021  0.76901  1.0000
  N   N12       1.0  0.22086  0.76368  0.55015  1.0000
  H   H205      1.0  0.20901  0.56659  0.72679  1.0000
  C   C177      1.0  0.19957  0.76771  0.51743  1.0000
  H   H206      1.0  0.25046  0.68407  0.91010  1.0000
  H   H207      1.0  0.27541  0.69774  0.96414  1.0000
  H   H208      1.0  0.15244  0.78021  0.54368  1.0000
  H   H209      1.0  0.22555  0.72491  0.95210  1.0000
  C   C178      1.0  0.29548  0.71727  0.95779  1.0000
  C   C179      1.0  0.00578  0.65860  0.89003  1.0000
  H   H210      1.0  0.28777  0.60363  0.96600  1.0000
  H   H211      1.0  0.23820  0.79600  0.59462  1.0000
  H   H212      1.0  0.19582  0.80513  0.57851  1.0000
  H   H213      1.0  0.17963  0.74078  0.58089  1.0000
  H   H214      1.0  0.25882  0.72885  0.53004  1.0000
  H   H215      1.0  0.30455  0.56516  0.70634  1.0000
  H   H216      1.0  0.32942  0.69680  0.99860  1.0000
  C   C180      1.0  0.29061  0.74234  0.93006  1.0000
  C   C181      1.0  0.16429  0.77641  0.51892  1.0000
  H   H217      1.0  0.29026  0.99107  0.70050  1.0000
  H   H218      1.0  0.31782  0.78638  0.90257  1.0000
  H   H219      1.0  0.24398  0.97460  0.59865  1.0000
  C   C182      1.0  0.25720  0.75476  0.54417  1.0000
  H   H220      1.0  0.01796  0.81023  0.76946  1.0000
  H   H221      1.0  0.01547  0.68138  0.87372  1.0000
  H   H222      1.0  0.99882  0.66925  0.91587  1.0000
  Fe  Fe20      1.0  0.60281  0.16891  0.33098  1.0000
  H   H223      1.0  0.36593  0.17843  0.27229  1.0000
  S   S46       1.0  0.54610  0.17968  0.34220  1.0000
  H   H224      1.0  0.39320  0.24046  0.19836  1.0000
  S   S47       1.0  0.65129  0.04882  0.29230  1.0000
  S   S48       1.0  0.63175  0.12503  0.35973  1.0000
  S   S49       1.0  0.61745  0.14959  0.27790  1.0000
  H   H225      1.0  0.56259  0.25331  0.31706  1.0000
  Fe  Fe21      1.0  0.39786  0.33063  0.32925  1.0000
  S   S50       1.0  0.38044  0.38101  0.35548  1.0000
  S   S51       1.0  0.45496  0.31970  0.32110  1.0000
  H   H226      1.0  0.33957  0.20866  0.24858  1.0000
  H   H227      1.0  0.33408  0.42570  0.41382  1.0000
  H   H228      1.0  0.39268  0.45469  0.26400  1.0000
  S   S52       1.0  0.36093  0.29499  0.35851  1.0000
  S   S53       1.0  0.36165  0.33713  0.28188  1.0000
  N   N13       1.0  0.39358  0.22562  0.25292  1.0000
  C   C183      1.0  0.62921  0.33547  0.04428  1.0000
  C   C184      1.0  0.45798  0.23592  0.25034  1.0000
  C   C185      1.0  0.42884  0.21173  0.25201  1.0000
  Fe  Fe22      1.0  0.34003  0.34525  0.38094  1.0000
  H   H229      1.0  0.45522  0.26476  0.24990  1.0000
  C   C186      1.0  0.46942  0.16254  0.25725  1.0000
  C   C187      1.0  0.34068  0.47286  0.26016  1.0000
  Fe  Fe23      1.0  0.66424  0.18674  0.28578  1.0000
  C   C188      1.0  0.52187  0.21957  0.33770  1.0000
  C   C189      1.0  0.48705  0.21845  0.34712  1.0000
  C   C190      1.0  0.46646  0.24891  0.34305  1.0000
  C   C191      1.0  0.48026  0.28094  0.32898  1.0000
  C   C192      1.0  0.51518  0.28221  0.31993  1.0000
  C   C193      1.0  0.53589  0.25186  0.32436  1.0000
  H   H230      1.0  0.47595  0.19377  0.35770  1.0000
  H   H231      1.0  0.44001  0.24759  0.35095  1.0000
  H   H232      1.0  0.52630  0.30680  0.30920  1.0000
  C   C194      1.0  0.49734  0.18703  0.25526  1.0000
  S   S54       1.0  0.64778  0.20850  0.33698  1.0000
  H   H233      1.0  0.51346  0.24263  0.25100  1.0000
  C   C195      1.0  0.36573  0.19710  0.24943  1.0000
  C   C196      1.0  0.38761  0.25209  0.22422  1.0000
  H   H234      1.0  0.58545  0.34122  0.00972  1.0000
  C   C197      1.0  0.37583  0.47471  0.25300  1.0000
  H   H235      1.0  0.36386  0.25454  0.28900  1.0000
  H   H236      1.0  0.47422  0.13423  0.26114  1.0000
  H   H237      1.0  0.56880  0.03349  0.27750  1.0000
  H   H238      1.0  0.36787  0.18141  0.22494  1.0000
  H   H239      1.0  0.52356  0.17785  0.25797  1.0000
  C   C198      1.0  0.49159  0.22358  0.25139  1.0000
  H   H240      1.0  0.40370  0.27729  0.22779  1.0000
  Fe  Fe24      1.0  0.34193  0.38528  0.31001  1.0000
  H   H241      1.0  0.39448  0.22504  0.30919  1.0000
  C   C199      1.0  0.38998  0.24381  0.28683  1.0000
  H   H242      1.0  0.36039  0.26087  0.22290  1.0000
  H   H243      1.0  0.41528  0.15410  0.25795  1.0000
  C   C200      1.0  0.43558  0.17448  0.25554  1.0000
  C   C201      1.0  0.65691  0.02616  0.25189  1.0000
  C   C202      1.0  0.66215  0.32215  0.04923  1.0000
  H   H244      1.0  0.40878  0.26693  0.29038  1.0000
  H   H245      1.0  0.61836  0.35092  0.06489  1.0000
  Fe  Fe25      1.0  0.64969  0.10884  0.30635  1.0000
  H   H246      1.0  0.65905  0.03887  0.16339  1.0000
  C   C203      1.0  0.65950  0.02466  0.18818  1.0000
  C   C204      1.0  0.65707  0.04419  0.21961  1.0000
  H   H247      1.0  0.58233  0.03342  0.21499  1.0000
  C   C205      1.0  0.57471  0.00834  0.22766  1.0000
  H   H248      1.0  0.65455  0.07305  0.21884  1.0000
  C   C206      1.0  0.56698  0.00846  0.26292  1.0000
  C   C207      1.0  0.61048  0.32954  0.01267  1.0000
  H   H249      1.0  0.33310  0.48997  0.42513  1.0000
  S   S55       1.0  0.65062  0.27696  0.84278  1.0000
  H   H250      1.0  0.44537  0.25420  0.70685  1.0000
  S   S56       1.0  0.63883  0.42877  0.77685  1.0000
  S   S57       1.0  0.35764  0.11510  0.76592  1.0000
  H   H251      1.0  0.55303  0.30720  0.97221  1.0000
  Fe  Fe26      1.0  0.38871  0.14338  0.80974  1.0000
  S   S58       1.0  0.44124  0.16675  0.79296  1.0000
  H   H252      1.0  0.42957  0.31434  0.75776  1.0000
  S   S59       1.0  0.38053  0.09740  0.84783  1.0000
  Fe  Fe27      1.0  0.60273  0.30661  0.82786  1.0000
  S   S60       1.0  0.62674  0.35904  0.84759  1.0000
  S   S61       1.0  0.54973  0.28987  0.84917  1.0000
  C   C208      1.0  0.36117  0.00467  0.72151  1.0000
  C   C209      1.0  0.40859  0.30321  0.73970  1.0000
  S   S62       1.0  0.61769  0.31906  0.77259  1.0000
  H   H253      1.0  0.46015  0.26020  0.75185  1.0000
  H   H254      1.0  0.38444  0.31627  0.74680  1.0000
  H   H255      1.0  0.56693  0.45545  0.77707  1.0000
  C   C210      1.0  0.56298  0.47752  0.75881  1.0000
  H   H256      1.0  0.65764  0.41332  0.70446  1.0000
  H   H257      1.0  0.41532  0.31181  0.71277  1.0000
  H   H258      1.0  0.37143  0.26416  0.78608  1.0000
  C   C211      1.0  0.47127  0.20048  0.80994  1.0000
  C   C212      1.0  0.50223  0.20725  0.79253  1.0000
  C   C213      1.0  0.52646  0.23436  0.80412  1.0000
  C   C214      1.0  0.52004  0.25523  0.83336  1.0000
  C   C215      1.0  0.48897  0.24861  0.85070  1.0000
  C   C216      1.0  0.46475  0.22140  0.83915  1.0000
  H   H259      1.0  0.50763  0.19129  0.76992  1.0000
  H   H260      1.0  0.55017  0.23900  0.79048  1.0000
  H   H261      1.0  0.48366  0.26453  0.87335  1.0000
  H   H262      1.0  0.44115  0.21658  0.85290  1.0000
  S   S63       1.0  0.34207  0.01104  0.79104  1.0000
  H   H263      1.0  0.62650  0.35272  0.92873  1.0000
  H   H264      1.0  0.36870  0.03298  0.72254  1.0000
  H   H265      1.0  0.62466  0.25343  0.93840  1.0000
  H   H266      1.0  0.41694  0.26677  0.79816  1.0000
  H   H267      1.0  0.38592  0.19174  0.73543  1.0000
  S   S64       1.0  0.34331  0.17374  0.82748  1.0000
  N   N14       1.0  0.40498  0.26338  0.74253  1.0000
  H   H268      1.0  0.58590  0.33742  0.90844  1.0000
  C   C217      1.0  0.60064  0.34005  0.93400  1.0000
  C   C218      1.0  0.55917  0.47070  0.72307  1.0000
  H   H269      1.0  0.43926  0.21901  0.73836  1.0000
  C   C219      1.0  0.65783  0.29647  0.99106  1.0000
  H   H270      1.0  0.56016  0.44324  0.71382  1.0000
  C   C220      1.0  0.56918  0.28884  0.95765  1.0000
  C   C221      1.0  0.37095  0.20936  0.71866  1.0000
  C   C222      1.0  0.43881  0.24863  0.73450  1.0000
  H   H271      1.0  0.35879  0.29707  0.69456  1.0000
  Fe  Fe28      1.0  0.64558  0.36962  0.79333  1.0000
  C   C223      1.0  0.37757  0.24721  0.71882  1.0000
  N   N15       1.0  0.60419  0.30464  0.95150  1.0000
  H   H272      1.0  0.58682  0.35929  0.95002  1.0000
  C   C224      1.0  0.34450  0.19351  0.69741  1.0000
  H   H273      1.0  0.39697  0.22515  0.78464  1.0000
  Fe  Fe29      1.0  0.34667  0.07121  0.80471  1.0000
  H   H274      1.0  0.33928  0.16468  0.69850  1.0000
  C   C225      1.0  0.62070  0.28052  0.92678  1.0000
  C   C226      1.0  0.35636  0.26809  0.69597  1.0000
  H   H275      1.0  0.60457  0.27639  0.90226  1.0000
  C   C227      1.0  0.39720  0.25455  0.77939  1.0000
  H   H276      1.0  0.64600  0.29216  0.91850  1.0000
  Fe  Fe30      1.0  0.33284  0.12613  0.86327  1.0000
  C   C228      1.0  0.64653  0.49406  0.74280  1.0000
  H   H277      1.0  0.65161  0.21536  0.68158  1.0000
  H   H278      1.0  0.37306  0.99908  0.66706  1.0000
  C   C229      1.0  0.62413  0.30965  0.98510  1.0000
  H   H279      1.0  0.55451  0.28296  0.93245  1.0000
  C   C230      1.0  0.65618  0.44214  0.70732  1.0000
  C   C231      1.0  0.64838  0.45641  0.73978  1.0000
  H   H280      1.0  0.55290  0.49237  0.67181  1.0000
  H   H281      1.0  0.57076  0.26312  0.97257  1.0000
  C   C232      1.0  0.66172  0.46522  0.67836  1.0000
  Fe  Fe31      1.0  0.36878  0.61180  0.15701  1.0000
  S   S65       1.0  0.39228  0.66604  0.17243  1.0000
  S   S66       1.0  0.66096  0.85866  0.17695  1.0000
  C   C233      1.0  0.55745  0.94377  0.26134  1.0000
  S   S67       1.0  0.35744  0.69904  0.09943  1.0000
  Fe  Fe32      1.0  0.40714  0.67397  0.11677  1.0000
  S   S68       1.0  0.46044  0.69209  0.09759  1.0000
  S   S69       1.0  0.38722  0.61815  0.10199  1.0000
  H   H282      1.0  0.38732  0.63748  0.25072  1.0000
  H   H283      1.0  0.58198  0.87613  0.25347  1.0000
  C   C234      1.0  0.57969  0.91068  0.17117  1.0000
  H   H284      1.0  0.44558  0.58616  0.15036  1.0000
  H   H285      1.0  0.59365  0.85736  0.21320  1.0000
  Fe  Fe33      1.0  0.62767  0.82949  0.13523  1.0000
  S   S70       1.0  0.57559  0.80767  0.15520  1.0000
  S   S71       1.0  0.38729  0.56479  0.19172  1.0000
  S   S72       1.0  0.63238  0.87511  0.09630  1.0000
  C   C235      1.0  0.49142  0.72545  0.11337  1.0000
  C   C236      1.0  0.48670  0.74556  0.14356  1.0000
  C   C237      1.0  0.51257  0.77078  0.15565  1.0000
  C   C238      1.0  0.54344  0.77639  0.13775  1.0000
  C   C239      1.0  0.54803  0.75651  0.10740  1.0000
  C   C240      1.0  0.52222  0.73117  0.09540  1.0000
  H   H286      1.0  0.46322  0.74153  0.15770  1.0000
  H   H287      1.0  0.50870  0.78591  0.17918  1.0000
  H   H288      1.0  0.57157  0.76040  0.09333  1.0000
  H   H289      1.0  0.52625  0.71575  0.07208  1.0000
  H   H290      1.0  0.56245  0.92718  0.15421  1.0000
  C   C241      1.0  0.36807  0.52925  0.21711  1.0000
  C   C242      1.0  0.59107  0.88336  0.22709  1.0000
  H   H291      1.0  0.60782  0.65269  0.11964  1.0000
  H   H292      1.0  0.46781  0.57752  0.09544  1.0000
  H   H293      1.0  0.38236  0.65979  0.29152  1.0000
  H   H294      1.0  0.49838  0.66279  0.18092  1.0000
  H   H295      1.0  0.58052  0.88400  0.15823  1.0000
  C   C243      1.0  0.53242  0.89010  0.20550  1.0000
  H   H296      1.0  0.56290  0.60531  0.11098  1.0000
  N   N16       1.0  0.56748  0.90747  0.20747  1.0000
  H   H297      1.0  0.49073  0.54364  0.14955  1.0000
  H   H298      1.0  0.61737  0.89625  0.23058  1.0000
  H   H299      1.0  0.53222  0.86396  0.19118  1.0000
  H   H300      1.0  0.59885  0.70420  0.15859  1.0000
  H   H301      1.0  0.46938  0.60832  0.18520  1.0000
  C   C244      1.0  0.38939  0.50283  0.23189  1.0000
  C   C245      1.0  0.36992  0.65492  0.26517  1.0000
  H   H302      1.0  0.55239  0.97656  0.30723  1.0000
  H   H303      1.0  0.53402  0.55678  0.13909  1.0000
  S   S73       1.0  0.66322  0.96345  0.14786  1.0000
  C   C246      1.0  0.57478  0.97596  0.20920  1.0000
  H   H304      1.0  0.36918  0.68090  0.25042  1.0000
  H   H305      1.0  0.60637  0.92270  0.17089  1.0000
  C   C247      1.0  0.56654  0.94249  0.22571  1.0000
  C   C248      1.0  0.46592  0.60750  0.15618  1.0000
  H   H306      1.0  0.52244  0.88405  0.23183  1.0000
  H   H307      1.0  0.54443  0.70800  0.18927  1.0000
  H   H308      1.0  0.51378  0.90768  0.19149  1.0000
  H   H309      1.0  0.41667  0.50400  0.22691  1.0000
  H   H310      1.0  0.51821  0.56765  0.18116  1.0000
  H   H311      1.0  0.51199  0.58641  0.08611  1.0000
  N   N17       1.0  0.49861  0.60033  0.13891  1.0000
  C   C249      1.0  0.49025  0.59655  0.10079  1.0000
  C   C250      1.0  0.51100  0.56559  0.15271  1.0000
  C   C251      1.0  0.52587  0.62890  0.14497  1.0000
  C   C252      1.0  0.55790  0.62719  0.12832  1.0000
  C   C253      1.0  0.52193  0.65862  0.16761  1.0000
  C   C254      1.0  0.58392  0.65401  0.13329  1.0000
  C   C255      1.0  0.54830  0.68501  0.17269  1.0000
  C   C256      1.0  0.57905  0.68293  0.15534  1.0000
  H   H312      1.0  0.45525  0.63332  0.14680  1.0000
  H   H313      1.0  0.48343  0.62290  0.08894  1.0000
  C   C257      1.0  0.66211  0.98693  0.18850  1.0000
  H   H314      1.0  0.35776  0.58601  0.27267  1.0000
  H   H315      1.0  0.58265  0.97792  0.18242  1.0000
  C   C258      1.0  0.33844  0.60261  0.28544  1.0000
  H   H316      1.0  0.34697  0.60617  0.31338  1.0000
  C   C259      1.0  0.55808  0.97628  0.27967  1.0000
  Fe  Fe34      1.0  0.34115  0.68748  0.15450  1.0000
  H   H317      1.0  0.33851  0.61498  0.21640  1.0000
  H   H318      1.0  0.55053  0.91953  0.27554  1.0000
  H   H319      1.0  0.34547  0.70715  0.29752  1.0000
  Fe  Fe35      1.0  0.33608  0.64290  0.08815  1.0000
  C   C260      1.0  0.33283  0.52726  0.22402  1.0000
  H   H320      1.0  0.65976  0.97421  0.27694  1.0000
  C   C261      1.0  0.66264  0.96902  0.22081  1.0000
  C   C262      1.0  0.65984  0.98848  0.25219  1.0000
  N   N18       1.0  0.33478  0.63793  0.26767  1.0000
  H   H321      1.0  0.42562  0.94737  0.69021  1.0000
  C   C263      1.0  0.65207  0.51713  0.71389  1.0000
  Fe  Fe36      1.0  0.60800  0.64757  0.61208  1.0000
  C   C264      1.0  0.43971  0.87399  0.67280  1.0000
  S   S74       1.0  0.54890  0.65154  0.61076  1.0000
  S   S75       1.0  0.35245  0.77016  0.58958  1.0000
  H   H322      1.0  0.49817  0.99477  0.76465  1.0000
  S   S76       1.0  0.62807  0.59967  0.58437  1.0000
  S   S77       1.0  0.63968  0.63729  0.66174  1.0000
  Fe  Fe37      1.0  0.39632  0.80036  0.61793  1.0000
  S   S78       1.0  0.38670  0.85100  0.58682  1.0000
  S   S79       1.0  0.45349  0.78753  0.62872  1.0000
  Fe  Fe38      1.0  0.34020  0.82189  0.56158  1.0000
  C   C265      1.0  0.65959  0.50284  0.68137  1.0000
  H   H323      1.0  0.56094  0.56808  0.75859  1.0000
  S   S80       1.0  0.35792  0.92567  0.64737  1.0000
  S   S81       1.0  0.36352  0.81712  0.66251  1.0000
  H   H324      1.0  0.51840  0.89410  0.64076  1.0000
  C   C266      1.0  0.49669  0.87706  0.65074  1.0000
  C   C267      1.0  0.51036  0.92853  0.70550  1.0000
  H   H325      1.0  0.51568  0.53672  0.65062  1.0000
  C   C268      1.0  0.52299  0.69003  0.61476  1.0000
  C   C269      1.0  0.48696  0.68623  0.60851  1.0000
  C   C270      1.0  0.46532  0.71569  0.61209  1.0000
  C   C271      1.0  0.47939  0.74941  0.62241  1.0000
  C   C272      1.0  0.51539  0.75315  0.62877  1.0000
  C   C273      1.0  0.53706  0.72380  0.62483  1.0000
  H   H326      1.0  0.47570  0.66033  0.60066  1.0000
  H   H327      1.0  0.43776  0.71227  0.60707  1.0000
  H   H328      1.0  0.52667  0.77898  0.63681  1.0000
  H   H329      1.0  0.56462  0.72729  0.62986  1.0000
  C   C274      1.0  0.35433  0.94835  0.68806  1.0000
  N   N19       1.0  0.46754  0.89911  0.66099  1.0000
  N   N20       1.0  0.55308  0.56514  0.68474  1.0000
  H   H330      1.0  0.50626  0.86009  0.67288  1.0000
  H   H331      1.0  0.43222  0.85377  0.65236  1.0000
  H   H332      1.0  0.44910  0.89958  0.60690  1.0000
  H   H333      1.0  0.57849  0.53780  0.64325  1.0000
  C   C275      1.0  0.45489  0.91838  0.62916  1.0000
  C   C276      1.0  0.55646  0.60159  0.70064  1.0000
  H   H334      1.0  0.44800  0.85898  0.69676  1.0000
  S   S82       1.0  0.64807  0.68419  0.58833  1.0000
  H   H335      1.0  0.49762  0.56273  0.68446  1.0000
  H   H336      1.0  0.48867  0.85785  0.62933  1.0000
  C   C277      1.0  0.45161  0.94842  0.70137  1.0000
  H   H337      1.0  0.53120  0.91206  0.69811  1.0000
  C   C278      1.0  0.35352  0.74077  0.97062  1.0000
  H   H338      1.0  0.47431  0.93903  0.62056  1.0000
  H   H339      1.0  0.60648  0.56412  0.67204  1.0000
  C   C279      1.0  0.45926  0.97304  0.72831  1.0000
  C   C280      1.0  0.47681  0.92532  0.68916  1.0000
  C   C281      1.0  0.51785  0.95345  0.73235  1.0000
  H   H340      1.0  0.43046  0.93220  0.63331  1.0000
  Fe  Fe39      1.0  0.35202  0.86640  0.63009  1.0000
  H   H341      1.0  0.41572  0.88785  0.67863  1.0000
  C   C282      1.0  0.55990  0.54149  0.74735  1.0000
  H   H342      1.0  0.33530  0.90255  0.71714  1.0000
  H   H343      1.0  0.57917  0.58539  0.63953  1.0000
  H   H344      1.0  0.51556  0.58462  0.64675  1.0000
  C   C283      1.0  0.36370  0.98531  0.69006  1.0000
  H   H345      1.0  0.55471  0.62327  0.68043  1.0000
  H   H346      1.0  0.65083  0.54593  0.71698  1.0000
  H   H347      1.0  0.53549  0.60620  0.71898  1.0000
  H   H348      1.0  0.58198  0.60599  0.71466  1.0000
  C   C284      1.0  0.55617  0.53548  0.71061  1.0000
  H   H349      1.0  0.37752  0.74000  0.98612  1.0000
  C   C285      1.0  0.58042  0.56294  0.65884  1.0000
  C   C286      1.0  0.51898  0.56207  0.66587  1.0000
  Fe  Fe40      1.0  0.66176  0.59097  0.63267  1.0000
  C   C287      1.0  0.49235  0.97561  0.74375  1.0000
  C   C288      1.0  0.34977  0.76574  0.94350  1.0000
  H   H350      1.0  0.37106  0.78439  0.93798  1.0000
  H   H351      1.0  0.64075  0.50546  0.76778  1.0000
  C   C289      1.0  0.34252  0.93094  0.71810  1.0000
  H   H352      1.0  0.36160  0.65632  0.66692  1.0000
  H   H353      1.0  0.54357  0.95554  0.74449  1.0000
  C   C290      1.0  0.56322  0.51278  0.77093  1.0000
  C   C291      1.0  0.33951  0.95044  0.74944  1.0000
  H   H354      1.0  0.56701  0.51785  0.79876  1.0000
  C   C292      1.0  0.34851  0.98748  0.75134  1.0000
  H   H355      1.0  0.43928  0.99010  0.73731  1.0000
  C   C293      1.0  0.33525  0.60823  0.68548  1.0000
  H   H356      1.0  0.35290  0.59033  0.67370  1.0000
  C   C294      1.0  0.34025  0.64534  0.68166  1.0000
  H   H357      1.0  0.65497  0.51186  0.51580  1.0000
  H   H358      1.0  0.65742  0.52705  0.56029  1.0000
  C   C295      1.0  0.55551  0.49912  0.69926  1.0000
  H   H359      1.0  0.66446  0.55883  0.52596  1.0000
  S   S83       1.0  0.69774  0.14497  0.31068  1.0000
  H   H360      1.0  0.72622  0.17900  0.06611  1.0000
  S   S84       1.0  0.71586  0.18246  0.40757  1.0000
  H   H361      1.0  0.78754  0.16082  0.07256  1.0000
  C   C296      1.0  0.67641  0.30274  0.02267  1.0000
  Fe  Fe41      1.0  0.84863  0.28653  0.15908  1.0000
  S   S85       1.0  0.89630  0.32310  0.16259  1.0000
  S   S86       1.0  0.83494  0.25087  0.20518  1.0000
  Fe  Fe42      1.0  0.83232  0.30361  0.08161  1.0000
  S   S87       1.0  0.87898  0.34156  0.07982  1.0000
  H   H362      1.0  0.92823  0.42156  0.23722  1.0000
  Fe  Fe43      1.0  0.90861  0.29959  0.11042  1.0000
  S   S88       1.0  0.96305  0.28636  0.09337  1.0000
  Fe  Fe44      1.0  0.86324  0.36201  0.13252  1.0000
  S   S89       1.0  0.86465  0.42293  0.14286  1.0000
  S   S90       1.0  0.86308  0.26053  0.10907  1.0000
  S   S91       1.0  0.81451  0.32668  0.13222  1.0000
  H   H363      1.0  0.71372  0.11015  0.44020  1.0000
  H   H364      1.0  0.85171  0.19277  0.34351  1.0000
  C   C297      1.0  0.85965  0.44699  0.18246  1.0000
  H   H365      1.0  0.83738  0.21040  0.30192  1.0000
  C   C298      1.0  0.84775  0.45015  0.24455  1.0000
  C   C299      1.0  0.85208  0.42972  0.21405  1.0000
  S   S92       1.0  0.79672  0.28059  0.03657  1.0000
  H   H366      1.0  0.84167  0.43647  0.26872  1.0000
  H   H367      1.0  0.84931  0.40067  0.21490  1.0000
  H   H368      1.0  0.75118  0.24581  0.13490  1.0000
  H   H369      1.0  0.78691  0.31591  0.26828  1.0000
  C   C300      1.0  0.86318  0.48482  0.18198  1.0000
  C   C301      1.0  0.93996  0.47569  0.25536  1.0000
  C   C302      1.0  0.95699  0.49032  0.18620  1.0000
  H   H370      1.0  0.95973  0.22746  0.14534  1.0000
  C   C303      1.0  0.72354  0.12341  0.18324  1.0000
  C   C304      1.0  0.72173  0.23238  0.23223  1.0000
  C   C305      1.0  0.74657  0.20844  0.24404  1.0000
  C   C306      1.0  0.78122  0.21419  0.23535  1.0000
  C   C307      1.0  0.79120  0.24403  0.21500  1.0000
  C   C308      1.0  0.76630  0.26790  0.20303  1.0000
  C   C309      1.0  0.73159  0.26186  0.21134  1.0000
  H   H371      1.0  0.73895  0.18524  0.25939  1.0000
  H   H372      1.0  0.80031  0.19540  0.24425  1.0000
  H   H373      1.0  0.77382  0.29116  0.18767  1.0000
  H   H374      1.0  0.71241  0.28044  0.20214  1.0000
  C   C310      1.0  0.76140  0.18488  0.46503  1.0000
  C   C311      1.0  0.73762  0.16313  0.44490  1.0000
  C   C312      1.0  0.73186  0.12731  0.45523  1.0000
  C   C313      1.0  0.98260  0.22464  0.13040  1.0000
  H   H375      1.0  0.76604  0.21267  0.45755  1.0000
  H   H376      1.0  0.79345  0.22890  0.14388  1.0000
  H   H377      1.0  0.68752  0.16408  0.19384  1.0000
  H   H378      1.0  0.74457  0.22341  0.05813  1.0000
  H   H379      1.0  0.69810  0.27406  0.32049  1.0000
  H   H380      1.0  0.94291  0.43466  0.17613  1.0000
  N   N21       1.0  0.76295  0.19814  0.10592  1.0000
  C   C314      1.0  0.79355  0.18594  0.08763  1.0000
  H   H381      1.0  0.72467  0.31800  0.27997  1.0000
  S   S93       1.0  0.67811  0.22598  0.24256  1.0000
  H   H382      1.0  0.82228  0.27072  0.29530  1.0000
  H   H383      1.0  0.73256  0.22877  0.34981  1.0000
  H   H384      1.0  0.81824  0.20179  0.39572  1.0000
  C   C315      1.0  0.77414  0.44199  0.17296  1.0000
  C   C316      1.0  0.76442  0.13796  0.13836  1.0000
  C   C317      1.0  0.77315  0.23281  0.12299  1.0000
  H   H385      1.0  0.70938  0.20624  0.15032  1.0000
  H   H386      1.0  0.93176  0.46832  0.28120  1.0000
  C   C318      1.0  0.72165  0.18070  0.15298  1.0000
  C   C319      1.0  0.74996  0.17219  0.13240  1.0000
  H   H387      1.0  0.81571  0.18159  0.10643  1.0000
  H   H388      1.0  0.80291  0.20645  0.06838  1.0000
  C   C320      1.0  0.93778  0.44835  0.23026  1.0000
  C   C321      1.0  0.75122  0.11406  0.16342  1.0000
  H   H389      1.0  0.77762  0.22260  0.39267  1.0000
  C   C322      1.0  0.75961  0.48006  0.22111  1.0000
  H   H390      1.0  0.78600  0.46899  0.12498  1.0000
  H   H391      1.0  0.78603  0.12903  0.12419  1.0000
  H   H392      1.0  0.85257  0.24028  0.33698  1.0000
  H   H393      1.0  0.78376  0.25273  0.10406  1.0000
  H   H394      1.0  0.71259  0.21697  0.09020  1.0000
  C   C323      1.0  0.77763  0.47218  0.15153  1.0000
  C   C324      1.0  0.73532  0.20461  0.07896  1.0000
  H   H395      1.0  0.81628  0.24957  0.38750  1.0000
  N   N22       1.0  0.80154  0.21629  0.34309  1.0000
  C   C325      1.0  0.78467  0.18029  0.33664  1.0000
  C   C326      1.0  0.83735  0.21500  0.33075  1.0000
  C   C327      1.0  0.80363  0.22287  0.38136  1.0000
  C   C328      1.0  0.78108  0.24464  0.32570  1.0000
  C   C329      1.0  0.74548  0.24727  0.33230  1.0000
  C   C330      1.0  0.79566  0.27072  0.30258  1.0000
  C   C331      1.0  0.72554  0.27355  0.31605  1.0000
  C   C332      1.0  0.77552  0.29715  0.28677  1.0000
  C   C333      1.0  0.74050  0.29839  0.29328  1.0000
  H   H396      1.0  0.78023  0.17528  0.30812  1.0000
  H   H397      1.0  0.80032  0.15818  0.34776  1.0000
  H   H398      1.0  0.75935  0.17711  0.34912  1.0000
  C   C334      1.0  0.77928  0.17107  0.49484  1.0000
  H   H399      1.0  0.67692  0.32730  0.07347  1.0000
  H   H400      1.0  0.76258  0.08809  0.16766  1.0000
  C   C335      1.0  0.94608  0.45566  0.19576  1.0000
  H   H401      1.0  0.71360  0.10493  0.20284  1.0000
  C   C336      1.0  0.98962  0.24905  0.10334  1.0000
  C   C337      1.0  0.70877  0.15664  0.17799  1.0000
  H   H402      1.0  0.76356  0.42240  0.22448  1.0000
  H   H403      1.0  0.77442  0.35416  0.02104  1.0000
  C   C338      1.0  0.74946  0.11361  0.48527  1.0000
  C   C339      1.0  0.85101  0.48802  0.24400  1.0000
  H   H404      1.0  0.74458  0.08589  0.49297  1.0000
  Fe  Fe45      1.0  0.67811  0.16371  0.36225  1.0000
  H   H405      1.0  0.75390  0.48112  0.24849  1.0000
  H   H406      1.0  0.77982  0.41566  0.16301  1.0000
  C   C340      1.0  0.76509  0.44591  0.20762  1.0000
  H   H407      1.0  0.70240  0.29315  0.02623  1.0000
  H   H408      1.0  0.96272  0.49597  0.15912  1.0000
  Fe  Fe46      1.0  0.86492  0.11840  0.65867  1.0000
  S   S94       1.0  0.88947  0.17434  0.66585  1.0000
  S   S95       1.0  0.87430  0.08118  0.70652  1.0000
  Fe  Fe47      1.0  0.83173  0.13919  0.58666  1.0000
  S   S96       1.0  0.85427  0.19562  0.58909  1.0000
  S   S97       1.0  0.79381  0.11655  0.54364  1.0000
  Fe  Fe48      1.0  0.90376  0.17179  0.60969  1.0000
  S   S98       1.0  0.95436  0.19430  0.58715  1.0000
  Fe  Fe49      1.0  0.83881  0.19457  0.64510  1.0000
  S   S99       1.0  0.81749  0.24590  0.66591  1.0000
  S   S100      1.0  0.88251  0.11439  0.60309  1.0000
  S   S101      1.0  0.81297  0.13956  0.64208  1.0000
  H   H409      1.0  0.83809  0.02123  0.66815  1.0000
  S   S102      1.0  0.69624  0.34326  0.80601  1.0000
  H   H410      1.0  0.76518  0.24957  0.97386  1.0000
  C   C341      1.0  0.85566  0.14752  0.76456  1.0000
  S   S103      1.0  0.70162  0.34633  0.91256  1.0000
  H   H411      1.0  0.83941  0.13647  0.74214  1.0000
  C   C342      1.0  0.74332  0.35014  0.97272  1.0000
  C   C343      1.0  0.73010  0.32782  0.94528  1.0000
  C   C344      1.0  0.73850  0.29151  0.94576  1.0000
  C   C345      1.0  0.75929  0.27777  0.97360  1.0000
  N   N23       1.0  0.84561  0.18432  0.77394  1.0000
  H   H412      1.0  0.72859  0.27392  0.92498  1.0000
  H   H413      1.0  0.73696  0.37822  0.97276  1.0000
  C   C346      1.0  0.78089  0.24500  0.69198  1.0000
  C   C347      1.0  0.77072  0.27709  0.70705  1.0000
  C   C348      1.0  0.74159  0.27732  0.72787  1.0000
  C   C349      1.0  0.72236  0.24541  0.73347  1.0000
  C   C350      1.0  0.73277  0.21325  0.71868  1.0000
  C   C351      1.0  0.76199  0.21298  0.69808  1.0000
  H   H414      1.0  0.78532  0.30194  0.70247  1.0000
  H   H415      1.0  0.73372  0.30222  0.73912  1.0000
  H   H416      1.0  0.71797  0.18848  0.72299  1.0000
  H   H417      1.0  0.76964  0.18809  0.68674  1.0000
  H   H418      1.0  0.85380  0.12853  0.78706  1.0000
  C   C352      1.0  0.76278  0.22137  0.80722  1.0000
  C   C353      1.0  0.78639  0.15533  0.78541  1.0000
  C   C354      1.0  0.94922  0.36293  0.67201  1.0000
  H   H419      1.0  0.84313  0.23573  0.74680  1.0000
  C   C355      1.0  0.86992  0.19759  0.80234  1.0000
  H   H420      1.0  0.81233  0.24370  0.79611  1.0000
  C   C356      1.0  0.86424  0.03513  0.71713  1.0000
  H   H421      1.0  0.86705  0.22660  0.80794  1.0000
  C   C357      1.0  0.84630  0.01160  0.69380  1.0000
  H   H422      1.0  0.83341  0.19701  0.72025  1.0000
  H   H423      1.0  0.92637  0.31458  0.64862  1.0000
  H   H424      1.0  0.71415  0.19327  0.81430  1.0000
  C   C358      1.0  0.71054  0.20576  0.55186  1.0000
  C   C359      1.0  0.87462  0.02185  0.75040  1.0000
  C   C360      1.0  0.68373  0.20492  0.63804  1.0000
  H   H425      1.0  0.88849  0.03972  0.76873  1.0000
  C   C361      1.0  0.69797  0.27915  0.63816  1.0000
  H   H426      1.0  0.86576  0.18233  0.82709  1.0000
  H   H427      1.0  0.79361  0.12910  0.77693  1.0000
  C   C362      1.0  0.98997  0.21938  0.60725  1.0000
  C   C363      1.0  0.80960  0.18593  0.78530  1.0000
  C   C364      1.0  0.85007  0.20739  0.74258  1.0000
  H   H428      1.0  0.87719  0.20824  0.73400  1.0000
  H   H429      1.0  0.75306  0.24716  0.81457  1.0000
  C   C365      1.0  0.75249  0.15803  0.79614  1.0000
  H   H430      1.0  0.73495  0.13464  0.79542  1.0000
  H   H431      1.0  0.97963  0.29866  0.61988  1.0000
  C   C366      1.0  0.79664  0.21906  0.79640  1.0000
  H   H432      1.0  0.88275  0.14716  0.75579  1.0000
  H   H433      1.0  0.89733  0.19473  0.79542  1.0000
  C   C367      1.0  0.74074  0.19095  0.80703  1.0000
  Fe  Fe50      1.0  0.66725  0.29214  0.78860  1.0000
  C   C368      1.0  0.77327  0.13529  0.50534  1.0000
  H   H434      1.0  0.71684  0.23411  0.54434  1.0000
  H   H435      1.0  0.77585  0.18570  0.57309  1.0000
  N   N24       1.0  0.72402  0.19707  0.58762  1.0000
  H   H436      1.0  0.73214  0.14163  0.57417  1.0000
  C   C369      1.0  0.71821  0.15775  0.59330  1.0000
  C   C370      1.0  0.97945  0.32296  0.63551  1.0000
  H   H437      1.0  0.72158  0.18838  0.53176  1.0000
  S   S104      1.0  0.68450  0.24455  0.75768  1.0000
  C   C371      1.0  0.70705  0.21952  0.61335  1.0000
  H   H438      1.0  0.69986  0.46629  0.53103  1.0000
  C   C372      1.0  0.71326  0.25742  0.61383  1.0000
  H   H439      1.0  0.69711  0.48255  0.57518  1.0000
  C   C373      1.0  0.94943  0.33191  0.65172  1.0000
  H   H440      1.0  0.70403  0.30785  0.63888  1.0000
  C   C374      1.0  0.66831  0.22700  0.66201  1.0000
  H   H441      1.0  0.69049  0.14934  0.58961  1.0000
  C   C375      1.0  0.76193  0.20461  0.58953  1.0000
  H   H442      1.0  0.97414  0.21274  0.66028  1.0000
  H   H443      1.0  0.92575  0.36967  0.68464  1.0000
  H   H444      1.0  0.77237  0.20216  0.61693  1.0000
  H   H445      1.0  0.72790  0.14948  0.61984  1.0000
  Fe  Fe51      1.0  0.67572  0.33002  0.85938  1.0000
  H   H446      1.0  0.73042  0.27050  0.59570  1.0000
  H   H447      1.0  0.76947  0.23199  0.58017  1.0000
  C   C376      1.0  0.97906  0.38516  0.67623  1.0000
  H   H448      1.0  0.68195  0.20165  0.54969  1.0000
  H   H449      1.0  0.73808  0.48044  0.55613  1.0000
  C   C377      1.0  0.99355  0.22427  0.64353  1.0000
  C   C378      1.0  0.71069  0.48664  0.55013  1.0000
  H   H450      1.0  0.79762  0.18812  0.50971  1.0000
  H   H451      1.0  0.97711  0.40867  0.69236  1.0000
  H   H452      1.0  0.66762  0.45377  0.65344  1.0000
  H   H453      1.0  0.67741  0.17649  0.63989  1.0000
  C   C379      1.0  0.67557  0.26396  0.66222  1.0000
  C   C380      1.0  0.76464  0.33656  0.00020  1.0000
  H   H454      1.0  0.67086  0.28196  0.97141  1.0000
  C   C381      1.0  0.77262  0.30017  0.00097  1.0000
  H   H455      1.0  0.66455  0.28065  0.68181  1.0000
  H   H456      1.0  0.67916  0.54637  0.47055  1.0000
  S   S105      1.0  0.75414  0.81334  0.18028  1.0000
  S   S106      1.0  0.71519  0.87999  0.11557  1.0000
  Fe  Fe52      1.0  0.84444  0.57230  0.29714  1.0000
  S   S107      1.0  0.87816  0.59647  0.34091  1.0000
  H   H457      1.0  0.76639  0.53737  0.26849  1.0000
  Fe  Fe53      1.0  0.80800  0.64303  0.28504  1.0000
  S   S108      1.0  0.83950  0.67319  0.32720  1.0000
  S   S109      1.0  0.76166  0.65853  0.25089  1.0000
  Fe  Fe54      1.0  0.88515  0.64513  0.30606  1.0000
  S   S110      1.0  0.94009  0.66359  0.29171  1.0000
  Fe  Fe55      1.0  0.83052  0.62274  0.35963  1.0000
  S   S111      1.0  0.82135  0.62119  0.41874  1.0000
  S   S112      1.0  0.85386  0.61910  0.26114  1.0000
  S   S113      1.0  0.79654  0.59453  0.31881  1.0000
  C   C382      1.0  0.96865  0.69956  0.30655  1.0000
  C   C383      1.0  0.95951  0.72456  0.33152  1.0000
  H   H458      1.0  0.96988  0.87921  0.30620  1.0000
  C   C384      1.0  0.98779  0.55856  0.27403  1.0000
  H   H459      1.0  0.93422  0.72235  0.34251  1.0000
  H   H460      1.0  0.70941  0.55417  0.41670  1.0000
  H   H461      1.0  0.84098  0.82933  0.08274  1.0000
  C   C385      1.0  0.78300  0.62514  0.44259  1.0000
  C   C386      1.0  0.78504  0.62194  0.47935  1.0000
  H   H462      1.0  0.72164  0.53356  0.25292  1.0000
  H   H463      1.0  0.83771  0.70569  0.47323  1.0000
  C   C387      1.0  0.72134  0.63445  0.44637  1.0000
  C   C388      1.0  0.75089  0.63142  0.42619  1.0000
  H   H464      1.0  0.92704  0.59097  0.27963  1.0000
  H   H465      1.0  0.69669  0.63932  0.43333  1.0000
  H   H466      1.0  0.74883  0.63407  0.39799  1.0000
  Fe  Fe56      1.0  0.70579  0.83337  0.15238  1.0000
  C   C389      1.0  0.72337  0.63124  0.48315  1.0000
  H   H467      1.0  0.86238  0.53413  0.21139  1.0000
  C   C390      1.0  0.75551  0.77032  0.19998  1.0000
  C   C391      1.0  0.72757  0.74551  0.19691  1.0000
  C   C392      1.0  0.72981  0.71129  0.21263  1.0000
  C   C393      1.0  0.75987  0.70176  0.23162  1.0000
  C   C394      1.0  0.78786  0.72651  0.23451  1.0000
  C   C395      1.0  0.78569  0.76062  0.21862  1.0000
  H   H468      1.0  0.70420  0.75275  0.18264  1.0000
  H   H469      1.0  0.70803  0.69229  0.21037  1.0000
  H   H470      1.0  0.81113  0.71945  0.24907  1.0000
  H   H471      1.0  0.80739  0.77973  0.22110  1.0000
  C   C396      1.0  0.98248  0.96101  0.23288  1.0000
  C   C397      1.0  0.94377  0.53012  0.30804  1.0000
  S   S114      1.0  0.84486  0.51216  0.28346  1.0000
  H   H472      1.0  0.77165  0.54295  0.41445  1.0000
  H   H473      1.0  0.78810  0.59759  0.22073  1.0000
  C   C398      1.0  0.95952  0.51784  0.21111  1.0000
  C   C399      1.0  0.75554  0.62494  0.49951  1.0000
  S   S115      1.0  0.67255  0.80061  0.11411  1.0000
  C   C400      1.0  0.78989  0.71460  0.44516  1.0000
  H   H474      1.0  0.88088  0.85000  0.03822  1.0000
  C   C401      1.0  0.74117  0.72718  0.48039  1.0000
  H   H475      1.0  0.77576  0.52902  0.14713  1.0000
  C   C402      1.0  0.85984  0.83107  0.03118  1.0000
  C   C403      1.0  0.76271  0.51148  0.19984  1.0000
  C   C404      1.0  0.75817  0.53779  0.43845  1.0000
  N   N25       1.0  0.75789  0.54820  0.21330  1.0000
  C   C405      1.0  0.75514  0.72195  0.44766  1.0000
  H   H476      1.0  0.98973  0.58080  0.29362  1.0000
  H   H477      1.0  0.80972  0.61708  0.49231  1.0000
  H   H478      1.0  0.73980  0.57141  0.16413  1.0000
  Fe  Fe57      1.0  0.68014  0.84845  0.07795  1.0000
  H   H479      1.0  0.86927  0.49842  0.15777  1.0000
  H   H480      1.0  0.72634  0.59380  0.20195  1.0000
  C   C406      1.0  0.73152  0.56666  0.19132  1.0000
  H   H481      1.0  0.94561  0.55324  0.32658  1.0000
  H   H482      1.0  0.90130  0.55668  0.25726  1.0000
  H   H483      1.0  0.97478  0.85455  0.26587  1.0000
  H   H484      1.0  0.80032  0.70926  0.41982  1.0000
  H   H485      1.0  0.99522  0.57113  0.24884  1.0000
  S   S116      1.0  0.69260  0.83393  0.02133  1.0000
  H   H486      1.0  0.73868  0.72245  0.42408  1.0000
  C   C407      1.0  0.83679  0.81914  0.05642  1.0000
  H   H487      1.0  0.75053  0.88774  0.02661  1.0000
  C   C408      1.0  0.72309  0.54413  0.43980  1.0000
  N   N26       1.0  0.78333  0.78460  0.07457  1.0000
  C   C409      1.0  0.75439  0.76057  0.06105  1.0000
  C   C410      1.0  0.80114  0.76562  0.10393  1.0000
  C   C411      1.0  0.76800  0.81716  0.08857  1.0000
  C   C412      1.0  0.80829  0.79534  0.04768  1.0000
  C   C413      1.0  0.98478  0.92920  0.25249  1.0000
  H   H488      1.0  0.80375  0.52233  0.46730  1.0000
  H   H489      1.0  0.97587  0.77154  0.36176  1.0000
  C   C414      1.0  0.98776  0.86307  0.29113  1.0000
  H   H490      1.0  0.70668  0.55064  0.19002  1.0000
  H   H491      1.0  0.76383  0.73490  0.05090  1.0000
  H   H492      1.0  0.73599  0.75331  0.08190  1.0000
  H   H493      1.0  0.73885  0.77404  0.03995  1.0000
  H   H494      1.0  0.81397  0.74142  0.09454  1.0000
  H   H495      1.0  0.78276  0.75687  0.12439  1.0000
  H   H496      1.0  0.82106  0.78313  0.11781  1.0000
  H   H497      1.0  0.75613  0.83348  0.06719  1.0000
  H   H498      1.0  0.74746  0.80999  0.10707  1.0000
  H   H499      1.0  0.78702  0.83479  0.10352  1.0000
  C   C415      1.0  0.95103  0.51141  0.24650  1.0000
  H   H500      1.0  0.74293  0.57681  0.25913  1.0000
  C   C416      1.0  0.98322  0.75249  0.34236  1.0000
  H   H501      1.0  0.93450  0.58164  0.23505  1.0000
  N   N27       1.0  0.95259  0.54139  0.27198  1.0000
  C   C417      1.0  0.80476  0.78362  0.01228  1.0000
  H   H502      1.0  0.95744  0.97020  0.22385  1.0000
  C   C418      1.0  0.92785  0.56879  0.26034  1.0000
  C   C419      1.0  0.81094  0.71256  0.47538  1.0000
  C   C420      1.0  0.74663  0.54877  0.25004  1.0000
  C   C421      1.0  0.85910  0.50521  0.21249  1.0000
  H   H503      1.0  0.96072  0.91501  0.25776  1.0000
  H   H504      1.0  0.80137  0.57080  0.18549  1.0000
  C   C422      1.0  0.70596  0.53948  0.47117  1.0000
  H   H505      1.0  0.81082  0.55738  0.22986  1.0000
  H   H506      1.0  0.96150  0.50954  0.31864  1.0000
  H   H507      1.0  0.91665  0.51919  0.30891  1.0000
  C   C423      1.0  0.75317  0.87188  0.00327  1.0000
  C   C424      1.0  0.79095  0.56936  0.21213  1.0000
  Fe  Fe58      1.0  0.66752  0.90291  0.13735  1.0000
  H   H508      1.0  0.71382  0.73159  0.48033  1.0000
  H   H509      1.0  0.99177  0.83792  0.30668  1.0000
  H   H510      1.0  0.96739  0.54443  0.20223  1.0000
  H   H511      1.0  0.78360  0.76618  0.00282  1.0000
  C   C425      1.0  0.77192  0.50643  0.16461  1.0000
  C   C426      1.0  0.77626  0.52633  0.46837  1.0000
  H   H512      1.0  0.66510  0.94018  0.22164  1.0000
  C   C427      1.0  0.75935  0.52121  0.49979  1.0000
  Fe  Fe59      1.0  0.84821  0.87531  0.79216  1.0000
  S   S117      1.0  0.87938  0.88200  0.84272  1.0000
  S   S118      1.0  0.83949  0.91609  0.74729  1.0000
  Fe  Fe60      1.0  0.82908  0.79674  0.80942  1.0000
  S   S119      1.0  0.85882  0.79826  0.86136  1.0000
  S   S120      1.0  0.80293  0.74291  0.79520  1.0000
  Fe  Fe61      1.0  0.83523  0.85182  0.86857  1.0000
  S   S121      1.0  0.81839  0.87275  0.92166  1.0000
  Fe  Fe62      1.0  0.90051  0.82734  0.83174  1.0000
  S   S122      1.0  0.95839  0.81888  0.84245  1.0000
  S   S123      1.0  0.80258  0.84854  0.81847  1.0000
  S   S124      1.0  0.87221  0.82253  0.77938  1.0000
  S   S125      1.0  0.70622  0.62469  0.61147  1.0000
  H   H513      1.0  0.92350  0.93682  0.76555  1.0000
  C   C428      1.0  0.82822  0.79542  0.98737  1.0000
  H   H514      1.0  0.75789  0.62223  0.52761  1.0000
  C   C429      1.0  0.77747  0.73747  0.75600  1.0000
  C   C430      1.0  0.76122  0.70382  0.74837  1.0000
  C   C431      1.0  0.74079  0.69861  0.71737  1.0000
  C   C432      1.0  0.73652  0.72711  0.69375  1.0000
  C   C433      1.0  0.75283  0.76072  0.70136  1.0000
  C   C434      1.0  0.77320  0.76593  0.73235  1.0000
  H   H515      1.0  0.76440  0.68169  0.76657  1.0000
  H   H516      1.0  0.72838  0.67263  0.71180  1.0000
  H   H517      1.0  0.74959  0.78293  0.68328  1.0000
  H   H518      1.0  0.78554  0.79196  0.73796  1.0000
  N   N28       1.0  0.74805  0.73001  0.54703  1.0000
  C   C435      1.0  0.73268  0.82425  0.96422  1.0000
  C   C436      1.0  0.76037  0.83183  0.94201  1.0000
  C   C437      1.0  0.78434  0.85997  0.94995  1.0000
  C   C438      1.0  0.72366  0.52778  0.50224  1.0000
  H   H519      1.0  0.75514  0.87165  0.87674  1.0000
  C   C439      1.0  0.75075  0.69579  0.56679  1.0000
  H   H520      1.0  0.76294  0.81609  0.91858  1.0000
  H   H521      1.0  0.86627  0.71978  0.84008  1.0000
  C   C440      1.0  0.79338  0.95257  0.81878  1.0000
  C   C441      1.0  0.97271  0.75368  0.81076  1.0000
  H   H522      1.0  0.72070  0.57760  0.55215  1.0000
  C   C442      1.0  0.72750  0.87816  0.87310  1.0000
  S   S126      1.0  0.71145  0.72214  0.65425  1.0000
  H   H523      1.0  0.94676  0.75376  0.79931  1.0000
  H   H524      1.0  0.69437  0.96053  0.82253  1.0000
  H   H525      1.0  0.71332  0.86179  0.89280  1.0000
  H   H526      1.0  0.79532  0.75176  0.57221  1.0000
  C   C443      1.0  0.84938  0.96219  0.73683  1.0000
  H   H527      1.0  0.75130  0.54513  0.56645  1.0000
  H   H528      1.0  0.76808  0.78459  0.55182  1.0000
  H   H529      1.0  0.79152  0.92004  0.86454  1.0000
  N   N29       1.0  0.72208  0.91719  0.87699  1.0000
  C   C444      1.0  0.73984  0.93717  0.84880  1.0000
  C   C445      1.0  0.99459  0.72537  0.80333  1.0000
  H   H530      1.0  0.67821  0.95088  0.88001  1.0000
  C   C446      1.0  0.91743  0.90738  0.70280  1.0000
  C   C447      1.0  0.86728  0.98572  0.76022  1.0000
  C   C448      1.0  0.96575  0.60842  0.89534  1.0000
  C   C449      1.0  0.93233  0.90874  0.76428  1.0000
  H   H531      1.0  0.71137  0.54737  0.58771  1.0000
  N   N30       1.0  0.94541  0.90044  0.72940  1.0000
  C   C450      1.0  0.88772  0.66740  0.83798  1.0000
  C   C451      1.0  0.72195  0.95766  0.82280  1.0000
  Fe  Fe63      1.0  0.67116  0.63562  0.56491  1.0000
  H   H532      1.0  0.90987  0.89066  0.77029  1.0000
  H   H533      1.0  0.74116  0.69820  0.59370  1.0000
  C   C452      1.0  0.66927  0.53061  0.53428  1.0000
  H   H534      1.0  0.70175  0.74347  0.57311  1.0000
  C   C453      1.0  0.73953  0.97480  0.79566  1.0000
  H   H535      1.0  0.96636  0.95416  0.72004  1.0000
  C   C454      1.0  0.76807  0.75872  0.56664  1.0000
  H   H536      1.0  0.98907  0.76400  0.73137  1.0000
  C   C455      1.0  0.72880  0.84419  0.99499  1.0000
  H   H537      1.0  0.91762  0.74734  0.87171  1.0000
  C   C456      1.0  0.77615  0.93540  0.84603  1.0000
  S   S127      1.0  0.68480  0.63468  0.50691  1.0000
  H   H538      1.0  0.78857  0.98479  0.77211  1.0000
  C   C457      1.0  0.77512  0.97211  0.79357  1.0000
  C   C458      1.0  0.98449  0.78188  0.83277  1.0000
  C   C459      1.0  0.95697  0.86289  0.72931  1.0000
  H   H539      1.0  0.82453  0.78711  0.96025  1.0000
  H   H540      1.0  0.71878  0.86847  0.84656  1.0000
  C   C460      1.0  0.73650  0.92919  0.91173  1.0000
  C   C461      1.0  0.91697  0.71893  0.86519  1.0000
  H   H541      1.0  0.92564  0.90211  0.67578  1.0000
  H   H542      1.0  0.67127  0.91169  0.85209  1.0000
  H   H543      1.0  0.71407  0.80272  0.95751  1.0000
  H   H544      1.0  0.87265  0.82947  0.97684  1.0000
  C   C462      1.0  0.94062  0.83545  0.70799  1.0000
  C   C463      1.0  0.71121  0.73975  0.54618  1.0000
  H   H545      1.0  0.89364  0.89068  0.70771  1.0000
  H   H546      1.0  0.94544  0.59035  0.88282  1.0000
  H   H547      1.0  0.69416  0.71813  0.53388  1.0000
  H   H548      1.0  0.72403  0.91429  0.93359  1.0000
  N   N31       1.0  0.97614  0.63876  0.87218  1.0000
  C   C464      1.0  0.68422  0.92208  0.87672  1.0000
  H   H549      1.0  0.79908  0.90142  0.98746  1.0000
  H   H550      1.0  0.77772  0.68691  0.56973  1.0000
  C   C465      1.0  0.76201  0.72555  0.51180  1.0000
  Fe  Fe64      1.0  0.68129  0.67155  0.63626  1.0000
  N   N32       1.0  0.70679  0.52369  0.53627  1.0000
  H   H551      1.0  0.91845  0.84024  0.69090  1.0000
  H   H552      1.0  0.70722  0.76542  0.53174  1.0000
  H   H553      1.0  0.82504  0.95765  0.68526  1.0000
  C   C466      1.0  0.83896  0.97546  0.70363  1.0000
  H   H554      1.0  0.87539  0.97620  0.78592  1.0000
  H   H555      1.0  0.96728  0.71242  0.88670  1.0000
  H   H556      1.0  0.75705  0.76357  0.59273  1.0000
  C   C467      1.0  0.98511  0.85266  0.75159  1.0000
  C   C468      1.0  0.79735  0.71800  0.50823  1.0000
  C   C469      1.0  0.78067  0.87968  0.98088  1.0000
  H   H557      1.0  0.73311  0.95846  0.91559  1.0000
  C   C470      1.0  0.88819  0.70357  0.84723  1.0000
  C   C471      1.0  0.94610  0.66136  0.86435  1.0000
  H   H558      1.0  0.86522  0.65574  0.82385  1.0000
  H   H559      1.0  0.95205  0.90539  0.78583  1.0000
  C   C472      1.0  0.97476  0.92585  0.72217  1.0000
  C   C473      1.0  0.94558  0.69832  0.87371  1.0000
  H   H560      1.0  0.72549  0.98988  0.77576  1.0000
  H   H561      1.0  0.91460  0.61863  0.83841  1.0000
  H   H562      1.0  0.73508  0.67392  0.55343  1.0000
  C   C474      1.0  0.91614  0.64648  0.84642  1.0000
  C   C475      1.0  0.99675  0.81754  0.75180  1.0000
  H   H563      1.0  0.67196  0.90704  0.89863  1.0000
  H   H564      1.0  0.76456  0.92458  0.91515  1.0000
  H   H565      1.0  0.95535  0.61851  0.92008  1.0000
  C   C476      1.0  0.72335  0.54950  0.56172  1.0000
  H   H566      1.0  0.90937  0.93583  0.70340  1.0000
  H   H567      1.0  0.98500  0.70380  0.78629  1.0000
  C   C477      1.0  0.85543  0.81938  0.99668  1.0000
  H   H568      1.0  0.82100  0.95003  0.81674  1.0000
  H   H569      1.0  0.81459  0.71537  0.53089  1.0000
  H   H570      1.0  0.96984  0.60410  0.82666  1.0000
  H   H571      1.0  0.98674  0.91902  0.69715  1.0000
  H   H572      1.0  0.77469  0.51293  0.52240  1.0000
  H   H573      1.0  0.99300  0.64585  0.81958  1.0000
  H   H574      1.0  0.98797  0.59132  0.90245  1.0000
  C   C478      1.0  0.98850  0.62399  0.83907  1.0000
  C   C479      1.0  0.95227  0.80026  0.70873  1.0000
  S   S128      1.0  0.66652  0.53045  0.64364  1.0000
  H   H575      1.0  0.93913  0.77960  0.69272  1.0000
  C   C480      1.0  0.98038  0.79139  0.73044  1.0000
  H   H576      1.0  0.99526  0.92577  0.74328  1.0000
