data_image0
_chemical_formula_structural       H2SFeS3FeSCFeS2FeSFeS3HFeS3FeSFeS2HC3HCHNC3HCH2C5H2C6H4C6H4FeC3H2C2HC5H3NCH4C2HC3H7NC4HNC9H20CH2CFeHCH2C2H4CH2NSCHC6HFeS2CH9C4HC2H2CSH3NHC2H4CH3C2H5C2H2C2HFeC2SC2H2C3FeSH3C3HC2HNH2FeCH3SC4HS2HC2HCH3CSH2C3HCHFeHCSHC4H3SH3SHCHCHC2H4CH2NHCHSH2NH2FeH3NHCHCH3NHC2H5C2FeS2FeS2FeSFeS3FeS2FeS2FeSFeS3H5CNHCHC2H4SCFeSH2CHC3SCHFeS2CH5CH2S2C4H4FeCH4CH2C4FeH3C5HCH4NC6H4C6H4C6H4SC6H3C6H3NHC3HFeCHC2H4C2H3C2H2C2H2NC9H14SH4CH4C2H3Fe2SCHC2H2C2FeC3FeHC2H2C3H2CH2C3HNCSH2CSCHCH6CHCH5NC2HC2SHCHSH2C2H2CSH2C2HCH2SCH3CHC2H2SHCH3NSCHCH2Fe2H2Fe2CH3SCS2H3SHFeSFeSFeCSCFeS2FeS2Fe2S6FeSFeSC2FeNSH2FeS2Fe2SFeSCHC3HC3H2SH7C6SH2C4H2C6H4C6H4C6H4CHCH2C5H4CSH2SHCFeC2HC5FeH3C2HFeSHC3SC3HSC2HC3HC2H2CH2CH2C4H3C2FeC3HCHCNHCH2CHCH2SCHC2H3SC2H4CH3C2H2NC9H14C2H3C4H3SCH3C2HSH2NH2C2H2C2H2SC2HNC2H3CN2H2CSH3CH2CH2NC7H10SFeH2SCHSHNHC5H2SCH3CH5C2SC2H5CH3CH3NCH11CH7SC3NC2H7SHCNHCH3CH2CH2C2HCH2CH3C2HNSNFeS2FeS2FeSFeS3FeHSFeS2FeS2FeS2FeSFeS3C2HC3HC6H4C6H4C6H4C6H4C6H5CHC3HNC2SCH2CHC4H5FeNC9H16C3HCH7CH2CHSCH2CH3CH2SCH4CH6CH3C3HCHC3NC2HCH3C2NSCHC2HC2HCSCSCH2C2HCH2NC9H14FeHC2H2FeCHNH4C4H2SH2CNS2C5HC2H2C2H4SNCHC3H6SH2C3H4CHC2SC4HS2CH2NC2FeCH3CH8CH3C2SHCH5CHCH3CH2CH2FeC3HFeHSCFeS2FeS2FeSFeS3FeS2FeS2FeSFeNS2CSCH2CH2FeC6H4C6H4C6H4SC2H2CH3C2SNHFeSC6H4FeCHCHC2HCHCNC2H2C4H2C2H2C2HCH2SCH2C4H4CH2CHCHC2H4CH2CHSH2SCH4C2HC4H3CHC3H3CH2NC5HCH2CH10CHC3H4NH2C2HSH4NHCH2C4H8SH2CFeCFeH4CH2CHCSFeS2FeS2Fe2S3HFeCSFeS2FeS2FeSFeS3FeS2HSFeSFeS3FeS2FeS2FeSFeS2NCHC2H2C6H4C7H4C6H4C7H3C6H5CH5FeH5CH2CSH2CHCH2NH4CHC5S2C2HCH3CHFeCHN2C9H14NC9H14CH3CHCHCFeC2HFeCSC2H3CHNC9H5CHCHCHSCH2CH3CHCS2C2FeHC4HCH2SC2H5CHCH2C2HFeCSHC2H2CHCHCHCSHCHCFeC2H2CH3SCHCH3CH2CH3NHCH5C3H3CH2NH2C2H2SHC2H5CH2C4HSH2CHNH2SHCHCFeSHSCFeC5HFeH3FeS2FeS2FeSFeS3CH2SFeS2FeS2FeHFeS3HFeS2FeS2FeSHCSH7SCH2C2HCHC2H2SHSHSC2H2C3HC6H2CHC6H4C6H4C6H4C2H2SCH2C4H3C6H6CHSCH2NC9H14NC6HFeH10CHC2HCHCHCHSHC3HCNHC2HC2NHC4H6C2NC9H12SH3CH2C3H3C2H2CH5CSH2NC2HC2H5SCHCHC2HC2SCH3CFeH4CH4FeC2H3C2H2CHCH3C2FeHS2HC3HSNSFeS2CHFeCHSHNHC3HFeC2HFeH5CH5SH2SHC2H2CFeC3HCH2C2HC2HCSH2SHC3H2C6H2CHC2HCHSHC2HCFeHS2CHCH2SCHCHCNHCH2CH2CHC3H3C2H3C3H2CFeH5C3HNHC6SH2C2SH2SCSC2H2FeSHFeS2FeS2FeSFeS3H5SCSFeS2FeSH2CH2C6H4C6H4C6H2SHCH5C6H5C3FeH3CS2C3H2CNC9H13C3H2CH5NHNHCH2C2H2SCHC2HCHC4H2CH3SC3NCH3S2CHCHC3HFeH2CFe2CH2SFeHFeCFeHFeSNCH2C2H3FeCH2C3H2SHC2HSH2C3HC2H2SCH2CHC3S2H2CH3C2H3NH2C3HCH3CH6NCH5C2NCFeCFeSCSH2SH3CH2CS2H4CHC3HCNH4C2HCSHSFeCHCH2SHCHC2SCH2CHCNCHNCHCH5FeS2FeS2FeSFeS3NCSCS2FeS2H7SCH2FeSHCHCHNHCH2C6H4C6H4C6H5CSHSFeHFe2SCHCHC6H7NC2HCHSHC4H4C3HCSCHFeC2HSCHC3H2C2HCHFeHNC9H14SH2C2FeH2CHC3HCHC2HCHCHC2H2CSHCNHCH3CHC3FeH2FeH2SC2H2CHC2HSC3HCHCH6CH9CH8CHCHSHC4H4Fe2C2FeS2FeSFeSNFeS2FeS2FeCFeS3HC2SC5H2C6H5C6SH2CFeH3FeC6H4C4S2H2FeS2H2FeH3C4H3CH2NC9H4CH9NC9H15CHCSHCHCHCSCH3C2H2SC2HN2HC2SCS2CHCH3SHCH3CHC2H2C2H2SFeSHSCHFeS2FeS2HFeCSFeS2FeS2FeSFeS3CSFeS3H2FeHSHC2HS2H4SH2CH6CH2CH2CHC6H4C6H4C2HC3H5C3FeH5C2H4C7H4C6H3C8H2SC3HCH2CHCHCH3CHCH2SHFeH3C2HNS2HC3HNC2HS2HCH4SHFeH3CH3CH2C3H2C2H4C2H2C2SFeHSCHNC5H2CH2C6HCHCHC2H4CH3CHC2H6C2H3SCH3C2H2FeCFeNC9HCH5CH6NCHN2HCH5CH2NHCH3CHNHCH3C2H4CH2NCH2FeS2CFeS2CFeS2FeS2FeSFeS3NSC2HS2Fe2S2CSH4CH6NH2CH2Fe2HCH3C6H3C7HCH2CH2SC2SH3C6H4C6H4C6H6C3FeH2C2HCFeH3C3H4SH3SCSHCHNC9H16CSCHSC2HCHCH2C2HC5HNSHC3H4CH3C3H4NCH3NC3H10C2HSNC9H14C4H2C2H3CHCH2CH3C3H3SC2HFeHC2SCH2CH3CHCFeSHSH3CH3C4HCHCH2CH2NCHCFeHSC2H3SHCFeH3CFeNHFeC2HCSC3HSH4C2NCHCSHSC2HCHC2H2CNFeS2FeS2FeSFeS3FeSCFeS2FeSFeS3HS2HFeHFeSH4CH2FeS2C2H2CNCH2CHC3HC7H4C6H4C6H6SCSHCNSH2C7H5CHSHCHCHCH2CSNC5H8C2HC2HC2H2C2H3C2FeHCH5CHNC6HC2H9CH3CHC4HC3HC2HC2FeH3CH2CH2C2HCHCHS2H2CHFeC3SC2HCH2CHNCHCHC2NCHC2HSH3CHCH3CH3SH4CH3CHCH3CHFeHNCH7C2SCHC2H3CH5SC3H2SFeS2FeHFeCSFeS2FeS2FeSFeCS2FeS3FeS2FeSFeSFeS2FeS2FeSFeS3HSCHCSH3CSHC2HCHCHC2HC6H4C6H4C7H2C7H3C6H4C3H3SCFeH2CH3SHCHNHC2H2CSH3C2HC6H3C2H3CH2CHCHCHCHC2H6CH4CH3SH2CH3CHC4HCH2CHCH2FeH2SC3NH3CH2NHSH4CHFeSNC6HC5H2CHC2H5CHNH2CFeCH2CH4C2HC4H3CH9CHCH4CHNH2C3HFeH2NC2HCSHC2H6CHCH4NCS2C2HCH5CHC2HFeNCH3C3HCHNCHCHCHC2H3FeC2HC3H6SHCH3C2H2CHC4H3CH2CH2SCH2C5NSHC2HSH2CHC2H2CHCFeSCFeS2FeS2FeSFeS3HCH5CFeCSFeHFeS3FeS2H2SHCHCHC3HCH2CH2C2HC3HCH2SHC2HC5H3C6H4C6H4C6H4SCHCHCHCHCHCFeH2SCSHCHC3H2SCHC3HCHCH4FeCH2C2H3CSCHC2H2C2H3C4S2HC3H4CHCHCH3CH2C2H2CH3CHCNHC6H3SCH4C2H2C2H7NC3SCHNC9H14NHC5H5CHC3H2NC2H3C3SHNCH3NC2HFeC2HCH4CHC2HC2H7CSH2SHC3SCFeHC2H2CHCFeS2FeS2FeSFeS4NFeS2FeHSHCFeCS2H3NCHCS2FeHFeSHSCH3C5H3CHFeCHC2FeHCNFe2H2CSH2CHCHCSC2HC2H3CFeH2CHCHSCH3CHC6H4C6H4C6H4C6H4SH2NC9H4CH2CH5SHSFeHSCFeCH2CS2HCH4CFeH2CHCH6C3NC4HC2FeH12CHC2HNH2C3H3SH7C2NH3FeCH2C3H3SHSHC2HSH2CH2C2HCSCH2SCHSCH2FeCSCH2S2H5C2HFeS2Fe2S2FeS2FeS2FeSFeS3CH2FeS2CH4CFeS2FeSFeSCFeS3FeS2FeS2FeS3FeH2CHC2HCHCFeHCH3C2SC7H4C4H2C6H4C6H4CS2CHC2HC4H7C2H2C3H2C2H2C6H3C6H4C3H6C3NH2CHSHCHCH4C4H3CHCH4CFeH4C2HCNHCHC3SCHC2H4CH2CHCHCH2CNC4HCHC2H9CHC3H2S2HCFeH2CHFeHCHSC3H2NC4H7NCSFeC6HC2HCHCHCH3CH3C2HCH2C2H4CHCHCHC2NHCH6CHCH2C2H2C2HCH2NC3HNC3H4NHSH2C2HC2H2CH2CHSCH2NH2NH3S2H2CHSFeH3C2H2CH2CH3CSCSH4FeCFeS2FeS2FeSFeS4FeSHFeS2CHS2CHCHSHSH3CFe2HCNHSC6H4C6H4C2HC7H3NC6H5CHC2HCHC2NC7HCH11C5H3SH2FeH2CHC2HCNC2HCHCH3CHFeCSH3C3H2C3SC2H2CHC3H3CH2CH2C3SH2CHFeCNC9H16C3H4CH2C2H2CSC4FeHSHCHFeH2CHCH4FeHSHC3NC2HCFeHNCHC2FeCS2FeSHFeSCFeSFeSHSHCHFeS2HCHSHFeHSHC4H2CHC2H3C2H2C2HSH3C2HCNHC6H5CHC2SH2NH2C6H2SH4CH2CSCNCFeHCHCH4CHC5H2CNC2H2CSCH2C2HCH2CHCNSHCH2CHC3H4SCH2NH3CH2CH2CHCH2SCHCH3CHCHC2H4FeHSCHSHCSCH4FeS2FeS2FeSFeS3CHSHCFeSH3SCFeS2FeSHFeSFeS2HSCFeSHFeSFeS2HCSC6H2CHC6H5C3H6C2H2C2H5C6H4C6H5SCH2C4H4CH3SH3CHC6H4FeH2C2FeHSHCHNC4HCHCH12CHCNC4FeHCH2C2HCH3CNHCSHCH2CHCNCH2SHSCNCHC2HC2HFeHC2SCH9C2HC2H4CHC2HCH2CHCH2CH2C3NH2CHCH2CHCH2N2CH3C2H2CHCH2CH2C3FeSCSFe2SFeSHSHS2HSCFeSHFeS2FeCFeS3FeSFe2SCFeSFeSCH4C2NC2H3CHCHCNC3SH3C6H4CHC2H3C2HC6H4C6HCH2CSHSHCHCH2C5H2CH4NC9H14SH8SHC2SHC2HCNSH2SC5HCHCH3C2NH4NC9H15C2HC4H2CFeHC2H3C4H4CH5CFeSHCH2CHSHNCH3CSC2S3FeSH3C2HS2HCH3FeSHSHCH2CH2CSH2SH2C2SFeHCHC4H4NC7H5C2HCHC2HCFeCNCH2C2H4CH5C3HC2H2CHCSHCH4CH2CFeCHNCH3C3H3C2H2C2H2C3HC2SNH4C3H3FeCHC2HC2NH3CSCFeSCHSCFeS2HSH3FeSCSFeSCSHFeS2FeS2FeSFeS3HFeS2FeS2Fe2HS2Fe2SHCNHC2HCFeC8H6C4HCH2C6H4C6H3C6H4NCH2C2HCHC6H4CSH2C3H3CH3C2H4CHC2H2CSC2HCSHSC2FeHCH2C4H2NH4NC9H17C3NC9H14CH3CH2CHC3H4C3HSH3CH2NHS2CSC2HCSC2SHCHSH3C5H5NH2CHC2H2CH2CHC2H3C2HNHC2HCHC2H5SHC2H4C2H2CHCH2FeCSCH3
_chemical_formula_sum              "H3456 S768 Fe384 C2880 N192"
_cell_length_a       74.4996
_cell_length_b       73.7485
_cell_length_c       74.4177
_cell_angle_alpha    74.5205
_cell_angle_beta     74.9809
_cell_angle_gamma    74.7846

_space_group_name_H-M_alt    "P 1"
_space_group_IT_number       1

loop_
  _space_group_symop_operation_xyz
  'x, y, z'

loop_
  _atom_site_type_symbol
  _atom_site_label
  _atom_site_symmetry_multiplicity
  _atom_site_fract_x
  _atom_site_fract_y
  _atom_site_fract_z
  _atom_site_occupancy
  H   H1        1.0  0.13336  0.16409  0.28208  1.0000
  H   H2        1.0  0.06089  0.28981  0.22127  1.0000
  S   S1        1.0  0.19245  0.42327  0.24457  1.0000
  Fe  Fe1       1.0  0.13245  0.42719  0.22234  1.0000
  S   S2        1.0  0.11403  0.40492  0.23282  1.0000
  S   S3        1.0  0.03294  0.35887  0.22255  1.0000
  S   S4        1.0  0.16334  0.41519  0.21233  1.0000
  Fe  Fe2       1.0  0.18826  0.35296  0.08648  1.0000
  S   S5        1.0  0.17010  0.38067  0.07431  1.0000
  C   C1        1.0  0.08794  0.18899  0.28359  1.0000
  Fe  Fe3       1.0  0.15505  0.33429  0.10639  1.0000
  S   S6        1.0  0.13382  0.36009  0.09579  1.0000
  S   S7        1.0  0.14654  0.30831  0.12741  1.0000
  Fe  Fe4       1.0  0.15456  0.36162  0.06779  1.0000
  S   S8        1.0  0.14737  0.37179  0.03854  1.0000
  Fe  Fe5       1.0  0.15090  0.37702  0.10312  1.0000
  S   S9        1.0  0.13423  0.40010  0.11923  1.0000
  S   S10       1.0  0.17435  0.33408  0.07774  1.0000
  S   S11       1.0  0.17049  0.35108  0.11595  1.0000
  H   H3        1.0  0.09041  0.36090  0.13861  1.0000
  Fe  Fe6       1.0  0.04680  0.37316  0.19353  1.0000
  S   S12       1.0  0.06994  0.34765  0.18858  1.0000
  S   S13       1.0  0.05565  0.40161  0.18571  1.0000
  S   S14       1.0  0.03653  0.32225  0.20349  1.0000
  Fe  Fe7       1.0  0.05483  0.33268  0.21648  1.0000
  S   S15       1.0  0.07052  0.31534  0.23956  1.0000
  Fe  Fe8       1.0  0.04949  0.33982  0.17603  1.0000
  S   S16       1.0  0.05721  0.33107  0.14793  1.0000
  S   S17       1.0  0.02737  0.36669  0.17851  1.0000
  H   H4        1.0  0.17838  0.23534  0.11504  1.0000
  C   C2        1.0  0.13036  0.23535  0.24947  1.0000
  C   C3        1.0  0.21914  0.03428  0.24662  1.0000
  C   C4        1.0  0.16625  0.40812  0.12492  1.0000
  H   H5        1.0  0.99126  0.23563  0.30422  1.0000
  C   C5        1.0  0.19027  0.27483  0.03669  1.0000
  H   H6        1.0  0.01530  0.26016  0.24967  1.0000
  N   N1        1.0  0.10797  0.18629  0.28520  1.0000
  C   C6        1.0  0.05125  0.35713  0.27082  1.0000
  C   C7        1.0  0.18223  0.18645  0.25643  1.0000
  C   C8        1.0  0.11408  0.23781  0.26362  1.0000
  H   H7        1.0  0.13435  0.35753  0.98335  1.0000
  C   C9        1.0  0.22394  0.08899  0.28703  1.0000
  H   H8        1.0  0.21323  0.20307  0.26608  1.0000
  H   H9        1.0  0.08213  0.17582  0.29058  1.0000
  C   C10       1.0  0.00161  0.33711  0.14444  1.0000
  C   C11       1.0  0.06795  0.29138  0.24703  1.0000
  C   C12       1.0  0.07086  0.28133  0.26516  1.0000
  C   C13       1.0  0.06712  0.26288  0.27232  1.0000
  C   C14       1.0  0.06100  0.25411  0.26119  1.0000
  H   H10       1.0  0.07554  0.28792  0.27395  1.0000
  H   H11       1.0  0.06888  0.25552  0.28659  1.0000
  C   C15       1.0  0.14058  0.35718  0.02731  1.0000
  C   C16       1.0  0.14020  0.36348  0.00786  1.0000
  C   C17       1.0  0.05921  0.38880  0.13581  1.0000
  C   C18       1.0  0.12873  0.33542  0.00833  1.0000
  C   C19       1.0  0.12910  0.32907  0.02783  1.0000
  C   C20       1.0  0.13517  0.33984  0.03729  1.0000
  H   H12       1.0  0.17941  0.26804  0.03566  1.0000
  H   H13       1.0  0.07335  0.36465  0.11133  1.0000
  H   H14       1.0  0.12468  0.31579  0.03561  1.0000
  H   H15       1.0  0.13532  0.33496  0.05232  1.0000
  C   C21       1.0  0.12166  0.31286  0.13308  1.0000
  C   C22       1.0  0.11124  0.32030  0.11861  1.0000
  C   C23       1.0  0.09134  0.32487  0.12321  1.0000
  C   C24       1.0  0.08187  0.32280  0.14228  1.0000
  C   C25       1.0  0.09226  0.31509  0.15676  1.0000
  C   C26       1.0  0.11214  0.30983  0.15215  1.0000
  H   H16       1.0  0.11855  0.32248  0.10385  1.0000
  H   H17       1.0  0.08336  0.33048  0.11197  1.0000
  H   H18       1.0  0.08500  0.31308  0.17152  1.0000
  H   H19       1.0  0.12012  0.30392  0.16338  1.0000
  Fe  Fe9       1.0  0.16877  0.43441  0.22826  1.0000
  C   C27       1.0  0.14527  0.43006  0.15187  1.0000
  C   C28       1.0  0.13599  0.42179  0.14293  1.0000
  C   C29       1.0  0.14645  0.41070  0.12955  1.0000
  H   H20       1.0  0.13706  0.43844  0.16224  1.0000
  H   H21       1.0  0.12066  0.42383  0.14657  1.0000
  C   C30       1.0  0.09872  0.40404  0.21869  1.0000
  C   C31       1.0  0.09324  0.41965  0.20433  1.0000
  H   H22       1.0  0.01267  0.30276  0.13380  1.0000
  C   C32       1.0  0.07268  0.40221  0.19801  1.0000
  C   C33       1.0  0.07864  0.38638  0.21193  1.0000
  C   C34       1.0  0.09160  0.38732  0.22223  1.0000
  C   C35       1.0  0.05907  0.26366  0.24261  1.0000
  C   C36       1.0  0.01718  0.30406  0.14647  1.0000
  H   H23       1.0  0.07296  0.37355  0.21510  1.0000
  H   H24       1.0  0.09587  0.37513  0.23322  1.0000
  H   H25       1.0  0.03096  0.30895  0.14136  1.0000
  N   N2        1.0  0.23351  0.30112  0.04216  1.0000
  C   C37       1.0  0.23452  0.45136  0.22591  1.0000
  H   H26       1.0  0.07252  0.42201  0.12233  1.0000
  H   H27       1.0  0.20329  0.99907  0.17921  1.0000
  H   H28       1.0  0.22118  0.24765  0.98006  1.0000
  H   H29       1.0  0.21351  0.10220  0.29021  1.0000
  C   C38       1.0  0.18282  0.46604  0.27282  1.0000
  C   C39       1.0  0.06243  0.28240  0.23557  1.0000
  H   H30       1.0  0.20685  0.13899  0.23938  1.0000
  C   C40       1.0  0.18897  0.15165  0.26265  1.0000
  C   C41       1.0  0.18029  0.16879  0.26882  1.0000
  C   C42       1.0  0.13447  0.35257  0.99836  1.0000
  H   H31       1.0  0.23287  0.28636  0.07146  1.0000
  H   H32       1.0  0.21596  0.28701  0.12705  1.0000
  H   H33       1.0  0.05191  0.31770  0.27882  1.0000
  H   H34       1.0  0.17715  0.48060  0.15707  1.0000
  H   H35       1.0  0.16688  0.31753  0.00460  1.0000
  H   H36       1.0  0.08493  0.38742  0.27480  1.0000
  H   H37       1.0  0.20253  0.31955  0.11016  1.0000
  N   N3        1.0  0.22753  0.21506  0.14886  1.0000
  C   C43       1.0  0.19281  0.18705  0.23783  1.0000
  C   C44       1.0  0.21013  0.43278  0.26748  1.0000
  C   C45       1.0  0.19422  0.43769  0.25911  1.0000
  C   C46       1.0  0.14197  0.03647  0.29583  1.0000
  H   H38       1.0  0.23432  0.07377  0.19080  1.0000
  N   N4        1.0  0.14410  0.36922  0.18473  1.0000
  C   C47       1.0  0.15490  0.38434  0.18221  1.0000
  C   C48       1.0  0.12681  0.37858  0.17665  1.0000
  C   C49       1.0  0.13832  0.36172  0.20546  1.0000
  C   C50       1.0  0.15514  0.35305  0.17554  1.0000
  C   C51       1.0  0.17477  0.35128  0.16688  1.0000
  C   C52       1.0  0.14632  0.33819  0.17543  1.0000
  C   C53       1.0  0.18475  0.33569  0.15848  1.0000
  C   C54       1.0  0.15640  0.32279  0.16682  1.0000
  C   C55       1.0  0.17556  0.32154  0.15837  1.0000
  H   H39       1.0  0.16006  0.39022  0.16687  1.0000
  H   H40       1.0  0.14598  0.39675  0.18847  1.0000
  H   H41       1.0  0.16727  0.37886  0.18934  1.0000
  H   H42       1.0  0.13053  0.38245  0.16081  1.0000
  H   H43       1.0  0.11923  0.39203  0.18172  1.0000
  H   H44       1.0  0.11620  0.36931  0.18068  1.0000
  H   H45       1.0  0.15086  0.35354  0.21178  1.0000
  H   H46       1.0  0.13124  0.37357  0.21315  1.0000
  H   H47       1.0  0.12815  0.35205  0.20870  1.0000
  H   H48       1.0  0.18271  0.36189  0.16610  1.0000
  H   H49       1.0  0.13149  0.33848  0.18182  1.0000
  H   H50       1.0  0.19957  0.33488  0.15146  1.0000
  H   H51       1.0  0.14925  0.31195  0.16629  1.0000
  H   H52       1.0  0.18316  0.30989  0.15121  1.0000
  H   H53       1.0  0.11258  0.40840  0.06545  1.0000
  H   H54       1.0  0.08790  0.37613  0.15478  1.0000
  H   H55       1.0  0.18752  0.13796  0.27220  1.0000
  H   H56       1.0  0.10170  0.41259  0.09802  1.0000
  H   H57       1.0  0.08472  0.36125  0.07834  1.0000
  H   H58       1.0  0.18509  0.27533  0.14391  1.0000
  C   C56       1.0  0.11604  0.20287  0.27297  1.0000
  H   H59       1.0  0.02190  0.32336  0.17053  1.0000
  H   H60       1.0  0.01547  0.29444  0.23547  1.0000
  C   C57       1.0  0.20913  0.26491  0.03505  1.0000
  Fe  Fe10      1.0  0.01566  0.34977  0.20706  1.0000
  H   H61       1.0  0.07445  0.41100  0.14656  1.0000
  C   C58       1.0  0.09158  0.37538  0.13947  1.0000
  H   H62       1.0  0.10681  0.37623  0.13404  1.0000
  H   H63       1.0  0.09532  0.41132  0.12888  1.0000
  C   C59       1.0  0.18534  0.29351  0.03971  1.0000
  C   C60       1.0  0.09688  0.40173  0.09434  1.0000
  H   H64       1.0  0.09859  0.43261  0.20152  1.0000
  H   H65       1.0  0.21526  0.04599  0.23440  1.0000
  H   H66       1.0  0.05131  0.30450  0.30270  1.0000
  H   H67       1.0  0.05372  0.39196  0.15031  1.0000
  C   C61       1.0  0.21758  0.31374  0.10666  1.0000
  H   H68       1.0  0.99960  0.28967  0.28681  1.0000
  H   H69       1.0  0.21143  0.03882  0.26019  1.0000
  N   N5        1.0  0.21517  0.01585  0.24573  1.0000
  S   S18       1.0  0.20237  0.47669  0.29349  1.0000
  C   C62       1.0  0.07602  0.36017  0.28479  1.0000
  H   H70       1.0  0.10679  0.25219  0.26543  1.0000
  C   C63       1.0  0.19495  0.01691  0.24606  1.0000
  C   C64       1.0  0.18912  0.00077  0.24417  1.0000
  C   C65       1.0  0.18046  0.03343  0.24896  1.0000
  C   C66       1.0  0.17005  0.00112  0.24515  1.0000
  C   C67       1.0  0.16142  0.03360  0.24991  1.0000
  C   C68       1.0  0.15621  0.01745  0.24815  1.0000
  H   H71       1.0  0.23776  0.32642  0.04870  1.0000
  Fe  Fe11      1.0  0.13911  0.46799  0.21396  1.0000
  S   S19       1.0  0.22009  0.34751  0.08039  1.0000
  S   S20       1.0  0.14969  0.12071  0.29655  1.0000
  C   C69       1.0  0.08384  0.31692  0.28880  1.0000
  H   H72       1.0  0.99702  0.33796  0.13109  1.0000
  H   H73       1.0  0.21221  0.25280  0.15510  1.0000
  H   H74       1.0  0.06202  0.40151  0.25360  1.0000
  H   H75       1.0  0.23242  0.09292  0.27243  1.0000
  H   H76       1.0  0.17220  0.47893  0.27488  1.0000
  H   H77       1.0  0.18333  0.04630  0.25093  1.0000
  H   H78       1.0  0.18034  0.28594  0.99717  1.0000
  H   H79       1.0  0.15048  0.04609  0.25272  1.0000
  H   H80       1.0  0.14133  0.01747  0.24962  1.0000
  C   C70       1.0  0.13589  0.05606  0.29626  1.0000
  C   C71       1.0  0.18579  0.23877  0.12406  1.0000
  C   C72       1.0  0.10845  0.18489  0.30532  1.0000
  C   C73       1.0  0.16028  0.02700  0.29865  1.0000
  H   H81       1.0  0.12180  0.06353  0.29398  1.0000
  C   C74       1.0  0.22949  0.32459  0.09271  1.0000
  C   C75       1.0  0.18958  0.26124  0.14039  1.0000
  H   H82       1.0  0.23756  0.17447  0.25611  1.0000
  H   H83       1.0  0.19982  0.18848  0.28535  1.0000
  C   C76       1.0  0.17996  0.25663  0.12905  1.0000
  S   S21       1.0  0.05360  0.23237  0.27162  1.0000
  H   H84       1.0  0.23736  0.09018  0.21460  1.0000
  H   H85       1.0  0.05446  0.25683  0.23392  1.0000
  H   H86       1.0  0.21576  0.07858  0.28644  1.0000
  N   N6        1.0  0.00243  0.31759  0.15695  1.0000
  H   H87       1.0  0.08512  0.30168  0.29686  1.0000
  C   C77       1.0  0.19918  0.30231  0.04133  1.0000
  C   C78       1.0  0.21278  0.44483  0.27787  1.0000
  H   H88       1.0  0.01575  0.34122  0.14016  1.0000
  H   H89       1.0  0.09565  0.32224  0.29087  1.0000
  H   H90       1.0  0.14266  0.08098  0.30077  1.0000
  H   H91       1.0  0.19444  0.20073  0.22834  1.0000
  C   C79       1.0  0.06384  0.34871  0.28371  1.0000
  H   H92       1.0  0.16516  0.01194  0.29825  1.0000
  H   H93       1.0  0.22140  0.16126  0.27263  1.0000
  H   H94       1.0  0.22549  0.44127  0.28360  1.0000
  C   C80       1.0  0.05054  0.37603  0.26029  1.0000
  C   C81       1.0  0.06234  0.38700  0.26210  1.0000
  H   H95       1.0  0.19431  0.31682  0.04361  1.0000
  H   H96       1.0  0.99998  0.31284  0.24761  1.0000
  H   H97       1.0  0.13540  0.48327  0.15961  1.0000
  H   H98       1.0  0.07831  0.20057  0.29055  1.0000
  H   H99       1.0  0.21561  0.31990  0.06047  1.0000
  C   C82       1.0  0.20508  0.24802  0.14686  1.0000
  C   C83       1.0  0.11841  0.16759  0.28018  1.0000
  H   H100      1.0  0.16809  0.45806  0.25557  1.0000
  H   H101      1.0  0.21178  0.00437  0.27591  1.0000
  C   C84       1.0  0.21121  0.22949  0.14231  1.0000
  C   C85       1.0  0.22168  0.19655  0.15885  1.0000
  H   H102      1.0  0.21119  0.47796  0.20289  1.0000
  Fe  Fe12      1.0  0.13311  0.99183  0.29735  1.0000
  C   C86       1.0  0.13973  0.21692  0.24699  1.0000
  C   C87       1.0  0.22517  0.29528  0.11618  1.0000
  S   S22       1.0  0.16777  0.16856  0.29223  1.0000
  C   C88       1.0  0.14772  0.06599  0.30008  1.0000
  C   C89       1.0  0.23387  0.16741  0.27144  1.0000
  H   H103      1.0  0.13566  0.24777  0.24035  1.0000
  H   H104      1.0  0.22426  0.26666  0.98911  1.0000
  C   C90       1.0  0.08042  0.40967  0.13151  1.0000
  C   C91       1.0  0.16506  0.42764  0.14715  1.0000
  C   C92       1.0  0.19994  0.15224  0.24413  1.0000
  Fe  Fe13      1.0  0.16003  0.14033  0.30811  1.0000
  S   S23       1.0  0.02935  0.26266  0.30865  1.0000
  H   H105      1.0  0.22074  0.41991  0.26544  1.0000
  H   H106      1.0  0.18636  0.02961  0.30438  1.0000
  H   H107      1.0  0.11833  0.16750  0.26527  1.0000
  C   C93       1.0  0.10332  0.39946  0.07549  1.0000
  C   C94       1.0  0.08120  0.37497  0.10163  1.0000
  C   C95       1.0  0.07523  0.37901  0.27412  1.0000
  H   H108      1.0  0.16838  0.47729  0.13846  1.0000
  C   C96       1.0  0.08020  0.41874  0.19405  1.0000
  C   C97       1.0  0.22624  0.32045  0.04681  1.0000
  H   H109      1.0  0.20706  0.15502  0.30265  1.0000
  N   N7        1.0  0.07924  0.39099  0.12828  1.0000
  H   H110      1.0  0.03570  0.32754  0.29829  1.0000
  H   H111      1.0  0.17561  0.19970  0.26127  1.0000
  Fe  Fe14      1.0  0.16192  0.44080  0.18818  1.0000
  C   C98       1.0  0.17552  0.41683  0.13351  1.0000
  H   H112      1.0  0.17440  0.39959  0.11458  1.0000
  H   H113      1.0  0.16806  0.26708  0.12399  1.0000
  H   H114      1.0  0.07566  0.43102  0.18326  1.0000
  S   S24       1.0  0.17689  0.43777  0.15839  1.0000
  C   C99       1.0  0.08539  0.38964  0.10799  1.0000
  C   C100      1.0  0.22726  0.01030  0.22798  1.0000
  C   C101      1.0  0.21234  0.19536  0.28125  1.0000
  C   C102      1.0  0.20188  0.16995  0.23174  1.0000
  H   H115      1.0  0.08631  0.31700  0.27334  1.0000
  S   S25       1.0  0.13064  0.45165  0.19695  1.0000
  S   S26       1.0  0.13793  0.44450  0.24050  1.0000
  H   H116      1.0  0.19084  0.41492  0.12982  1.0000
  C   C103      1.0  0.05027  0.31933  0.29364  1.0000
  C   C104      1.0  0.19909  0.46142  0.28063  1.0000
  H   H117      1.0  0.21301  0.25035  0.03270  1.0000
  C   C105      1.0  0.18048  0.45428  0.26189  1.0000
  H   H118      1.0  0.10436  0.38295  0.05524  1.0000
  H   H119      1.0  0.14435  0.37690  0.00010  1.0000
  H   H120      1.0  0.02000  0.29738  0.25672  1.0000
  C   C106      1.0  0.21849  0.29245  0.04017  1.0000
  S   S27       1.0  0.21690  0.17079  0.20926  1.0000
  H   H121      1.0  0.22706  0.99550  0.22728  1.0000
  H   H122      1.0  0.14098  0.18700  0.25602  1.0000
  C   C107      1.0  0.17799  0.31606  0.99207  1.0000
  C   C108      1.0  0.09875  0.38505  0.06971  1.0000
  C   C109      1.0  0.08772  0.37282  0.08276  1.0000
  H   H123      1.0  0.05750  0.37388  0.13750  1.0000
  C   C110      1.0  0.21408  0.26194  0.98359  1.0000
  H   H124      1.0  0.22207  0.44956  0.22222  1.0000
  Fe  Fe15      1.0  0.23154  0.46904  0.30017  1.0000
  H   H125      1.0  0.16590  0.98845  0.24413  1.0000
  C   C111      1.0  0.19712  0.98672  0.18117  1.0000
  S   S28       1.0  0.17038  0.45905  0.20303  1.0000
  H   H126      1.0  0.04974  0.39873  0.12639  1.0000
  C   C112      1.0  0.20119  0.22539  0.13051  1.0000
  C   C113      1.0  0.22306  0.27357  0.03669  1.0000
  C   C114      1.0  0.22093  0.00107  0.26226  1.0000
  C   C115      1.0  0.13285  0.20084  0.25861  1.0000
  H   H127      1.0  0.01142  0.30336  0.18358  1.0000
  H   H128      1.0  0.20938  0.19859  0.17092  1.0000
  H   H129      1.0  0.99517  0.28258  0.17817  1.0000
  S   S29       1.0  0.12605  0.02432  0.29234  1.0000
  H   H130      1.0  0.23748  0.26530  0.03534  1.0000
  H   H131      1.0  0.99759  0.32737  0.18288  1.0000
  H   H132      1.0  0.08646  0.35457  0.29369  1.0000
  S   S30       1.0  0.18072  0.06867  0.30847  1.0000
  H   H133      1.0  0.20188  0.25916  0.99542  1.0000
  C   C116      1.0  0.23748  0.46965  0.22593  1.0000
  H   H134      1.0  0.17064  0.30127  0.04093  1.0000
  C   C117      1.0  0.17230  0.03705  0.30207  1.0000
  H   H135      1.0  0.08654  0.19280  0.26842  1.0000
  C   C118      1.0  0.10695  0.22186  0.27519  1.0000
  C   C119      1.0  0.00835  0.29777  0.24966  1.0000
  H   H136      1.0  0.04105  0.38213  0.25033  1.0000
  H   H137      1.0  0.22462  0.22380  0.17508  1.0000
  H   H138      1.0  0.19860  0.47651  0.22737  1.0000
  H   H139      1.0  0.20920  0.20623  0.29014  1.0000
  C   C120      1.0  0.23555  0.22099  0.16219  1.0000
  H   H140      1.0  0.23336  0.18573  0.16492  1.0000
  H   H141      1.0  0.02060  0.26393  0.27039  1.0000
  N   N8        1.0  0.99624  0.28385  0.26103  1.0000
  H   H142      1.0  0.13181  0.23017  0.29943  1.0000
  C   C121      1.0  0.16595  0.05651  0.30305  1.0000
  H   H143      1.0  0.20538  0.21186  0.12598  1.0000
  S   S31       1.0  0.12152  0.32150  0.99663  1.0000
  H   H144      1.0  0.22264  0.02037  0.21512  1.0000
  H   H145      1.0  0.15242  0.21502  0.23596  1.0000
  N   N9        1.0  0.23004  0.18106  0.28415  1.0000
  H   H146      1.0  0.11189  0.15544  0.28948  1.0000
  H   H147      1.0  0.09409  0.22449  0.28577  1.0000
  Fe  Fe16      1.0  0.04339  0.23356  0.30242  1.0000
  H   H148      1.0  0.12329  0.18290  0.30707  1.0000
  H   H149      1.0  0.04201  0.34936  0.26834  1.0000
  H   H150      1.0  0.21969  0.33115  0.03540  1.0000
  N   N10       1.0  0.06498  0.32879  0.29519  1.0000
  H   H151      1.0  0.02045  0.28942  0.15543  1.0000
  C   C122      1.0  0.00879  0.26446  0.26356  1.0000
  H   H152      1.0  0.23848  0.20602  0.12197  1.0000
  C   C123      1.0  0.00857  0.31787  0.17426  1.0000
  H   H153      1.0  0.17316  0.99580  0.20243  1.0000
  H   H154      1.0  0.21768  0.18970  0.14928  1.0000
  H   H155      1.0  0.99181  0.34832  0.15180  1.0000
  N   N11       1.0  0.23603  0.08080  0.30148  1.0000
  H   H156      1.0  0.00119  0.25313  0.27279  1.0000
  C   C124      1.0  0.22752  0.17074  0.30437  1.0000
  C   C125      1.0  0.18602  0.29794  0.98779  1.0000
  H   H157      1.0  0.23600  0.99996  0.26276  1.0000
  H   H158      1.0  0.21982  0.98647  0.26176  1.0000
  H   H159      1.0  0.23451  0.03310  0.24591  1.0000
  H   H160      1.0  0.19921  0.98755  0.24238  1.0000
  H   H161      1.0  0.17688  0.34649  0.98297  1.0000
  C   C126      1.0  0.18359  0.33241  0.97987  1.0000
  C   C127      1.0  0.20714  0.48517  0.21515  1.0000
  Fe  Fe17      1.0  0.15837  0.24866  0.41352  1.0000
  S   S32       1.0  0.17524  0.21954  0.42448  1.0000
  S   S33       1.0  0.16924  0.27608  0.40655  1.0000
  Fe  Fe18      1.0  0.12372  0.23313  0.41500  1.0000
  S   S34       1.0  0.13760  0.20281  0.42670  1.0000
  S   S35       1.0  0.09334  0.23805  0.41188  1.0000
  Fe  Fe19      1.0  0.14796  0.21572  0.44538  1.0000
  S   S36       1.0  0.14439  0.20463  0.47731  1.0000
  Fe  Fe20      1.0  0.16333  0.20949  0.40477  1.0000
  S   S37       1.0  0.18059  0.19138  0.38351  1.0000
  S   S38       1.0  0.13178  0.24548  0.43555  1.0000
  S   S39       1.0  0.14878  0.23913  0.39189  1.0000
  Fe  Fe21      1.0  0.16881  0.21636  0.59770  1.0000
  S   S40       1.0  0.14480  0.23945  0.60762  1.0000
  S   S41       1.0  0.18283  0.19319  0.61926  1.0000
  Fe  Fe22      1.0  0.17014  0.23467  0.55568  1.0000
  S   S42       1.0  0.14646  0.25933  0.56211  1.0000
  S   S43       1.0  0.18522  0.23443  0.52524  1.0000
  Fe  Fe23      1.0  0.16095  0.25952  0.58490  1.0000
  S   S44       1.0  0.16445  0.28791  0.58785  1.0000
  Fe  Fe24      1.0  0.13264  0.23695  0.58404  1.0000
  S   S45       1.0  0.10230  0.23738  0.58454  1.0000
  S   S46       1.0  0.18597  0.23666  0.57674  1.0000
  S   S47       1.0  0.15533  0.21201  0.57583  1.0000
  H   H162      1.0  0.20626  0.30944  0.42755  1.0000
  H   H163      1.0  0.11160  0.01359  0.33354  1.0000
  H   H164      1.0  0.20603  0.44032  0.32004  1.0000
  H   H165      1.0  0.15603  0.45557  0.34374  1.0000
  H   H166      1.0  0.17036  0.13693  0.53364  1.0000
  C   C128      1.0  0.10146  0.29239  0.59606  1.0000
  N   N12       1.0  0.18202  0.43413  0.34244  1.0000
  H   H167      1.0  0.09047  0.02756  0.34540  1.0000
  C   C129      1.0  0.22430  0.39700  0.51539  1.0000
  H   H168      1.0  0.20785  0.38650  0.57277  1.0000
  C   C130      1.0  0.15319  0.17099  0.54487  1.0000
  C   C131      1.0  0.23253  0.16521  0.33696  1.0000
  H   H169      1.0  0.11668  0.21277  0.38333  1.0000
  H   H170      1.0  0.06234  0.15430  0.31244  1.0000
  H   H171      1.0  0.18184  0.40458  0.35684  1.0000
  H   H172      1.0  0.22133  0.41516  0.56321  1.0000
  S   S48       1.0  0.14008  0.09667  0.34144  1.0000
  C   C132      1.0  0.22713  0.40048  0.37357  1.0000
  Fe  Fe25      1.0  0.15150  0.11852  0.34884  1.0000
  S   S49       1.0  0.15094  0.12010  0.37874  1.0000
  H   H173      1.0  0.03817  0.22705  0.63704  1.0000
  H   H174      1.0  0.10011  0.23809  0.62433  1.0000
  C   C133      1.0  0.20223  0.18017  0.57397  1.0000
  H   H175      1.0  0.21051  0.25274  0.62814  1.0000
  C   C134      1.0  0.10915  0.22958  0.32420  1.0000
  C   C135      1.0  0.19450  0.31010  0.53127  1.0000
  C   C136      1.0  0.06259  0.32870  0.31566  1.0000
  S   S50       1.0  0.06588  0.27235  0.33351  1.0000
  C   C137      1.0  0.18168  0.16108  0.57093  1.0000
  H   H176      1.0  0.08362  0.19060  0.39429  1.0000
  Fe  Fe26      1.0  0.03875  0.21422  0.34419  1.0000
  S   S51       1.0  0.04623  0.18701  0.36535  1.0000
  S   S52       1.0  0.02414  0.24167  0.35384  1.0000
  C   C138      1.0  0.11235  0.17196  0.37313  1.0000
  H   H177      1.0  0.20044  0.46358  0.33697  1.0000
  H   H178      1.0  0.00318  0.20555  0.36971  1.0000
  H   H179      1.0  0.14318  0.01401  0.33908  1.0000
  H   H180      1.0  0.08898  0.22617  0.35006  1.0000
  H   H181      1.0  0.08500  0.08994  0.38393  1.0000
  C   C139      1.0  0.99936  0.18140  0.36117  1.0000
  H   H182      1.0  0.12705  0.28181  0.60606  1.0000
  H   H183      1.0  0.04326  0.17911  0.33052  1.0000
  S   S53       1.0  0.13467  0.14363  0.33173  1.0000
  S   S54       1.0  0.17778  0.11649  0.32584  1.0000
  C   C140      1.0  0.21486  0.29507  0.50626  1.0000
  C   C141      1.0  0.05898  0.16892  0.35308  1.0000
  C   C142      1.0  0.07379  0.15511  0.36014  1.0000
  C   C143      1.0  0.08517  0.14166  0.34945  1.0000
  H   H184      1.0  0.08745  0.05782  0.40555  1.0000
  H   H185      1.0  0.12144  0.99521  0.36172  1.0000
  H   H186      1.0  0.07676  0.15514  0.37361  1.0000
  H   H187      1.0  0.09700  0.13136  0.35463  1.0000
  Fe  Fe27      1.0  0.04676  0.25422  0.33120  1.0000
  C   C144      1.0  0.09770  0.07868  0.35869  1.0000
  H   H188      1.0  0.17231  0.16499  0.51024  1.0000
  H   H189      1.0  0.08428  0.21428  0.38124  1.0000
  H   H190      1.0  0.20193  0.13880  0.33608  1.0000
  H   H191      1.0  0.14487  0.16816  0.53581  1.0000
  C   C145      1.0  0.13623  0.02642  0.34608  1.0000
  H   H192      1.0  0.21984  0.28336  0.38145  1.0000
  H   H193      1.0  0.06963  0.20949  0.64234  1.0000
  C   C146      1.0  0.16966  0.17532  0.63070  1.0000
  C   C147      1.0  0.15235  0.17615  0.62613  1.0000
  C   C148      1.0  0.22966  0.39089  0.39199  1.0000
  C   C149      1.0  0.20451  0.18820  0.55454  1.0000
  Fe  Fe28      1.0  0.00837  0.24706  0.33024  1.0000
  H   H194      1.0  0.20888  0.18481  0.58283  1.0000
  H   H195      1.0  0.14699  0.18782  0.61528  1.0000
  H   H196      1.0  0.18880  0.16077  0.59735  1.0000
  C   C150      1.0  0.05486  0.16864  0.33587  1.0000
  C   C151      1.0  0.17997  0.16972  0.51863  1.0000
  C   C152      1.0  0.08415  0.24700  0.60197  1.0000
  C   C153      1.0  0.06654  0.25605  0.59715  1.0000
  C   C154      1.0  0.05158  0.26397  0.61041  1.0000
  H   H197      1.0  0.10767  0.03895  0.32741  1.0000
  C   C155      1.0  0.12700  0.22271  0.31387  1.0000
  H   H198      1.0  0.11118  0.06435  0.33596  1.0000
  H   H199      1.0  0.06453  0.25723  0.58296  1.0000
  H   H200      1.0  0.03816  0.27138  0.60634  1.0000
  H   H201      1.0  0.13499  0.19228  0.37902  1.0000
  N   N13       1.0  0.11595  0.02630  0.35471  1.0000
  C   C156      1.0  0.15527  0.21436  0.48985  1.0000
  C   C157      1.0  0.14676  0.21564  0.50876  1.0000
  C   C158      1.0  0.15557  0.22238  0.51951  1.0000
  C   C159      1.0  0.17339  0.22702  0.51169  1.0000
  C   C160      1.0  0.18213  0.22534  0.49293  1.0000
  C   C161      1.0  0.17291  0.21946  0.48186  1.0000
  H   H202      1.0  0.13326  0.21143  0.51509  1.0000
  H   H203      1.0  0.14868  0.22371  0.53394  1.0000
  H   H204      1.0  0.19605  0.22866  0.48695  1.0000
  H   H205      1.0  0.17974  0.21820  0.46740  1.0000
  C   C162      1.0  0.17171  0.17187  0.38250  1.0000
  C   C163      1.0  0.17423  0.16714  0.36485  1.0000
  C   C164      1.0  0.16767  0.15140  0.36363  1.0000
  C   C165      1.0  0.15904  0.13996  0.38012  1.0000
  C   C166      1.0  0.15633  0.14480  0.39777  1.0000
  C   C167      1.0  0.16247  0.16086  0.39894  1.0000
  H   H206      1.0  0.18102  0.17588  0.35207  1.0000
  H   H207      1.0  0.16919  0.14815  0.34992  1.0000
  H   H208      1.0  0.14947  0.13612  0.41056  1.0000
  H   H209      1.0  0.16049  0.16442  0.41261  1.0000
  C   C168      1.0  0.08602  0.24891  0.39008  1.0000
  C   C169      1.0  0.09832  0.25649  0.37371  1.0000
  C   C170      1.0  0.09193  0.26431  0.35644  1.0000
  C   C171      1.0  0.07344  0.26406  0.35541  1.0000
  C   C172      1.0  0.06125  0.25649  0.37177  1.0000
  C   C173      1.0  0.06741  0.24924  0.38908  1.0000
  H   H210      1.0  0.11269  0.25632  0.37437  1.0000
  H   H211      1.0  0.10149  0.27005  0.34381  1.0000
  H   H212      1.0  0.04692  0.25644  0.37121  1.0000
  H   H213      1.0  0.05782  0.24345  0.40169  1.0000
  S   S55       1.0  0.22055  0.28237  0.45940  1.0000
  C   C174      1.0  0.20978  0.28311  0.62114  1.0000
  C   C175      1.0  0.20142  0.30106  0.61138  1.0000
  C   C176      1.0  0.18730  0.30247  0.60138  1.0000
  C   C177      1.0  0.18163  0.28593  0.60098  1.0000
  C   C178      1.0  0.18997  0.26799  0.61072  1.0000
  C   C179      1.0  0.20394  0.26663  0.62084  1.0000
  H   H214      1.0  0.18090  0.31639  0.59385  1.0000
  H   H215      1.0  0.18574  0.25513  0.61043  1.0000
  H   H216      1.0  0.21509  0.21841  0.64080  1.0000
  C   C180      1.0  0.20650  0.28073  0.44450  1.0000
  C   C181      1.0  0.20010  0.26371  0.44749  1.0000
  C   C182      1.0  0.18859  0.26217  0.43596  1.0000
  C   C183      1.0  0.18361  0.27761  0.42125  1.0000
  C   C184      1.0  0.18995  0.29467  0.41832  1.0000
  C   C185      1.0  0.20140  0.29624  0.42992  1.0000
  H   H217      1.0  0.18363  0.24904  0.43845  1.0000
  H   H218      1.0  0.18605  0.30668  0.40701  1.0000
  H   H219      1.0  0.13808  0.03962  0.33501  1.0000
  N   N14       1.0  0.10852  0.19305  0.37172  1.0000
  H   H220      1.0  0.22288  0.36327  0.57178  1.0000
  C   C186      1.0  0.11513  0.00775  0.36870  1.0000
  C   C187      1.0  0.05384  0.26241  0.62886  1.0000
  C   C188      1.0  0.08185  0.29889  0.60035  1.0000
  H   H221      1.0  0.12341  0.00581  0.37981  1.0000
  Fe  Fe29      1.0  0.16480  0.09684  0.31667  1.0000
  C   C189      1.0  0.19564  0.18254  0.54313  1.0000
  H   H222      1.0  0.23340  0.42360  0.34990  1.0000
  C   C190      1.0  0.08797  0.19912  0.37970  1.0000
  C   C191      1.0  0.13877  0.20635  0.32224  1.0000
  H   H223      1.0  0.14263  0.18463  0.34698  1.0000
  H   H224      1.0  0.15052  0.18685  0.54331  1.0000
  H   H225      1.0  0.10660  0.16413  0.38764  1.0000
  H   H226      1.0  0.07899  0.19740  0.37066  1.0000
  C   C192      1.0  0.07126  0.25274  0.63407  1.0000
  C   C193      1.0  0.22051  0.28574  0.55755  1.0000
  H   H227      1.0  0.19134  0.42784  0.40416  1.0000
  H   H228      1.0  0.20406  0.25171  0.45874  1.0000
  H   H229      1.0  0.12770  0.16546  0.37040  1.0000
  C   C194      1.0  0.17676  0.14159  0.54318  1.0000
  C   C195      1.0  0.10587  0.06222  0.35119  1.0000
  H   H230      1.0  0.16362  0.44648  0.32212  1.0000
  H   H231      1.0  0.13810  0.29258  0.62902  1.0000
  C   C196      1.0  0.22347  0.07529  0.32023  1.0000
  C   C197      1.0  0.18569  0.43049  0.37647  1.0000
  H   H232      1.0  0.22109  0.30811  0.49998  1.0000
  H   H233      1.0  0.21832  0.39590  0.36688  1.0000
  N   N15       1.0  0.14000  0.28120  0.47859  1.0000
  C   C198      1.0  0.15957  0.27770  0.48182  1.0000
  C   C199      1.0  0.14164  0.27672  0.45983  1.0000
  C   C200      1.0  0.13135  0.30194  0.47720  1.0000
  C   C201      1.0  0.12833  0.26974  0.49458  1.0000
  C   C202      1.0  0.11838  0.25695  0.49188  1.0000
  C   C203      1.0  0.12601  0.27178  0.51357  1.0000
  C   C204      1.0  0.10679  0.24704  0.50723  1.0000
  C   C205      1.0  0.11455  0.26162  0.52882  1.0000
  C   C206      1.0  0.10496  0.24929  0.52566  1.0000
  H   H234      1.0  0.16657  0.26231  0.48282  1.0000
  H   H235      1.0  0.16866  0.28611  0.46994  1.0000
  H   H236      1.0  0.16006  0.28158  0.49507  1.0000
  H   H237      1.0  0.15052  0.28548  0.44810  1.0000
  H   H238      1.0  0.12758  0.27988  0.45580  1.0000
  H   H239      1.0  0.14851  0.26135  0.45976  1.0000
  H   H240      1.0  0.13111  0.30685  0.49016  1.0000
  H   H241      1.0  0.13937  0.31105  0.46491  1.0000
  H   H242      1.0  0.11643  0.30507  0.47524  1.0000
  H   H243      1.0  0.11951  0.25401  0.47811  1.0000
  H   H244      1.0  0.13304  0.28125  0.51680  1.0000
  H   H245      1.0  0.09962  0.23713  0.50481  1.0000
  H   H246      1.0  0.11311  0.26318  0.54326  1.0000
  H   H247      1.0  0.09628  0.24130  0.53760  1.0000
  S   S56       1.0  0.21797  0.37184  0.40406  1.0000
  H   H248      1.0  0.23329  0.10179  0.32916  1.0000
  H   H249      1.0  0.10596  0.16855  0.36279  1.0000
  H   H250      1.0  0.10020  0.00661  0.37567  1.0000
  H   H251      1.0  0.20559  0.31388  0.61176  1.0000
  C   C207      1.0  0.20230  0.45100  0.38367  1.0000
  H   H252      1.0  0.12870  0.16231  0.63192  1.0000
  H   H253      1.0  0.10113  0.02881  0.39318  1.0000
  H   H254      1.0  0.07366  0.30274  0.58929  1.0000
  H   H255      1.0  0.14433  0.02583  0.35694  1.0000
  C   C208      1.0  0.22358  0.39658  0.53446  1.0000
  C   C209      1.0  0.10307  0.28749  0.62966  1.0000
  H   H256      1.0  0.10854  0.29130  0.58157  1.0000
  H   H257      1.0  0.19145  0.27451  0.54927  1.0000
  H   H258      1.0  0.06233  0.31402  0.32479  1.0000
  Fe  Fe30      1.0  0.23059  0.35082  0.42804  1.0000
  Fe  Fe31      1.0  0.12582  0.12180  0.32195  1.0000
  S   S57       1.0  0.21358  0.33769  0.45590  1.0000
  C   C210      1.0  0.19877  0.42828  0.32775  1.0000
  H   H259      1.0  0.19547  0.16441  0.51378  1.0000
  C   C211      1.0  0.13272  0.19683  0.34096  1.0000
  C   C212      1.0  0.11198  0.28682  0.61041  1.0000
  H   H260      1.0  0.20837  0.45466  0.39367  1.0000
  H   H261      1.0  0.04906  0.33840  0.32074  1.0000
  C   C213      1.0  0.10597  0.02666  0.33971  1.0000
  C   C214      1.0  0.23583  0.41607  0.36384  1.0000
  Fe  Fe32      1.0  0.23186  0.30956  0.45067  1.0000
  C   C215      1.0  0.07268  0.29980  0.61902  1.0000
  C   C216      1.0  0.08658  0.24530  0.62048  1.0000
  C   C217      1.0  0.08112  0.14151  0.33216  1.0000
  Fe  Fe33      1.0  0.23707  0.33942  0.46883  1.0000
  H   H262      1.0  0.19778  0.18970  0.52829  1.0000
  C   C218      1.0  0.99348  0.19958  0.36546  1.0000
  C   C219      1.0  0.18826  0.44010  0.35694  1.0000
  H   H263      1.0  0.19476  0.42343  0.31664  1.0000
  H   H264      1.0  0.20946  0.41642  0.33421  1.0000
  C   C220      1.0  0.22182  0.37738  0.57515  1.0000
  C   C221      1.0  0.11942  0.19706  0.38378  1.0000
  C   C222      1.0  0.21166  0.14856  0.33085  1.0000
  H   H265      1.0  0.21266  0.47235  0.36022  1.0000
  H   H266      1.0  0.21182  0.40352  0.50922  1.0000
  C   C223      1.0  0.11445  0.20315  0.35177  1.0000
  H   H267      1.0  0.20636  0.28520  0.56584  1.0000
  H   H268      1.0  0.22544  0.28229  0.50218  1.0000
  C   C224      1.0  0.09250  0.05896  0.39034  1.0000
  C   C225      1.0  0.09110  0.07708  0.37821  1.0000
  C   C226      1.0  0.19781  0.45566  0.35156  1.0000
  H   H269      1.0  0.99249  0.15975  0.35185  1.0000
  N   N16       1.0  0.20852  0.29248  0.52727  1.0000
  C   C227      1.0  0.19892  0.27589  0.53411  1.0000
  S   S58       1.0  0.22742  0.28080  0.63393  1.0000
  H   H270      1.0  0.17686  0.18563  0.51442  1.0000
  H   H271      1.0  0.14105  0.26724  0.63047  1.0000
  C   C228      1.0  0.14196  0.16179  0.63563  1.0000
  S   S59       1.0  0.06243  0.22624  0.32317  1.0000
  C   C229      1.0  0.23150  0.27939  0.38891  1.0000
  H   H272      1.0  0.11559  0.18972  0.39897  1.0000
  C   C230      1.0  0.10045  0.04234  0.38298  1.0000
  H   H273      1.0  0.21213  0.08764  0.32400  1.0000
  H   H274      1.0  0.18794  0.27716  0.52590  1.0000
  H   H275      1.0  0.09667  0.09281  0.34928  1.0000
  H   H276      1.0  0.18782  0.30870  0.54667  1.0000
  H   H277      1.0  0.18277  0.31355  0.52344  1.0000
  H   H278      1.0  0.16768  0.41366  0.33906  1.0000
  C   C231      1.0  0.10288  0.21997  0.34284  1.0000
  H   H279      1.0  0.20288  0.29708  0.49907  1.0000
  C   C232      1.0  0.20475  0.46093  0.36476  1.0000
  H   H280      1.0  0.20929  0.26212  0.53271  1.0000
  H   H281      1.0  0.17238  0.15118  0.57818  1.0000
  H   H282      1.0  0.14716  0.16500  0.55997  1.0000
  H   H283      1.0  0.17895  0.41828  0.38197  1.0000
  H   H284      1.0  0.22126  0.37488  0.59072  1.0000
  N   N17       1.0  0.17378  0.16288  0.53950  1.0000
  C   C233      1.0  0.22421  0.28921  0.53735  1.0000
  C   C234      1.0  0.10732  0.04350  0.36308  1.0000
  H   H285      1.0  0.17009  0.13523  0.55791  1.0000
  C   C235      1.0  0.19087  0.16662  0.58213  1.0000
  C   C236      1.0  0.18404  0.16862  0.55099  1.0000
  S   S60       1.0  0.22682  0.34687  0.49788  1.0000
  H   H286      1.0  0.19220  0.13489  0.54087  1.0000
  C   C237      1.0  0.19269  0.43591  0.38954  1.0000
  H   H287      1.0  0.21940  0.34353  0.53821  1.0000
  S   S61       1.0  0.23379  0.37364  0.62532  1.0000
  H   H288      1.0  0.20141  0.32275  0.52691  1.0000
  H   H289      1.0  0.21283  0.19924  0.54831  1.0000
  C   C238      1.0  0.23459  0.33942  0.53342  1.0000
  C   C239      1.0  0.16866  0.45046  0.33313  1.0000
  H   H290      1.0  0.21700  0.14590  0.35859  1.0000
  H   H291      1.0  0.21036  0.40325  0.54248  1.0000
  C   C240      1.0  0.17227  0.41767  0.35033  1.0000
  S   S62       1.0  0.02128  0.21840  0.32248  1.0000
  H   H292      1.0  0.23167  0.06923  0.33180  1.0000
  H   H293      1.0  0.15925  0.42119  0.36124  1.0000
  C   C241      1.0  0.23480  0.40592  0.56698  1.0000
  C   C242      1.0  0.23627  0.17420  0.31767  1.0000
  H   H294      1.0  0.05731  0.30420  0.62245  1.0000
  C   C243      1.0  0.06564  0.15462  0.32566  1.0000
  H   H295      1.0  0.01368  0.17337  0.36210  1.0000
  H   H296      1.0  0.23160  0.28105  0.58284  1.0000
  S   S63       1.0  0.23720  0.48408  0.31997  1.0000
  C   C244      1.0  0.23486  0.28333  0.56743  1.0000
  H   H297      1.0  0.17530  0.46299  0.32555  1.0000
  H   H298      1.0  0.23602  0.36561  0.34011  1.0000
  H   H299      1.0  0.22239  0.25405  0.40683  1.0000
  C   C245      1.0  0.13461  0.27891  0.63847  1.0000
  H   H300      1.0  0.07438  0.33328  0.31866  1.0000
  C   C246      1.0  0.08301  0.29387  0.63355  1.0000
  C   C247      1.0  0.22025  0.15244  0.34354  1.0000
  H   H301      1.0  0.21584  0.06415  0.32020  1.0000
  H   H302      1.0  0.10009  0.24257  0.31788  1.0000
  S   S64       1.0  0.09622  0.12608  0.31786  1.0000
  H   H303      1.0  0.23390  0.40556  0.58229  1.0000
  C   C248      1.0  0.23294  0.26286  0.40327  1.0000
  H   H304      1.0  0.23885  0.16849  0.34701  1.0000
  H   H305      1.0  0.15274  0.20104  0.31428  1.0000
  H   H306      1.0  0.10244  0.17254  0.31496  1.0000
  N   N18       1.0  0.23803  0.38629  0.56359  1.0000
  S   S65       1.0  0.23923  0.33035  0.60114  1.0000
  C   C249      1.0  0.21493  0.15776  0.31163  1.0000
  H   H307      1.0  0.10001  0.19793  0.31062  1.0000
  C   C250      1.0  0.23948  0.38735  0.54311  1.0000
  H   H308      1.0  0.24052  0.33401  0.56144  1.0000
  H   H309      1.0  0.18518  0.02191  0.80638  1.0000
  Fe  Fe34      1.0  0.01701  0.24449  0.71337  1.0000
  Fe  Fe35      1.0  0.22073  0.14765  0.79997  1.0000
  H   H310      1.0  0.06382  0.42648  0.92547  1.0000
  H   H311      1.0  0.09199  0.18124  0.64490  1.0000
  Fe  Fe36      1.0  0.05933  0.24502  0.70474  1.0000
  Fe  Fe37      1.0  0.03563  0.26612  0.67548  1.0000
  C   C251      1.0  0.08705  0.33793  0.72933  1.0000
  H   H312      1.0  0.12832  0.16777  0.72589  1.0000
  H   H313      1.0  0.22163  0.28491  0.93729  1.0000
  H   H314      1.0  0.18804  0.00836  0.68423  1.0000
  S   S66       1.0  0.05522  0.27534  0.68784  1.0000
  C   C252      1.0  0.02500  0.19979  0.68085  1.0000
  S   S67       1.0  0.19587  0.15695  0.78512  1.0000
  S   S68       1.0  0.11898  0.10688  0.71603  1.0000
  H   H315      1.0  0.22240  0.40166  0.64893  1.0000
  H   H316      1.0  0.20370  0.31898  0.83655  1.0000
  H   H317      1.0  0.07801  0.04027  0.75410  1.0000
  S   S69       1.0  0.02305  0.30779  0.72308  1.0000
  H   H318      1.0  0.18186  0.36518  0.87975  1.0000
  Fe  Fe38      1.0  0.15950  0.44433  0.81677  1.0000
  S   S70       1.0  0.18331  0.42530  0.80067  1.0000
  Fe  Fe39      1.0  0.14839  0.45422  0.85570  1.0000
  S   S71       1.0  0.15825  0.44922  0.88286  1.0000
  Fe  Fe40      1.0  0.11819  0.45283  0.83598  1.0000
  C   C253      1.0  0.18620  0.05211  0.76004  1.0000
  S   S72       1.0  0.14326  0.43099  0.84483  1.0000
  C   C254      1.0  0.17941  0.45542  0.74715  1.0000
  Fe  Fe41      1.0  0.14266  0.31008  0.93064  1.0000
  S   S73       1.0  0.11317  0.31903  0.94695  1.0000
  S   S74       1.0  0.15379  0.28182  0.92170  1.0000
  Fe  Fe42      1.0  0.15424  0.34664  0.92973  1.0000
  S   S75       1.0  0.12582  0.35908  0.94582  1.0000
  S   S76       1.0  0.17911  0.36098  0.92026  1.0000
  Fe  Fe43      1.0  0.12752  0.32938  0.96443  1.0000
  Fe  Fe44      1.0  0.11420  0.34773  0.92691  1.0000
  S   S77       1.0  0.09228  0.36669  0.91021  1.0000
  S   S78       1.0  0.15694  0.31786  0.94963  1.0000
  S   S79       1.0  0.14268  0.33787  0.90920  1.0000
  S   S80       1.0  0.14164  0.05394  0.74085  1.0000
  S   S81       1.0  0.07681  0.33758  0.81623  1.0000
  S   S82       1.0  0.08310  0.38836  0.79401  1.0000
  Fe  Fe45      1.0  0.05199  0.33731  0.84076  1.0000
  S   S83       1.0  0.05560  0.32320  0.87080  1.0000
  Fe  Fe46      1.0  0.05835  0.33072  0.80047  1.0000
  S   S84       1.0  0.07081  0.30900  0.78184  1.0000
  C   C255      1.0  0.17510  0.32908  0.83177  1.0000
  C   C256      1.0  0.22880  0.09026  0.90265  1.0000
  Fe  Fe47      1.0  0.03021  0.28088  0.71145  1.0000
  N   N19       1.0  0.20824  0.27629  0.96677  1.0000
  S   S85       1.0  0.03557  0.25108  0.72951  1.0000
  H   H319      1.0  0.09902  0.38356  0.75530  1.0000
  H   H320      1.0  0.11454  0.25096  0.64652  1.0000
  Fe  Fe48      1.0  0.16833  0.11346  0.71805  1.0000
  S   S86       1.0  0.14794  0.10262  0.74418  1.0000
  S   S87       1.0  0.19719  0.11628  0.71976  1.0000
  Fe  Fe49      1.0  0.14320  0.08471  0.72644  1.0000
  Fe  Fe50      1.0  0.12577  0.12573  0.73141  1.0000
  S   S88       1.0  0.10187  0.14397  0.74832  1.0000
  Fe  Fe51      1.0  0.02351  0.35841  0.81584  1.0000
  S   S89       1.0  0.14657  0.13819  0.70666  1.0000
  C   C257      1.0  0.22223  0.23197  0.85601  1.0000
  H   H321      1.0  0.00942  0.22143  0.66152  1.0000
  C   C258      1.0  0.20324  0.22475  0.68626  1.0000
  C   C259      1.0  0.21161  0.43704  0.74623  1.0000
  C   C260      1.0  0.02331  0.21319  0.66386  1.0000
  H   H322      1.0  0.20061  0.39481  0.85565  1.0000
  C   C261      1.0  0.14521  0.00669  0.72131  1.0000
  C   C262      1.0  0.14315  0.01925  0.73328  1.0000
  C   C263      1.0  0.18627  0.39573  0.85315  1.0000
  H   H323      1.0  0.14082  0.01397  0.74855  1.0000
  H   H324      1.0  0.21812  0.19266  0.88521  1.0000
  S   S90       1.0  0.09058  0.44277  0.84364  1.0000
  H   H325      1.0  0.01821  0.33370  0.74750  1.0000
  H   H326      1.0  0.06105  0.41927  0.90518  1.0000
  H   H327      1.0  0.12136  0.34545  0.72880  1.0000
  H   H328      1.0  0.17145  0.05450  0.75930  1.0000
  H   H329      1.0  0.17925  0.33788  0.81780  1.0000
  H   H330      1.0  0.21421  0.09662  0.90957  1.0000
  H   H331      1.0  0.06958  0.44541  0.88269  1.0000
  C   C264      1.0  0.05981  0.19273  0.67065  1.0000
  C   C265      1.0  0.11416  0.17640  0.72634  1.0000
  C   C266      1.0  0.09861  0.16845  0.73712  1.0000
  C   C267      1.0  0.08030  0.18005  0.73863  1.0000
  C   C268      1.0  0.07751  0.19935  0.72874  1.0000
  C   C269      1.0  0.03065  0.32256  0.74974  1.0000
  S   S91       1.0  0.12187  0.47522  0.84946  1.0000
  H   H332      1.0  0.06824  0.17400  0.74711  1.0000
  H   H333      1.0  0.06332  0.20816  0.72964  1.0000
  C   C270      1.0  0.05721  0.30864  0.76581  1.0000
  C   C271      1.0  0.06280  0.29386  0.75567  1.0000
  C   C272      1.0  0.05231  0.29338  0.74264  1.0000
  C   C273      1.0  0.03625  0.30779  0.73960  1.0000
  H   H334      1.0  0.07525  0.28272  0.75793  1.0000
  H   H335      1.0  0.05672  0.28193  0.73489  1.0000
  C   C274      1.0  0.08108  0.35484  0.90004  1.0000
  C   C275      1.0  0.08009  0.33552  0.90752  1.0000
  C   C276      1.0  0.07161  0.32615  0.89881  1.0000
  C   C277      1.0  0.06460  0.33587  0.88228  1.0000
  C   C278      1.0  0.06554  0.35523  0.87482  1.0000
  C   C279      1.0  0.07354  0.36476  0.88384  1.0000
  H   H336      1.0  0.08571  0.32781  0.92010  1.0000
  H   H337      1.0  0.07084  0.31121  0.90470  1.0000
  H   H338      1.0  0.06028  0.36285  0.86205  1.0000
  H   H339      1.0  0.07433  0.37969  0.87793  1.0000
  C   C280      1.0  0.16358  0.42474  0.89354  1.0000
  C   C281      1.0  0.15110  0.41275  0.89552  1.0000
  C   C282      1.0  0.15538  0.39326  0.90454  1.0000
  C   C283      1.0  0.17261  0.38560  0.91066  1.0000
  C   C284      1.0  0.18521  0.39753  0.90836  1.0000
  C   C285      1.0  0.18052  0.41715  0.90018  1.0000
  H   H340      1.0  0.13803  0.41862  0.89043  1.0000
  H   H341      1.0  0.14545  0.38416  0.90658  1.0000
  H   H342      1.0  0.19851  0.39165  0.91313  1.0000
  H   H343      1.0  0.19017  0.42640  0.89869  1.0000
  C   C286      1.0  0.08898  0.42723  0.83007  1.0000
  C   C287      1.0  0.10161  0.42562  0.81275  1.0000
  C   C288      1.0  0.09971  0.41359  0.80184  1.0000
  C   C289      1.0  0.08539  0.40287  0.80834  1.0000
  C   C290      1.0  0.07311  0.40406  0.82593  1.0000
  C   C291      1.0  0.07480  0.41634  0.83669  1.0000
  H   H344      1.0  0.11980  0.37780  0.87383  1.0000
  H   H345      1.0  0.10925  0.41276  0.78824  1.0000
  H   H346      1.0  0.06205  0.39587  0.83107  1.0000
  H   H347      1.0  0.06503  0.41749  0.85010  1.0000
  C   C292      1.0  0.04106  0.32296  0.76287  1.0000
  H   H348      1.0  0.15314  0.17695  0.68854  1.0000
  C   C293      1.0  0.05881  0.34606  0.71609  1.0000
  H   H349      1.0  0.04951  0.34204  0.70941  1.0000
  H   H350      1.0  0.11640  0.29010  0.66949  1.0000
  C   C294      1.0  0.01332  0.27897  0.77507  1.0000
  C   C295      1.0  0.19673  0.14666  0.76603  1.0000
  C   C296      1.0  0.17971  0.14729  0.76090  1.0000
  C   C297      1.0  0.17972  0.13776  0.74689  1.0000
  C   C298      1.0  0.19686  0.12816  0.73744  1.0000
  H   H351      1.0  0.09943  0.32719  0.73260  1.0000
  H   H352      1.0  0.20556  0.08516  0.83118  1.0000
  H   H353      1.0  0.16642  0.15474  0.76816  1.0000
  H   H354      1.0  0.16645  0.13787  0.74344  1.0000
  C   C299      1.0  0.09311  0.20712  0.71769  1.0000
  S   S92       1.0  0.09001  0.23084  0.70444  1.0000
  H   H355      1.0  0.16049  0.45183  0.77459  1.0000
  H   H356      1.0  0.19421  0.29885  0.86838  1.0000
  S   S93       1.0  0.03891  0.36858  0.83238  1.0000
  H   H357      1.0  0.14710  0.06044  0.69980  1.0000
  C   C300      1.0  0.14869  0.03289  0.69388  1.0000
  Fe  Fe52      1.0  0.14151  0.11769  0.69205  1.0000
  C   C301      1.0  0.11863  0.41288  0.93912  1.0000
  C   C302      1.0  0.14664  0.04546  0.70585  1.0000
  H   H358      1.0  0.23559  0.02952  0.72595  1.0000
  C   C303      1.0  0.20685  0.29197  0.90459  1.0000
  C   C304      1.0  0.18706  0.29450  0.90947  1.0000
  C   C305      1.0  0.17853  0.27855  0.91494  1.0000
  C   C306      1.0  0.18985  0.26005  0.91550  1.0000
  C   C307      1.0  0.20973  0.25747  0.91118  1.0000
  Fe  Fe53      1.0  0.14022  0.48510  0.82117  1.0000
  H   H359      1.0  0.17843  0.30882  0.90904  1.0000
  H   H360      1.0  0.18326  0.24770  0.91970  1.0000
  H   H361      1.0  0.14227  0.27523  0.65040  1.0000
  C   C308      1.0  0.21126  0.22767  0.66687  1.0000
  C   C309      1.0  0.16587  0.14614  0.65464  1.0000
  H   H362      1.0  0.10573  0.35055  0.77043  1.0000
  Fe  Fe54      1.0  0.23548  0.45277  0.70240  1.0000
  S   S94       1.0  0.20404  0.46106  0.71275  1.0000
  H   H363      1.0  0.20719  0.09879  0.77844  1.0000
  C   C310      1.0  0.21397  0.12808  0.74207  1.0000
  C   C311      1.0  0.23230  0.18380  0.88413  1.0000
  C   C312      1.0  0.11143  0.19570  0.71667  1.0000
  S   S95       1.0  0.00981  0.27488  0.69729  1.0000
  C   C313      1.0  0.18850  0.43457  0.77607  1.0000
  C   C314      1.0  0.20685  0.42905  0.76573  1.0000
  C   C315      1.0  0.11010  0.26144  0.65601  1.0000
  H   H364      1.0  0.21756  0.41892  0.77286  1.0000
  S   S96       1.0  0.03491  0.32696  0.82611  1.0000
  C   C316      1.0  0.18886  0.31848  0.84229  1.0000
  C   C317      1.0  0.14389  0.03864  0.72557  1.0000
  H   H365      1.0  0.14586  0.33661  0.83033  1.0000
  C   C318      1.0  0.17476  0.44775  0.76677  1.0000
  C   C319      1.0  0.18981  0.19853  0.68395  1.0000
  C   C320      1.0  0.19269  0.21038  0.69480  1.0000
  H   H366      1.0  0.10792  0.30905  0.65077  1.0000
  C   C321      1.0  0.12046  0.44535  0.92230  1.0000
  C   C322      1.0  0.22155  0.01354  0.71545  1.0000
  H   H367      1.0  0.16985  0.38941  0.81607  1.0000
  H   H368      1.0  0.18559  0.34818  0.86503  1.0000
  C   C323      1.0  0.20573  0.31260  0.95907  1.0000
  H   H369      1.0  0.23100  0.26106  0.94810  1.0000
  H   H370      1.0  0.18731  0.08112  0.74436  1.0000
  C   C324      1.0  0.14854  0.14698  0.65015  1.0000
  H   H371      1.0  0.16744  0.18708  0.66700  1.0000
  H   H372      1.0  0.07508  0.38152  0.75881  1.0000
  C   C325      1.0  0.09248  0.00592  0.72694  1.0000
  C   C326      1.0  0.01784  0.28611  0.78849  1.0000
  C   C327      1.0  0.21390  0.13718  0.75646  1.0000
  C   C328      1.0  0.19827  0.20188  0.66424  1.0000
  H   H373      1.0  0.18693  0.20889  0.70989  1.0000
  H   H374      1.0  0.18249  0.15272  0.69566  1.0000
  H   H375      1.0  0.04315  0.17979  0.69791  1.0000
  C   C329      1.0  0.19627  0.03421  0.76908  1.0000
  C   C330      1.0  0.06538  0.36865  0.73071  1.0000
  Fe  Fe55      1.0  0.23264  0.15280  0.83469  1.0000
  C   C331      1.0  0.10799  0.44507  0.91123  1.0000
  C   C332      1.0  0.05376  0.36369  0.72151  1.0000
  C   C333      1.0  0.08969  0.19795  0.67333  1.0000
  H   H376      1.0  0.02262  0.26643  0.77025  1.0000
  C   C334      1.0  0.14979  0.37699  0.86329  1.0000
  H   H377      1.0  0.99549  0.33039  0.83143  1.0000
  C   C335      1.0  0.19790  0.45025  0.73690  1.0000
  N   N20       1.0  0.23959  0.10524  0.89133  1.0000
  H   H378      1.0  0.04056  0.37342  0.71886  1.0000
  C   C336      1.0  0.20301  0.47742  0.77503  1.0000
  H   H379      1.0  0.09382  0.16290  0.69538  1.0000
  H   H380      1.0  0.22712  0.13686  0.76013  1.0000
  C   C337      1.0  0.19896  0.37362  0.83220  1.0000
  H   H381      1.0  0.12448  0.36433  0.73772  1.0000
  C   C338      1.0  0.08954  0.17197  0.65941  1.0000
  H   H382      1.0  0.18838  0.28088  0.94881  1.0000
  H   H383      1.0  0.13581  0.42946  0.94438  1.0000
  S   S97       1.0  0.21464  0.13435  0.83116  1.0000
  C   C339      1.0  0.03952  0.21633  0.65010  1.0000
  H   H384      1.0  0.17577  0.39952  0.86588  1.0000
  C   C340      1.0  0.16249  0.18757  0.68231  1.0000
  C   C341      1.0  0.12574  0.42933  0.93622  1.0000
  H   H385      1.0  0.18141  0.17817  0.72150  1.0000
  H   H386      1.0  0.21932  0.23893  0.66029  1.0000
  H   H387      1.0  0.99462  0.28241  0.75661  1.0000
  S   S98       1.0  0.15129  0.99803  0.68609  1.0000
  C   C342      1.0  0.14085  0.38873  0.82723  1.0000
  C   C343      1.0  0.22452  0.04855  0.75985  1.0000
  H   H388      1.0  0.21145  0.22436  0.85633  1.0000
  H   H389      1.0  0.08159  0.20745  0.68338  1.0000
  H   H390      1.0  0.20234  0.06476  0.79294  1.0000
  H   H391      1.0  0.20497  0.46981  0.76343  1.0000
  C   C344      1.0  0.04293  0.18961  0.68427  1.0000
  H   H392      1.0  0.08313  0.34571  0.77146  1.0000
  H   H393      1.0  0.21733  0.47589  0.77788  1.0000
  H   H394      1.0  0.10382  0.19138  0.67720  1.0000
  C   C345      1.0  0.23087  0.25880  0.86193  1.0000
  C   C346      1.0  0.19633  0.00181  0.76775  1.0000
  H   H395      1.0  0.09337  0.05957  0.72428  1.0000
  H   H396      1.0  0.20212  0.25507  0.86736  1.0000
  N   N21       1.0  0.19293  0.08860  0.80711  1.0000
  C   C347      1.0  0.20703  0.09911  0.79336  1.0000
  C   C348      1.0  0.19180  0.09141  0.82643  1.0000
  C   C349      1.0  0.20022  0.06778  0.80729  1.0000
  C   C350      1.0  0.17412  0.09626  0.80178  1.0000
  C   C351      1.0  0.16529  0.11594  0.80103  1.0000
  C   C352      1.0  0.16414  0.08474  0.79703  1.0000
  C   C353      1.0  0.14766  0.12363  0.79578  1.0000
  C   C354      1.0  0.14644  0.09259  0.79191  1.0000
  C   C355      1.0  0.13829  0.11201  0.79115  1.0000
  H   H397      1.0  0.20406  0.11441  0.79434  1.0000
  H   H398      1.0  0.22726  0.08116  0.89355  1.0000
  H   H399      1.0  0.09233  0.20735  0.65892  1.0000
  H   H400      1.0  0.18843  0.10687  0.82703  1.0000
  H   H401      1.0  0.21370  0.37032  0.83466  1.0000
  H   H402      1.0  0.18071  0.08450  0.83710  1.0000
  H   H403      1.0  0.19059  0.05890  0.81778  1.0000
  H   H404      1.0  0.18265  0.99839  0.80613  1.0000
  H   H405      1.0  0.21431  0.06252  0.81146  1.0000
  H   H406      1.0  0.17215  0.12569  0.80411  1.0000
  H   H407      1.0  0.16975  0.06971  0.79696  1.0000
  H   H408      1.0  0.14138  0.13879  0.79497  1.0000
  H   H409      1.0  0.13911  0.08368  0.78811  1.0000
  H   H410      1.0  0.12479  0.11815  0.78669  1.0000
  C   C356      1.0  0.18927  0.36162  0.86572  1.0000
  C   C357      1.0  0.21697  0.24922  0.86217  1.0000
  H   H411      1.0  0.08756  0.39173  0.73544  1.0000
  H   H412      1.0  0.20546  0.00399  0.79908  1.0000
  H   H413      1.0  0.10590  0.40095  0.89560  1.0000
  C   C358      1.0  0.07537  0.33317  0.72007  1.0000
  C   C359      1.0  0.08388  0.01479  0.74273  1.0000
  C   C360      1.0  0.17016  0.18198  0.71295  1.0000
  C   C361      1.0  0.16662  0.02153  0.77911  1.0000
  H   H414      1.0  0.16347  0.02544  0.76458  1.0000
  H   H415      1.0  0.16028  0.00876  0.78674  1.0000
  H   H416      1.0  0.15893  0.03340  0.78662  1.0000
  S   S99       1.0  0.13401  0.46469  0.80687  1.0000
  C   C362      1.0  0.21423  0.06591  0.75123  1.0000
  H   H417      1.0  0.21339  0.30436  0.90045  1.0000
  H   H418      1.0  0.99491  0.24743  0.79070  1.0000
  H   H419      1.0  0.16183  0.17042  0.71868  1.0000
  C   C363      1.0  0.08893  0.38024  0.74848  1.0000
  C   C364      1.0  0.07912  0.16971  0.69304  1.0000
  H   H420      1.0  0.06043  0.38241  0.73474  1.0000
  S   S100      1.0  0.22291  0.17014  0.85777  1.0000
  H   H421      1.0  0.19864  0.25605  0.95702  1.0000
  H   H422      1.0  0.09092  0.45297  0.87975  1.0000
  N   N22       1.0  0.08776  0.42746  0.90191  1.0000
  H   H423      1.0  0.20254  0.16059  0.69764  1.0000
  H   H424      1.0  0.03057  0.27914  0.79414  1.0000
  C   C365      1.0  0.10739  0.29400  0.65864  1.0000
  C   C366      1.0  0.10029  0.42857  0.91396  1.0000
  H   H425      1.0  0.12349  0.20180  0.70838  1.0000
  H   H426      1.0  0.11781  0.25549  0.66799  1.0000
  C   C367      1.0  0.08256  0.35593  0.73472  1.0000
  C   C368      1.0  0.12657  0.38567  0.84332  1.0000
  H   H427      1.0  0.14448  0.99185  0.72740  1.0000
  H   H428      1.0  0.07200  0.17731  0.70488  1.0000
  S   S101      1.0  0.13485  0.12984  0.66290  1.0000
  C   C369      1.0  0.21575  0.03289  0.76853  1.0000
  C   C370      1.0  0.17660  0.16007  0.64462  1.0000
  H   H429      1.0  0.16025  0.19557  0.71584  1.0000
  N   N23       1.0  0.07911  0.18316  0.67418  1.0000
  C   C371      1.0  0.22515  0.27580  0.95093  1.0000
  C   C372      1.0  0.09731  0.34662  0.76220  1.0000
  H   H430      1.0  0.12673  0.45781  0.91950  1.0000
  H   H431      1.0  0.22165  0.09297  0.79597  1.0000
  H   H432      1.0  0.21165  0.99643  0.76816  1.0000
  C   C373      1.0  0.08422  0.03392  0.74174  1.0000
  N   N24       1.0  0.09549  0.36078  0.74405  1.0000
  N   N25       1.0  0.18451  0.37758  0.84946  1.0000
  H   H433      1.0  0.20518  0.23374  0.69471  1.0000
  H   H434      1.0  0.22681  0.27212  0.86690  1.0000
  C   C374      1.0  0.11457  0.36009  0.73142  1.0000
  S   S102      1.0  0.99256  0.37127  0.81511  1.0000
  H   H435      1.0  0.10414  0.33181  0.76008  1.0000
  H   H436      1.0  0.19456  0.46932  0.78784  1.0000
  H   H437      1.0  0.11368  0.37003  0.71733  1.0000
  C   C375      1.0  0.16481  0.37966  0.84719  1.0000
  H   H438      1.0  0.01027  0.30853  0.80412  1.0000
  H   H439      1.0  0.01232  0.19775  0.69168  1.0000
  C   C376      1.0  0.20885  0.21618  0.65591  1.0000
  H   H440      1.0  0.23674  0.28060  0.95410  1.0000
  H   H441      1.0  0.15352  0.20213  0.68307  1.0000
  N   N26       1.0  0.12968  0.31601  0.86459  1.0000
  C   C377      1.0  0.12281  0.30843  0.85161  1.0000
  C   C378      1.0  0.12568  0.30369  0.88397  1.0000
  C   C379      1.0  0.11838  0.33565  0.86554  1.0000
  C   C380      1.0  0.15002  0.31676  0.85727  1.0000
  C   C381      1.0  0.16441  0.30621  0.86763  1.0000
  C   C382      1.0  0.15598  0.32824  0.83908  1.0000
  C   C383      1.0  0.18351  0.30711  0.86018  1.0000
  H   H442      1.0  0.10764  0.30715  0.85705  1.0000
  H   H443      1.0  0.12344  0.31793  0.83719  1.0000
  H   H444      1.0  0.13135  0.29389  0.84998  1.0000
  H   H445      1.0  0.13317  0.28843  0.88436  1.0000
  H   H446      1.0  0.11025  0.30359  0.88909  1.0000
  H   H447      1.0  0.12987  0.30890  0.89471  1.0000
  H   H448      1.0  0.11969  0.34587  0.85154  1.0000
  H   H449      1.0  0.10304  0.33555  0.87035  1.0000
  H   H450      1.0  0.12248  0.34166  0.87576  1.0000
  H   H451      1.0  0.16131  0.29708  0.88155  1.0000
  S   S103      1.0  0.16539  0.09379  0.70102  1.0000
  Fe  Fe56      1.0  0.06272  0.36828  0.80674  1.0000
  H   H452      1.0  0.03658  0.33437  0.77065  1.0000
  H   H453      1.0  0.99894  0.35618  0.89935  1.0000
  S   S104      1.0  0.03479  0.27369  0.64444  1.0000
  C   C384      1.0  0.10060  0.03687  0.70895  1.0000
  H   H454      1.0  0.12319  0.40026  0.94963  1.0000
  S   S105      1.0  0.04594  0.36156  0.78908  1.0000
  H   H455      1.0  0.08973  0.41269  0.87982  1.0000
  N   N27       1.0  0.18740  0.01736  0.77839  1.0000
  H   H456      1.0  0.18771  0.02052  0.70201  1.0000
  C   C385      1.0  0.19724  0.01087  0.69262  1.0000
  C   C386      1.0  0.19030  0.01022  0.79829  1.0000
  C   C387      1.0  0.05751  0.20624  0.65335  1.0000
  C   C388      1.0  0.15968  0.38592  0.82905  1.0000
  C   C389      1.0  0.19515  0.06764  0.75132  1.0000
  H   H457      1.0  0.22877  0.10981  0.86583  1.0000
  H   H458      1.0  0.20784  0.01864  0.68218  1.0000
  S   S106      1.0  0.04155  0.23532  0.69051  1.0000
  C   C390      1.0  0.14809  0.01346  0.70157  1.0000
  H   H459      1.0  0.16874  0.46552  0.73994  1.0000
  H   H460      1.0  0.21593  0.31249  0.94581  1.0000
  H   H461      1.0  0.19854  0.38635  0.82009  1.0000
  C   C391      1.0  0.21956  0.99513  0.71458  1.0000
  H   H462      1.0  0.21409  0.12378  0.88226  1.0000
  H   H463      1.0  0.10729  0.04544  0.69590  1.0000
  H   H464      1.0  0.11259  0.43394  0.80755  1.0000
  H   H465      1.0  0.19697  0.36129  0.82755  1.0000
  H   H466      1.0  0.07582  0.40335  0.92020  1.0000
  C   C392      1.0  0.09886  0.41522  0.88826  1.0000
  C   C393      1.0  0.07144  0.41883  0.91376  1.0000
  S   S107      1.0  0.16710  0.46560  0.82847  1.0000
  C   C394      1.0  0.13103  0.37983  0.86131  1.0000
  C   C395      1.0  0.19733  0.33070  0.96335  1.0000
  H   H467      1.0  0.11020  0.42201  0.87792  1.0000
  H   H468      1.0  0.21845  0.24316  0.91176  1.0000
  H   H469      1.0  0.09474  0.26195  0.66237  1.0000
  H   H470      1.0  0.10515  0.45773  0.90024  1.0000
  H   H471      1.0  0.07299  0.25140  0.64838  1.0000
  C   C396      1.0  0.07974  0.44654  0.89082  1.0000
  H   H472      1.0  0.07703  0.00692  0.75605  1.0000
  H   H473      1.0  0.15080  0.03823  0.67861  1.0000
  H   H474      1.0  0.21361  0.02679  0.70834  1.0000
  C   C397      1.0  0.00426  0.34352  0.86698  1.0000
  H   H475      1.0  0.07209  0.45676  0.90026  1.0000
  H   H476      1.0  0.11194  0.38824  0.84184  1.0000
  H   H477      1.0  0.10191  0.39893  0.93027  1.0000
  N   N28       1.0  0.17845  0.18345  0.69229  1.0000
  C   C398      1.0  0.10627  0.41236  0.92806  1.0000
  H   H478      1.0  0.07879  0.31913  0.71657  1.0000
  H   H479      1.0  0.15224  0.37312  0.87760  1.0000
  H   H480      1.0  0.07201  0.15774  0.69447  1.0000
  H   H481      1.0  0.20461  0.35841  0.86627  1.0000
  H   H482      1.0  0.08166  0.16121  0.65904  1.0000
  H   H483      1.0  0.22594  0.43304  0.73850  1.0000
  H   H484      1.0  0.19510  0.00684  0.75256  1.0000
  H   H485      1.0  0.18370  0.40804  0.84098  1.0000
  H   H486      1.0  0.13722  0.39395  0.81328  1.0000
  H   H487      1.0  0.17119  0.13451  0.66558  1.0000
  H   H488      1.0  0.19695  0.16387  0.67484  1.0000
  C   C399      1.0  0.19062  0.16443  0.68995  1.0000
  H   H489      1.0  0.20108  0.34358  0.95350  1.0000
  H   H490      1.0  0.07493  0.29372  0.64788  1.0000
  H   H491      1.0  0.09272  0.29374  0.66702  1.0000
  H   H492      1.0  0.19669  0.19352  0.65500  1.0000
  H   H493      1.0  0.22444  0.01964  0.77475  1.0000
  H   H494      1.0  0.18330  0.99204  0.72798  1.0000
  H   H495      1.0  0.22101  0.07806  0.74432  1.0000
  S   S108      1.0  0.99368  0.22765  0.72774  1.0000
  C   C400      1.0  0.00643  0.30274  0.79402  1.0000
  C   C401      1.0  0.21820  0.27345  0.90582  1.0000
  C   C402      1.0  0.10054  0.01770  0.70982  1.0000
  N   N29       1.0  0.20659  0.99255  0.70380  1.0000
  C   C403      1.0  0.09274  0.04488  0.72492  1.0000
  C   C404      1.0  0.99732  0.28839  0.76718  1.0000
  H   H496      1.0  0.22728  0.12079  0.73468  1.0000
  H   H497      1.0  0.10381  0.16392  0.66217  1.0000
  H   H498      1.0  0.00471  0.34595  0.85149  1.0000
  H   H499      1.0  0.00520  0.32789  0.87305  1.0000
  H   H500      1.0  0.21424  0.14983  0.93046  1.0000
  H   H501      1.0  0.01740  0.34686  0.86866  1.0000
  H   H502      1.0  0.18061  0.26912  0.97283  1.0000
  S   S109      1.0  0.23608  0.16822  0.80406  1.0000
  H   H503      1.0  0.10738  0.01239  0.69699  1.0000
  C   C405      1.0  0.19336  0.27025  0.96118  1.0000
  N   N30       1.0  0.11372  0.28063  0.64533  1.0000
  H   H504      1.0  0.21129  0.13009  0.91025  1.0000
  C   C406      1.0  0.22915  0.11775  0.87648  1.0000
  H   H505      1.0  0.06637  0.99126  0.71968  1.0000
  H   H506      1.0  0.23931  0.19479  0.90505  1.0000
  H   H507      1.0  0.18954  0.98914  0.77387  1.0000
  C   C407      1.0  0.23413  0.01536  0.72563  1.0000
  H   H508      1.0  0.23941  0.04716  0.75982  1.0000
  H   H509      1.0  0.23597  0.13011  0.86874  1.0000
  C   C408      1.0  0.20042  0.29557  0.97133  1.0000
  H   H510      1.0  0.23606  0.08061  0.91412  1.0000
  H   H511      1.0  0.00111  0.37926  0.87022  1.0000
  C   C409      1.0  0.23853  0.17121  0.87152  1.0000
  C   C410      1.0  0.22525  0.12892  0.91272  1.0000
  H   H512      1.0  0.19028  0.15906  0.64767  1.0000
  C   C411      1.0  0.22672  0.14015  0.92452  1.0000
  H   H513      1.0  0.23851  0.04268  0.85155  1.0000
  H   H514      1.0  0.06412  0.98658  0.74502  1.0000
  C   C412      1.0  0.23773  0.39883  0.64475  1.0000
  H   H515      1.0  0.08173  0.61262  0.25426  1.0000
  H   H516      1.0  0.08227  0.73892  0.06441  1.0000
  H   H517      1.0  0.20100  0.79017  0.03726  1.0000
  C   C413      1.0  0.22505  0.55716  0.26268  1.0000
  C   C414      1.0  0.08066  0.81309  0.19559  1.0000
  H   H518      1.0  0.11081  0.75083  0.00631  1.0000
  N   N31       1.0  0.07163  0.79615  0.20146  1.0000
  S   S110      1.0  0.12635  0.49969  0.21155  1.0000
  N   N32       1.0  0.01459  0.66329  0.26367  1.0000
  Fe  Fe57      1.0  0.16651  0.58036  0.22519  1.0000
  S   S111      1.0  0.14371  0.59455  0.24651  1.0000
  S   S112      1.0  0.17572  0.54787  0.23008  1.0000
  Fe  Fe58      1.0  0.17703  0.61864  0.20240  1.0000
  S   S113      1.0  0.15518  0.63557  0.22196  1.0000
  S   S114      1.0  0.19631  0.63581  0.17975  1.0000
  Fe  Fe59      1.0  0.16500  0.61172  0.24534  1.0000
  S   S115      1.0  0.16984  0.61769  0.27166  1.0000
  Fe  Fe60      1.0  0.13621  0.61705  0.22098  1.0000
  S   S116      1.0  0.10693  0.63098  0.21519  1.0000
  S   S117      1.0  0.18836  0.59601  0.22595  1.0000
  S   S118      1.0  0.15743  0.60156  0.19949  1.0000
  Fe  Fe61      1.0  0.03794  0.72155  0.24046  1.0000
  H   H519      1.0  0.02223  0.67922  0.28031  1.0000
  S   S119      1.0  0.06135  0.70086  0.25416  1.0000
  Fe  Fe62      1.0  0.02772  0.74304  0.20280  1.0000
  S   S120      1.0  0.03926  0.74569  0.17119  1.0000
  S   S121      1.0  0.04358  0.74943  0.22141  1.0000
  Fe  Fe63      1.0  0.18195  0.74854  0.09412  1.0000
  S   S122      1.0  0.15529  0.77091  0.09164  1.0000
  S   S123      1.0  0.20990  0.75749  0.08886  1.0000
  Fe  Fe64      1.0  0.16176  0.71552  0.10130  1.0000
  S   S124      1.0  0.13344  0.73528  0.09910  1.0000
  S   S125      1.0  0.16201  0.68389  0.10780  1.0000
  Fe  Fe65      1.0  0.14996  0.75303  0.07409  1.0000
  S   S126      1.0  0.14132  0.76779  0.04595  1.0000
  Fe  Fe66      1.0  0.14146  0.75099  0.11680  1.0000
  S   S127      1.0  0.12341  0.75896  0.14402  1.0000
  S   S128      1.0  0.17767  0.73196  0.07480  1.0000
  S   S129      1.0  0.16872  0.72998  0.12077  1.0000
  C   C415      1.0  0.03284  0.64919  0.26091  1.0000
  C   C416      1.0  0.17131  0.92705  0.21046  1.0000
  H   H520      1.0  0.21472  0.65816  0.19205  1.0000
  C   C417      1.0  0.04213  0.79752  0.28458  1.0000
  C   C418      1.0  0.22851  0.95070  0.24473  1.0000
  C   C419      1.0  0.20182  0.71191  0.19585  1.0000
  H   H521      1.0  0.18871  0.78965  0.01124  1.0000
  C   C420      1.0  0.14666  0.75319  0.02918  1.0000
  C   C421      1.0  0.15152  0.73316  0.03470  1.0000
  C   C422      1.0  0.15544  0.72175  0.02120  1.0000
  C   C423      1.0  0.15454  0.73026  0.00211  1.0000
  C   C424      1.0  0.14990  0.75030  0.99653  1.0000
  C   C425      1.0  0.14591  0.76174  0.01006  1.0000
  H   H522      1.0  0.15204  0.72642  0.04944  1.0000
  H   H523      1.0  0.15896  0.70624  0.02562  1.0000
  H   H524      1.0  0.06171  0.72407  0.02299  1.0000
  H   H525      1.0  0.14221  0.77724  0.00568  1.0000
  C   C426      1.0  0.06347  0.74698  0.16349  1.0000
  C   C427      1.0  0.07478  0.74451  0.17664  1.0000
  C   C428      1.0  0.09327  0.74788  0.17047  1.0000
  C   C429      1.0  0.10093  0.75297  0.15104  1.0000
  C   C430      1.0  0.09022  0.75407  0.13772  1.0000
  C   C431      1.0  0.07143  0.75125  0.14395  1.0000
  H   H526      1.0  0.06941  0.73988  0.19155  1.0000
  H   H527      1.0  0.10167  0.74642  0.18081  1.0000
  H   H528      1.0  0.09608  0.75796  0.12265  1.0000
  H   H529      1.0  0.06287  0.75293  0.13366  1.0000
  C   C432      1.0  0.18718  0.64861  0.15937  1.0000
  C   C433      1.0  0.17248  0.64339  0.15473  1.0000
  C   C434      1.0  0.16523  0.65397  0.13851  1.0000
  C   C435      1.0  0.17220  0.67016  0.12726  1.0000
  C   C436      1.0  0.18682  0.67545  0.13195  1.0000
  C   C437      1.0  0.19457  0.66444  0.14775  1.0000
  H   H530      1.0  0.16685  0.63107  0.16349  1.0000
  H   H531      1.0  0.15397  0.64979  0.13485  1.0000
  H   H532      1.0  0.19246  0.68777  0.12314  1.0000
  H   H533      1.0  0.20621  0.66830  0.15104  1.0000
  C   C438      1.0  0.09484  0.65056  0.22591  1.0000
  C   C439      1.0  0.10053  0.65390  0.24104  1.0000
  C   C440      1.0  0.09014  0.66934  0.24970  1.0000
  C   C441      1.0  0.07427  0.68167  0.24303  1.0000
  C   C442      1.0  0.06891  0.67848  0.22765  1.0000
  C   C443      1.0  0.07902  0.66287  0.21927  1.0000
  H   H534      1.0  0.11268  0.64438  0.24633  1.0000
  H   H535      1.0  0.09439  0.67169  0.26159  1.0000
  H   H536      1.0  0.05694  0.68792  0.22221  1.0000
  H   H537      1.0  0.07455  0.66032  0.20759  1.0000
  C   C444      1.0  0.13904  0.51314  0.21813  1.0000
  C   C445      1.0  0.15364  0.50395  0.22808  1.0000
  C   C446      1.0  0.16407  0.51486  0.23261  1.0000
  C   C447      1.0  0.16043  0.53497  0.22668  1.0000
  C   C448      1.0  0.14553  0.54422  0.21713  1.0000
  C   C449      1.0  0.13478  0.53331  0.21298  1.0000
  H   H538      1.0  0.09187  0.81265  0.18243  1.0000
  H   H539      1.0  0.17499  0.50765  0.24073  1.0000
  H   H540      1.0  0.14251  0.55973  0.21260  1.0000
  H   H541      1.0  0.12343  0.54050  0.20535  1.0000
  H   H542      1.0  0.09947  0.76329  0.97920  1.0000
  C   C450      1.0  0.01917  0.81155  0.26414  1.0000
  H   H543      1.0  0.23430  0.62722  0.23977  1.0000
  C   C451      1.0  0.08659  0.77837  0.20368  1.0000
  C   C452      1.0  0.21076  0.77169  0.10410  1.0000
  C   C453      1.0  0.22673  0.77971  0.10089  1.0000
  H   H544      1.0  0.22346  0.55301  0.24993  1.0000
  N   N33       1.0  0.17300  0.93694  0.19009  1.0000
  C   C454      1.0  0.19591  0.78801  0.13024  1.0000
  C   C455      1.0  0.19536  0.77581  0.11884  1.0000
  S   S130      1.0  0.05501  0.79950  0.30049  1.0000
  C   C456      1.0  0.20624  0.97262  0.17068  1.0000
  H   H545      1.0  0.18395  0.79120  0.14161  1.0000
  H   H546      1.0  0.18298  0.76972  0.12139  1.0000
  C   C457      1.0  0.06205  0.63090  0.27208  1.0000
  H   H547      1.0  0.17822  0.77005  0.02516  1.0000
  C   C458      1.0  0.19450  0.63014  0.28488  1.0000
  C   C459      1.0  0.19153  0.62407  0.26976  1.0000
  C   C460      1.0  0.20598  0.62289  0.25354  1.0000
  C   C461      1.0  0.18014  0.98489  0.19416  1.0000
  H   H548      1.0  0.05948  0.72522  0.05579  1.0000
  H   H549      1.0  0.23357  0.90719  0.18595  1.0000
  H   H550      1.0  0.20395  0.61807  0.24188  1.0000
  H   H551      1.0  0.18279  0.49486  0.13346  1.0000
  H   H552      1.0  0.12717  0.50536  0.16820  1.0000
  Fe  Fe67      1.0  0.01504  0.76292  0.23616  1.0000
  N   N34       1.0  0.20296  0.82820  0.06230  1.0000
  C   C462      1.0  0.19462  0.82458  0.08304  1.0000
  C   C463      1.0  0.22128  0.81429  0.05925  1.0000
  C   C464      1.0  0.20670  0.84797  0.05675  1.0000
  C   C465      1.0  0.19063  0.82612  0.05053  1.0000
  C   C466      1.0  0.19550  0.83133  0.03032  1.0000
  C   C467      1.0  0.17422  0.81796  0.05850  1.0000
  C   C468      1.0  0.18424  0.82922  0.01890  1.0000
  C   C469      1.0  0.16318  0.81574  0.04691  1.0000
  C   C470      1.0  0.16805  0.82156  0.02719  1.0000
  H   H553      1.0  0.18056  0.83432  0.08626  1.0000
  H   H554      1.0  0.19296  0.80944  0.08874  1.0000
  H   H555      1.0  0.20389  0.82690  0.09149  1.0000
  H   H556      1.0  0.21908  0.79925  0.06325  1.0000
  H   H557      1.0  0.06686  0.79720  0.23123  1.0000
  H   H558      1.0  0.22117  0.64906  0.21467  1.0000
  H   H559      1.0  0.19321  0.85897  0.05743  1.0000
  H   H560      1.0  0.21493  0.85031  0.06621  1.0000
  H   H561      1.0  0.21535  0.85113  0.04214  1.0000
  H   H562      1.0  0.20823  0.83683  0.02314  1.0000
  H   H563      1.0  0.16968  0.81296  0.07365  1.0000
  H   H564      1.0  0.18820  0.83331  0.00349  1.0000
  H   H565      1.0  0.15082  0.80929  0.05324  1.0000
  H   H566      1.0  0.15948  0.81977  0.01826  1.0000
  H   H567      1.0  0.20980  0.66805  0.23972  1.0000
  H   H568      1.0  0.16137  0.93611  0.22017  1.0000
  C   C471      1.0  0.15539  0.53854  0.14488  1.0000
  C   C472      1.0  0.15989  0.55265  0.15133  1.0000
  C   C473      1.0  0.22586  0.63478  0.26716  1.0000
  H   H569      1.0  0.20663  0.71925  0.99253  1.0000
  C   C474      1.0  0.04469  0.64401  0.27444  1.0000
  H   H570      1.0  0.22231  0.78767  0.00556  1.0000
  H   H571      1.0  0.19706  0.94947  0.21952  1.0000
  H   H572      1.0  0.14229  0.49855  0.12678  1.0000
  H   H573      1.0  0.20901  0.52691  0.26966  1.0000
  H   H574      1.0  0.18880  0.73745  0.15408  1.0000
  H   H575      1.0  0.08039  0.76534  0.20718  1.0000
  H   H576      1.0  0.22860  0.90456  0.25231  1.0000
  C   C475      1.0  0.20077  0.73296  0.02722  1.0000
  H   H577      1.0  0.07410  0.76644  0.98370  1.0000
  H   H578      1.0  0.09393  0.93978  0.28793  1.0000
  C   C476      1.0  0.22311  0.62818  0.25229  1.0000
  H   H579      1.0  0.22064  0.68843  0.04973  1.0000
  S   S131      1.0  0.22697  0.88710  0.16110  1.0000
  C   C477      1.0  0.18134  0.95405  0.18656  1.0000
  H   H580      1.0  0.18221  0.66078  0.21012  1.0000
  H   H581      1.0  0.18344  0.63092  0.29753  1.0000
  C   C478      1.0  0.07410  0.72888  0.98721  1.0000
  H   H582      1.0  0.11273  0.89067  0.29852  1.0000
  H   H583      1.0  0.02694  0.82698  0.28078  1.0000
  H   H584      1.0  0.17117  0.55866  0.17252  1.0000
  C   C479      1.0  0.08477  0.93046  0.29734  1.0000
  H   H585      1.0  0.19745  0.49913  0.21086  1.0000
  H   H586      1.0  0.00931  0.82391  0.25813  1.0000
  S   S132      1.0  0.02339  0.71438  0.22115  1.0000
  C   C480      1.0  0.06800  0.62236  0.25638  1.0000
  H   H587      1.0  0.00482  0.69289  0.26677  1.0000
  H   H588      1.0  0.02929  0.68656  0.25517  1.0000
  H   H589      1.0  0.23985  0.49303  0.19156  1.0000
  H   H590      1.0  0.13204  0.52114  0.13345  1.0000
  C   C481      1.0  0.23094  0.73251  0.98040  1.0000
  H   H591      1.0  0.07117  0.62761  0.28226  1.0000
  H   H592      1.0  0.23780  0.76736  0.01675  1.0000
  H   H593      1.0  0.07472  0.71363  0.99490  1.0000
  H   H594      1.0  0.15929  0.96793  0.20735  1.0000
  H   H595      1.0  0.18918  0.73912  0.01980  1.0000
  H   H596      1.0  0.17790  0.52476  0.18941  1.0000
  C   C482      1.0  0.20452  0.77425  0.04122  1.0000
  H   H597      1.0  0.17006  0.49974  0.17880  1.0000
  H   H598      1.0  0.06992  0.82668  0.19281  1.0000
  H   H599      1.0  0.18815  0.55725  0.26396  1.0000
  C   C483      1.0  0.14002  0.49447  0.16379  1.0000
  C   C484      1.0  0.17198  0.52849  0.17673  1.0000
  C   C485      1.0  0.10756  0.72498  0.98443  1.0000
  H   H600      1.0  0.03698  0.76433  0.26289  1.0000
  C   C486      1.0  0.19099  0.94694  0.24985  1.0000
  H   H601      1.0  0.23109  0.66836  0.19811  1.0000
  C   C487      1.0  0.06501  0.90722  0.30201  1.0000
  C   C488      1.0  0.04503  0.77991  0.27932  1.0000
  C   C489      1.0  0.03482  0.77804  0.26671  1.0000
  N   N35       1.0  0.20812  0.76559  0.02446  1.0000
  C   C490      1.0  0.22666  0.73444  0.04049  1.0000
  C   C491      1.0  0.19139  0.77370  0.01534  1.0000
  H   H602      1.0  0.20182  0.74111  0.17997  1.0000
  C   C492      1.0  0.18442  0.92258  0.17858  1.0000
  H   H603      1.0  0.14889  0.54349  0.13258  1.0000
  H   H604      1.0  0.05957  0.73750  0.99125  1.0000
  H   H605      1.0  0.06169  0.62055  0.23050  1.0000
  C   C493      1.0  0.03304  0.79507  0.17656  1.0000
  C   C494      1.0  0.22713  0.79217  0.11209  1.0000
  N   N36       1.0  0.22405  0.48791  0.22037  1.0000
  S   S133      1.0  0.02563  0.85415  0.30268  1.0000
  C   C495      1.0  0.06154  0.79617  0.18672  1.0000
  H   H606      1.0  0.09769  0.77759  0.19046  1.0000
  C   C496      1.0  0.15897  0.51884  0.15438  1.0000
  C   C497      1.0  0.21176  0.53040  0.28225  1.0000
  H   H607      1.0  0.22618  0.52194  0.28418  1.0000
  C   C498      1.0  0.20408  0.71301  0.03399  1.0000
  C   C499      1.0  0.04332  0.79500  0.15806  1.0000
  H   H608      1.0  0.07993  0.92031  0.27468  1.0000
  C   C500      1.0  0.22134  0.95093  0.22907  1.0000
  S   S134      1.0  0.00881  0.79202  0.24338  1.0000
  C   C501      1.0  0.04188  0.79578  0.19073  1.0000
  S   S135      1.0  0.05516  0.89366  0.29223  1.0000
  C   C502      1.0  0.19852  0.95654  0.17320  1.0000
  H   H609      1.0  0.08766  0.81403  0.20676  1.0000
  H   H610      1.0  0.18987  0.94330  0.27979  1.0000
  C   C503      1.0  0.22483  0.77171  0.01059  1.0000
  C   C504      1.0  0.06250  0.79568  0.15359  1.0000
  H   H611      1.0  0.08666  0.79574  0.16360  1.0000
  C   C505      1.0  0.20262  0.94891  0.23167  1.0000
  H   H612      1.0  0.14378  0.95248  0.19480  1.0000
  H   H613      1.0  0.22296  0.94692  0.27526  1.0000
  N   N37       1.0  0.12235  0.69160  0.17060  1.0000
  C   C506      1.0  0.10193  0.69411  0.17055  1.0000
  C   C507      1.0  0.13204  0.69828  0.15066  1.0000
  C   C508      1.0  0.13040  0.67081  0.17658  1.0000
  C   C509      1.0  0.12458  0.70201  0.18412  1.0000
  C   C510      1.0  0.13612  0.71597  0.17872  1.0000
  C   C511      1.0  0.11545  0.69788  0.20356  1.0000
  C   C512      1.0  0.13814  0.72522  0.19201  1.0000
  C   C513      1.0  0.11742  0.70729  0.21671  1.0000
  C   C514      1.0  0.12879  0.72092  0.21095  1.0000
  H   H614      1.0  0.09525  0.70959  0.16652  1.0000
  H   H615      1.0  0.09988  0.68672  0.16021  1.0000
  H   H616      1.0  0.09368  0.68808  0.18461  1.0000
  H   H617      1.0  0.12646  0.71383  0.14519  1.0000
  H   H618      1.0  0.12996  0.69036  0.14077  1.0000
  H   H619      1.0  0.14766  0.69584  0.14931  1.0000
  H   H620      1.0  0.12274  0.66428  0.19080  1.0000
  H   H621      1.0  0.12958  0.66243  0.16649  1.0000
  H   H622      1.0  0.14560  0.66832  0.17738  1.0000
  H   H623      1.0  0.14345  0.72031  0.16423  1.0000
  H   H624      1.0  0.10672  0.68724  0.20877  1.0000
  H   H625      1.0  0.14684  0.73597  0.18742  1.0000
  H   H626      1.0  0.11003  0.70393  0.23145  1.0000
  H   H627      1.0  0.13029  0.72818  0.22119  1.0000
  Fe  Fe68      1.0  0.99662  0.73077  0.23648  1.0000
  H   H628      1.0  0.22116  0.68602  0.22356  1.0000
  C   C515      1.0  0.05664  0.62690  0.24296  1.0000
  C   C516      1.0  0.19024  0.69235  0.18173  1.0000
  H   H629      1.0  0.15674  0.48844  0.23247  1.0000
  H   H630      1.0  0.18531  0.92312  0.21478  1.0000
  Fe  Fe69      1.0  0.23267  0.83157  0.13129  1.0000
  C   C517      1.0  0.21183  0.74435  0.03053  1.0000
  H   H631      1.0  0.99882  0.64139  0.27915  1.0000
  N   N38       1.0  0.21052  0.55136  0.27969  1.0000
  H   H632      1.0  0.15677  0.56763  0.14411  1.0000
  H   H633      1.0  0.15567  0.51710  0.11857  1.0000
  H   H634      1.0  0.18697  0.65622  0.23313  1.0000
  H   H635      1.0  0.10935  0.71022  0.99355  1.0000
  C   C518      1.0  0.18701  0.70792  0.16659  1.0000
  C   C519      1.0  0.19139  0.56150  0.27590  1.0000
  C   C520      1.0  0.15380  0.94306  0.18548  1.0000
  C   C521      1.0  0.07057  0.73087  0.04476  1.0000
  H   H636      1.0  0.19246  0.76945  0.05233  1.0000
  H   H637      1.0  0.05253  0.78403  0.22627  1.0000
  S   S136      1.0  0.01084  0.73576  0.25744  1.0000
  H   H638      1.0  0.19621  0.69202  0.23468  1.0000
  H   H639      1.0  0.18165  0.70618  0.15507  1.0000
  C   C522      1.0  0.21364  0.55668  0.29633  1.0000
  N   N39       1.0  0.08878  0.73699  0.99083  1.0000
  S   S137      1.0  0.21152  0.81210  0.14099  1.0000
  S   S138      1.0  0.16677  0.94760  0.25265  1.0000
  C   C523      1.0  0.08774  0.75675  0.97889  1.0000
  C   C524      1.0  0.08654  0.73753  0.01107  1.0000
  C   C525      1.0  0.09931  0.74526  0.01663  1.0000
  C   C526      1.0  0.07204  0.73031  0.02576  1.0000
  C   C527      1.0  0.09768  0.74579  0.03563  1.0000
  H   H640      1.0  0.21357  0.64075  0.29506  1.0000
  C   C528      1.0  0.08337  0.73858  0.04968  1.0000
  C   C529      1.0  0.21170  0.79637  0.12679  1.0000
  H   H641      1.0  0.00718  0.65173  0.29388  1.0000
  H   H642      1.0  0.07059  0.79505  0.13929  1.0000
  C   C530      1.0  0.19842  0.72747  0.18064  1.0000
  C   C531      1.0  0.19854  0.94563  0.26561  1.0000
  H   H643      1.0  0.14589  0.48719  0.17676  1.0000
  H   H644      1.0  0.16588  0.91361  0.21354  1.0000
  H   H645      1.0  0.04737  0.80996  0.21990  1.0000
  H   H646      1.0  0.21949  0.97411  0.16056  1.0000
  S   S139      1.0  0.14436  0.93585  0.30734  1.0000
  N   N40       1.0  0.20199  0.67672  0.21213  1.0000
  C   C532      1.0  0.21714  0.49812  0.23636  1.0000
  H   H647      1.0  0.23946  0.79834  0.10949  1.0000
  C   C533      1.0  0.03928  0.64008  0.24509  1.0000
  C   C534      1.0  0.16811  0.54764  0.16726  1.0000
  C   C535      1.0  0.21732  0.94748  0.26306  1.0000
  H   H648      1.0  0.22409  0.57298  0.25879  1.0000
  H   H649      1.0  0.01824  0.79401  0.18006  1.0000
  H   H650      1.0  0.15443  0.95120  0.17046  1.0000
  H   H651      1.0  0.19886  0.91686  0.18183  1.0000
  H   H652      1.0  0.03140  0.64309  0.23398  1.0000
  H   H653      1.0  0.05509  0.76763  0.28515  1.0000
  S   S140      1.0  0.99920  0.75897  0.21607  1.0000
  H   H654      1.0  0.18721  0.67894  0.18128  1.0000
  H   H655      1.0  0.21704  0.77047  0.04798  1.0000
  C   C536      1.0  0.00144  0.65504  0.28071  1.0000
  C   C537      1.0  0.02188  0.79389  0.25909  1.0000
  C   C538      1.0  0.02913  0.81331  0.27699  1.0000
  H   H656      1.0  0.10766  0.75174  0.03952  1.0000
  H   H657      1.0  0.20698  0.51195  0.23268  1.0000
  H   H658      1.0  0.04077  0.65026  0.28684  1.0000
  H   H659      1.0  0.00223  0.90297  0.29195  1.0000
  C   C539      1.0  0.07156  0.79609  0.16768  1.0000
  H   H660      1.0  0.03655  0.79375  0.14731  1.0000
  C   C540      1.0  0.20747  0.68106  0.22813  1.0000
  C   C541      1.0  0.01783  0.68121  0.26664  1.0000
  S   S141      1.0  0.16291  0.97477  0.29285  1.0000
  C   C542      1.0  0.05903  0.79690  0.22047  1.0000
  C   C543      1.0  0.21163  0.63551  0.28358  1.0000
  C   C544      1.0  0.23837  0.91447  0.17151  1.0000
  C   C545      1.0  0.21271  0.57622  0.29609  1.0000
  H   H661      1.0  0.22897  0.81686  0.04413  1.0000
  S   S142      1.0  0.22140  0.86297  0.12074  1.0000
  S   S143      1.0  0.15917  0.71538  0.98573  1.0000
  C   C546      1.0  0.23385  0.50045  0.20369  1.0000
  H   H662      1.0  0.17213  0.67864  0.22441  1.0000
  H   H663      1.0  0.23560  0.74212  0.04366  1.0000
  N   N41       1.0  0.15405  0.50350  0.14829  1.0000
  C   C547      1.0  0.21849  0.70382  0.04407  1.0000
  C   C548      1.0  0.19108  0.72546  0.16602  1.0000
  Fe  Fe70      1.0  0.15127  0.95702  0.28002  1.0000
  C   C549      1.0  0.19778  0.69381  0.19683  1.0000
  H   H664      1.0  0.20972  0.48918  0.24922  1.0000
  H   H665      1.0  0.18009  0.55836  0.28871  1.0000
  H   H666      1.0  0.23016  0.95270  0.21495  1.0000
  C   C550      1.0  0.07682  0.91945  0.28988  1.0000
  H   H667      1.0  0.17788  0.90986  0.18151  1.0000
  H   H668      1.0  0.09400  0.77731  0.21525  1.0000
  H   H669      1.0  0.14730  0.93052  0.18735  1.0000
  H   H670      1.0  0.20971  0.58743  0.28392  1.0000
  H   H671      1.0  0.19340  0.76864  0.00201  1.0000
  H   H672      1.0  0.20786  0.71435  0.20649  1.0000
  H   H673      1.0  0.22795  0.76554  0.99774  1.0000
  H   H674      1.0  0.03305  0.79559  0.20476  1.0000
  C   C551      1.0  0.21793  0.66250  0.20390  1.0000
  H   H675      1.0  0.20638  0.94625  0.16454  1.0000
  H   H676      1.0  0.14924  0.75701  0.98185  1.0000
  H   H677      1.0  0.18591  0.92874  0.16301  1.0000
  C   C552      1.0  0.17227  0.96888  0.19679  1.0000
  C   C553      1.0  0.18509  0.66782  0.22024  1.0000
  S   S144      1.0  0.12188  0.97561  0.28242  1.0000
  H   H678      1.0  0.99890  0.78113  0.29533  1.0000
  C   C554      1.0  0.16742  0.51428  0.17052  1.0000
  H   H679      1.0  0.18989  0.57739  0.27183  1.0000
  H   H680      1.0  0.19504  0.70472  0.03183  1.0000
  H   H681      1.0  0.20101  0.52504  0.29469  1.0000
  H   H682      1.0  0.22398  0.51411  0.19875  1.0000
  H   H683      1.0  0.23099  0.81519  0.06799  1.0000
  C   C555      1.0  0.14566  0.51051  0.13099  1.0000
  H   H684      1.0  0.99167  0.67995  0.24938  1.0000
  C   C556      1.0  0.99961  0.90042  0.30773  1.0000
  H   H685      1.0  0.23875  0.77642  0.08961  1.0000
  H   H686      1.0  0.23474  0.90298  0.21852  1.0000
  H   H687      1.0  0.01424  0.67491  0.23388  1.0000
  C   C557      1.0  0.00495  0.66876  0.24724  1.0000
  H   H688      1.0  0.00063  0.65631  0.24502  1.0000
  H   H689      1.0  0.22878  0.50173  0.24061  1.0000
  C   C558      1.0  0.23699  0.90739  0.15630  1.0000
  H   H690      1.0  0.11952  0.73109  0.98489  1.0000
  H   H691      1.0  0.23766  0.72578  0.99253  1.0000
  Fe  Fe71      1.0  0.23801  0.86825  0.13939  1.0000
  C   C559      1.0  0.22983  0.71450  0.04722  1.0000
  C   C560      1.0  0.21347  0.72886  0.98054  1.0000
  C   C561      1.0  0.17134  0.48852  0.14414  1.0000
  H   H692      1.0  0.23965  0.55025  0.26524  1.0000
  Fe  Fe72      1.0  0.01026  0.85125  0.33321  1.0000
  H   H693      1.0  0.17942  0.91418  0.32542  1.0000
  S   S145      1.0  0.22579  0.73883  0.46772  1.0000
  C   C562      1.0  0.09660  0.86113  0.33972  1.0000
  Fe  Fe73      1.0  0.14838  0.81085  0.42952  1.0000
  S   S146      1.0  0.12797  0.82706  0.45086  1.0000
  S   S147      1.0  0.15505  0.77944  0.42947  1.0000
  Fe  Fe74      1.0  0.16125  0.84653  0.40344  1.0000
  S   S148      1.0  0.14202  0.86592  0.42221  1.0000
  S   S149      1.0  0.17998  0.85523  0.37500  1.0000
  Fe  Fe75      1.0  0.15148  0.84276  0.44647  1.0000
  S   S150      1.0  0.16418  0.84997  0.46750  1.0000
  Fe  Fe76      1.0  0.12035  0.84872  0.42474  1.0000
  S   S151      1.0  0.09093  0.86456  0.42036  1.0000
  S   S152      1.0  0.17234  0.82466  0.42731  1.0000
  S   S153      1.0  0.13895  0.83117  0.40394  1.0000
  Fe  Fe77      1.0  0.13636  0.85279  0.57236  1.0000
  S   S154      1.0  0.15526  0.82526  0.58374  1.0000
  S   S155      1.0  0.11893  0.85228  0.55176  1.0000
  Fe  Fe78      1.0  0.14617  0.87502  0.59663  1.0000
  S   S156      1.0  0.16627  0.84945  0.60950  1.0000
  S   S157      1.0  0.13699  0.90268  0.60720  1.0000
  Fe  Fe79      1.0  0.17586  0.84396  0.57991  1.0000
  S   S158      1.0  0.20610  0.83324  0.56636  1.0000
  Fe  Fe80      1.0  0.14389  0.83318  0.61216  1.0000
  N   N42       1.0  0.07793  0.86603  0.48635  1.0000
  S   S159      1.0  0.15780  0.87118  0.56645  1.0000
  S   S160      1.0  0.12301  0.85908  0.60133  1.0000
  C   C563      1.0  0.09925  0.90071  0.37200  1.0000
  S   S161      1.0  0.06207  0.82268  0.37260  1.0000
  C   C564      1.0  0.15069  0.90513  0.62212  1.0000
  H   H694      1.0  0.06988  0.77676  0.38702  1.0000
  H   H695      1.0  0.10103  0.91229  0.57189  1.0000
  C   C565      1.0  0.18028  0.89738  0.63318  1.0000
  H   H696      1.0  0.20717  0.86120  0.40851  1.0000
  H   H697      1.0  0.21460  0.81717  0.45840  1.0000
  Fe  Fe81      1.0  0.04442  0.82604  0.31297  1.0000
  C   C566      1.0  0.17720  0.88024  0.36687  1.0000
  C   C567      1.0  0.17183  0.89239  0.37976  1.0000
  C   C568      1.0  0.16936  0.91239  0.37305  1.0000
  C   C569      1.0  0.17181  0.92030  0.35347  1.0000
  C   C570      1.0  0.17728  0.90814  0.34057  1.0000
  C   C571      1.0  0.18020  0.88811  0.34727  1.0000
  H   H698      1.0  0.16993  0.88640  0.39488  1.0000
  H   H699      1.0  0.16530  0.92176  0.38305  1.0000
  H   H700      1.0  0.13119  0.89203  0.45150  1.0000
  H   H701      1.0  0.10962  0.75708  0.33281  1.0000
  C   C572      1.0  0.08181  0.85296  0.40792  1.0000
  C   C573      1.0  0.08977  0.83376  0.40706  1.0000
  C   C574      1.0  0.08347  0.82479  0.39618  1.0000
  C   C575      1.0  0.06923  0.83491  0.38597  1.0000
  C   C576      1.0  0.06101  0.85410  0.38695  1.0000
  C   C577      1.0  0.06713  0.86304  0.39816  1.0000
  H   H702      1.0  0.10068  0.82568  0.41495  1.0000
  H   H703      1.0  0.08983  0.80996  0.39555  1.0000
  H   H704      1.0  0.04989  0.86196  0.37921  1.0000
  H   H705      1.0  0.06075  0.87786  0.39893  1.0000
  C   C578      1.0  0.15146  0.85017  0.49092  1.0000
  C   C579      1.0  0.13537  0.84209  0.49838  1.0000
  C   C580      1.0  0.12564  0.84243  0.51725  1.0000
  C   C581      1.0  0.13199  0.85083  0.52865  1.0000
  C   C582      1.0  0.14832  0.85851  0.52128  1.0000
  C   C583      1.0  0.15800  0.85821  0.50245  1.0000
  H   H706      1.0  0.13049  0.83560  0.48962  1.0000
  H   H707      1.0  0.11320  0.83620  0.52307  1.0000
  H   H708      1.0  0.15323  0.86512  0.52992  1.0000
  H   H709      1.0  0.17045  0.86448  0.49672  1.0000
  S   S162      1.0  0.16767  0.94537  0.34538  1.0000
  C   C584      1.0  0.09173  0.79310  0.33477  1.0000
  C   C585      1.0  0.21134  0.84613  0.41508  1.0000
  H   H710      1.0  0.09759  0.91671  0.60372  1.0000
  H   H711      1.0  0.06997  0.86699  0.59348  1.0000
  C   C586      1.0  0.09081  0.90607  0.60227  1.0000
  H   H712      1.0  0.19487  0.88961  0.63244  1.0000
  H   H713      1.0  0.19725  0.79235  0.49397  1.0000
  H   H714      1.0  0.10609  0.82426  0.61782  1.0000
  C   C587      1.0  0.08599  0.91238  0.63978  1.0000
  C   C588      1.0  0.21479  0.81071  0.57981  1.0000
  S   S163      1.0  0.12414  0.97375  0.32612  1.0000
  N   N43       1.0  0.08030  0.89511  0.63816  1.0000
  H   H715      1.0  0.19127  0.81241  0.60375  1.0000
  Fe  Fe82      1.0  0.15313  0.95527  0.32052  1.0000
  S   S164      1.0  0.02798  0.86686  0.34171  1.0000
  C   C589      1.0  0.20579  0.74945  0.45748  1.0000
  C   C590      1.0  0.19312  0.76544  0.46347  1.0000
  C   C591      1.0  0.17763  0.77479  0.45473  1.0000
  C   C592      1.0  0.17436  0.76772  0.44046  1.0000
  C   C593      1.0  0.18679  0.75147  0.43473  1.0000
  C   C594      1.0  0.20266  0.74247  0.44307  1.0000
  H   H716      1.0  0.19533  0.77072  0.47475  1.0000
  H   H717      1.0  0.16797  0.78726  0.45929  1.0000
  H   H718      1.0  0.18424  0.74596  0.42373  1.0000
  H   H719      1.0  0.05196  0.89685  0.33111  1.0000
  Fe  Fe83      1.0  0.04695  0.83780  0.34840  1.0000
  C   C595      1.0  0.20718  0.79791  0.39494  1.0000
  H   H720      1.0  0.20634  0.85148  0.44318  1.0000
  C   C596      1.0  0.06849  0.91763  0.32902  1.0000
  H   H721      1.0  0.14019  0.76292  0.37573  1.0000
  C   C597      1.0  0.09417  0.75900  0.33905  1.0000
  C   C598      1.0  0.10631  0.88041  0.46636  1.0000
  H   H722      1.0  0.09535  0.83824  0.49475  1.0000
  C   C599      1.0  0.23948  0.80238  0.38312  1.0000
  H   H723      1.0  0.23578  0.76743  0.40119  1.0000
  C   C600      1.0  0.23191  0.79941  0.57229  1.0000
  N   N44       1.0  0.08696  0.77557  0.34858  1.0000
  C   C601      1.0  0.22042  0.80718  0.43231  1.0000
  C   C602      1.0  0.11566  0.89159  0.32630  1.0000
  H   H724      1.0  0.08132  0.84886  0.51430  1.0000
  H   H725      1.0  0.09865  0.86182  0.36742  1.0000
  C   C603      1.0  0.09345  0.87610  0.48399  1.0000
  C   C604      1.0  0.12483  0.76561  0.37795  1.0000
  C   C605      1.0  0.17598  0.80819  0.52066  1.0000
  C   C606      1.0  0.21546  0.82128  0.44315  1.0000
  H   H726      1.0  0.10721  0.79154  0.32879  1.0000
  H   H727      1.0  0.22479  0.53782  0.34055  1.0000
  C   C607      1.0  0.11187  0.88383  0.34623  1.0000
  C   C608      1.0  0.22006  0.56786  0.32745  1.0000
  H   H728      1.0  0.22603  0.77617  0.47562  1.0000
  H   H729      1.0  0.12509  0.76774  0.34884  1.0000
  C   C609      1.0  0.22685  0.78120  0.48776  1.0000
  C   C610      1.0  0.08532  0.88971  0.58057  1.0000
  H   H730      1.0  0.17586  0.88569  0.61139  1.0000
  C   C611      1.0  0.16949  0.89502  0.62136  1.0000
  H   H731      1.0  0.08702  0.76091  0.32701  1.0000
  H   H732      1.0  0.99518  0.91283  0.33931  1.0000
  S   S165      1.0  0.13514  0.81341  0.63997  1.0000
  C   C612      1.0  0.12116  0.88940  0.46489  1.0000
  H   H733      1.0  0.08763  0.87811  0.51385  1.0000
  H   H734      1.0  0.22326  0.79242  0.43996  1.0000
  C   C613      1.0  0.09936  0.82470  0.63248  1.0000
  C   C614      1.0  0.11016  0.88417  0.31360  1.0000
  C   C615      1.0  0.22094  0.81226  0.41235  1.0000
  C   C616      1.0  0.21171  0.78587  0.60867  1.0000
  H   H735      1.0  0.22309  0.57207  0.33907  1.0000
  H   H736      1.0  0.05929  0.79134  0.35976  1.0000
  H   H737      1.0  0.10130  0.91219  0.63345  1.0000
  H   H738      1.0  0.13303  0.91139  0.36209  1.0000
  C   C617      1.0  0.07333  0.88044  0.61445  1.0000
  H   H739      1.0  0.10543  0.87674  0.45354  1.0000
  H   H740      1.0  0.16347  0.81571  0.52985  1.0000
  C   C618      1.0  0.10222  0.86832  0.35250  1.0000
  H   H741      1.0  0.06426  0.85496  0.47034  1.0000
  C   C619      1.0  0.10052  0.86909  0.32029  1.0000
  H   H742      1.0  0.05696  0.89242  0.48472  1.0000
  C   C620      1.0  0.21626  0.83219  0.40410  1.0000
  C   C621      1.0  0.05946  0.87779  0.49404  1.0000
  H   H743      1.0  0.08886  0.84956  0.34500  1.0000
  H   H744      1.0  0.08454  0.79677  0.32247  1.0000
  H   H745      1.0  0.20955  0.78749  0.38573  1.0000
  H   H746      1.0  0.23360  0.74789  0.52302  1.0000
  C   C622      1.0  0.23882  0.78125  0.58287  1.0000
  H   H747      1.0  0.14037  0.86776  0.36436  1.0000
  H   H748      1.0  0.20387  0.78071  0.62275  1.0000
  C   C623      1.0  0.21036  0.79045  0.49856  1.0000
  H   H749      1.0  0.17344  0.79366  0.52189  1.0000
  S   S166      1.0  0.08961  0.94369  0.32688  1.0000
  H   H750      1.0  0.07025  0.83891  0.50164  1.0000
  H   H751      1.0  0.21548  0.83718  0.38923  1.0000
  S   S167      1.0  0.06504  0.83982  0.31904  1.0000
  C   C624      1.0  0.12861  0.90646  0.35130  1.0000
  H   H752      1.0  0.23099  0.79868  0.53087  1.0000
  H   H753      1.0  0.05964  0.78063  0.34094  1.0000
  H   H754      1.0  0.19606  0.79388  0.40766  1.0000
  H   H755      1.0  0.11904  0.86578  0.38230  1.0000
  C   C625      1.0  0.08132  0.84724  0.49986  1.0000
  C   C626      1.0  0.09591  0.77215  0.36514  1.0000
  H   H756      1.0  0.08765  0.88736  0.56630  1.0000
  C   C627      1.0  0.08522  0.77320  0.38382  1.0000
  C   C628      1.0  0.22885  0.77459  0.60117  1.0000
  C   C629      1.0  0.09420  0.77034  0.39901  1.0000
  C   C630      1.0  0.11394  0.76665  0.39607  1.0000
  H   H757      1.0  0.18444  0.87874  0.33726  1.0000
  H   H758      1.0  0.12231  0.90382  0.32019  1.0000
  H   H759      1.0  0.23722  0.69641  0.36877  1.0000
  C   C631      1.0  0.22101  0.54855  0.32824  1.0000
  H   H760      1.0  0.09166  0.74537  0.34926  1.0000
  C   C632      1.0  0.07966  0.83117  0.63739  1.0000
  C   C633      1.0  0.06590  0.77834  0.35366  1.0000
  C   C634      1.0  0.22476  0.71873  0.51739  1.0000
  H   H761      1.0  0.06615  0.87068  0.62585  1.0000
  H   H762      1.0  0.21411  0.71617  0.53089  1.0000
  H   H763      1.0  0.22560  0.70813  0.50882  1.0000
  C   C635      1.0  0.06098  0.90623  0.32163  1.0000
  H   H764      1.0  0.08575  0.77158  0.41305  1.0000
  H   H765      1.0  0.12082  0.76487  0.40782  1.0000
  N   N45       1.0  0.19403  0.80703  0.52634  1.0000
  C   C636      1.0  0.20459  0.80384  0.59791  1.0000
  C   C637      1.0  0.19229  0.79683  0.54662  1.0000
  C   C638      1.0  0.19586  0.82698  0.52471  1.0000
  C   C639      1.0  0.21110  0.79705  0.51461  1.0000
  C   C640      1.0  0.22928  0.79388  0.51900  1.0000
  H   H766      1.0  0.14180  0.90076  0.34169  1.0000
  C   C641      1.0  0.21794  0.54293  0.31293  1.0000
  H   H767      1.0  0.06511  0.91696  0.34419  1.0000
  H   H768      1.0  0.08725  0.80566  0.34172  1.0000
  C   C642      1.0  0.12782  0.87601  0.37282  1.0000
  H   H769      1.0  0.06128  0.76565  0.36406  1.0000
  H   H770      1.0  0.11355  0.89382  0.51062  1.0000
  H   H771      1.0  0.20407  0.79744  0.55286  1.0000
  H   H772      1.0  0.19203  0.78144  0.54839  1.0000
  H   H773      1.0  0.17910  0.80343  0.55569  1.0000
  H   H774      1.0  0.19672  0.83534  0.50976  1.0000
  H   H775      1.0  0.18357  0.83482  0.53384  1.0000
  H   H776      1.0  0.20872  0.82746  0.52935  1.0000
  H   H777      1.0  0.21904  0.73300  0.50883  1.0000
  H   H778      1.0  0.10237  0.90680  0.38274  1.0000
  C   C643      1.0  0.07542  0.87821  0.59589  1.0000
  H   H779      1.0  0.08922  0.85252  0.46216  1.0000
  C   C644      1.0  0.11602  0.76832  0.36268  1.0000
  C   C645      1.0  0.07622  0.86222  0.46830  1.0000
  C   C646      1.0  0.09288  0.90370  0.58375  1.0000
  H   H780      1.0  0.22122  0.77263  0.42292  1.0000
  H   H781      1.0  0.05868  0.87958  0.50860  1.0000
  H   H782      1.0  0.04734  0.87109  0.49510  1.0000
  H   H783      1.0  0.09016  0.89023  0.37999  1.0000
  N   N46       1.0  0.22492  0.79776  0.40058  1.0000
  H   H784      1.0  0.13318  0.88163  0.38244  1.0000
  H   H785      1.0  0.07127  0.83583  0.62648  1.0000
  C   C647      1.0  0.14272  0.91754  0.63482  1.0000
  C   C648      1.0  0.21086  0.84068  0.43458  1.0000
  H   H786      1.0  0.09065  0.91256  0.36296  1.0000
  S   S168      1.0  0.02763  0.82209  0.34284  1.0000
  H   H787      1.0  0.23990  0.80472  0.55835  1.0000
  H   H788      1.0  0.17582  0.81657  0.50582  1.0000
  H   H789      1.0  0.07359  0.87577  0.45740  1.0000
  H   H790      1.0  0.12058  0.91960  0.34314  1.0000
  N   N47       1.0  0.11690  0.89169  0.36021  1.0000
  H   H791      1.0  0.13551  0.90078  0.47963  1.0000
  C   C649      1.0  0.11120  0.89052  0.49815  1.0000
  H   H792      1.0  0.07731  0.92584  0.63278  1.0000
  H   H793      1.0  0.21224  0.72995  0.43857  1.0000
  C   C650      1.0  0.09636  0.88147  0.49983  1.0000
  C   C651      1.0  0.12361  0.89441  0.48073  1.0000
  C   C652      1.0  0.08110  0.89432  0.61826  1.0000
  C   C653      1.0  0.08049  0.92968  0.31694  1.0000
  H   H794      1.0  0.20105  0.81235  0.38699  1.0000
  H   H795      1.0  0.10826  0.87737  0.63830  1.0000
  H   H796      1.0  0.12825  0.92554  0.63536  1.0000
  H   H797      1.0  0.09571  0.86391  0.31040  1.0000
  H   H798      1.0  0.99779  0.88533  0.31350  1.0000
  H   H799      1.0  0.23002  0.68343  0.53428  1.0000
  H   H800      1.0  0.23424  0.81575  0.37314  1.0000
  H   H801      1.0  0.23366  0.73112  0.54551  1.0000
  S   S169      1.0  0.23787  0.75236  0.61491  1.0000
  H   H802      1.0  0.99715  0.79614  0.31109  1.0000
  H   H803      1.0  0.21946  0.52770  0.31431  1.0000
  C   C654      1.0  0.23209  0.77787  0.41063  1.0000
  Fe  Fe84      1.0  0.04471  0.86771  0.31176  1.0000
  C   C655      1.0  0.21593  0.58167  0.31139  1.0000
  Fe  Fe85      1.0  0.11574  0.95570  0.31096  1.0000
  H   H804      1.0  0.21552  0.59665  0.31067  1.0000
  H   H805      1.0  0.23878  0.82637  0.59485  1.0000
  H   H806      1.0  0.99759  0.93670  0.31075  1.0000
  H   H807      1.0  0.01285  0.90169  0.31121  1.0000
  C   C656      1.0  0.22250  0.68743  0.68900  1.0000
  H   H808      1.0  0.10387  0.52401  0.84478  1.0000
  H   H809      1.0  0.23446  0.85063  0.86528  1.0000
  C   C657      1.0  0.06722  0.90988  0.72599  1.0000
  H   H810      1.0  0.19883  0.82694  0.93376  1.0000
  C   C658      1.0  0.08183  0.82602  0.67035  1.0000
  S   S170      1.0  0.04711  0.84413  0.66140  1.0000
  Fe  Fe86      1.0  0.15739  0.76110  0.92162  1.0000
  S   S171      1.0  0.17818  0.73436  0.93121  1.0000
  S   S172      1.0  0.16789  0.78884  0.91109  1.0000
  Fe  Fe87      1.0  0.12513  0.73998  0.93016  1.0000
  S   S173      1.0  0.14342  0.71175  0.94116  1.0000
  S   S174      1.0  0.09495  0.73800  0.93167  1.0000
  Fe  Fe88      1.0  0.15419  0.72842  0.95581  1.0000
  Fe  Fe89      1.0  0.16549  0.72031  0.91563  1.0000
  S   S175      1.0  0.18379  0.70063  0.89624  1.0000
  S   S176      1.0  0.13395  0.75605  0.94720  1.0000
  S   S177      1.0  0.14668  0.74770  0.90366  1.0000
  H   H811      1.0  0.01687  0.73531  0.77159  1.0000
  Fe  Fe90      1.0  0.00824  0.74185  0.84273  1.0000
  C   C659      1.0  0.23392  0.70630  0.65799  1.0000
  S   S178      1.0  0.13963  0.51656  0.80762  1.0000
  Fe  Fe91      1.0  0.19151  0.62513  0.82549  1.0000
  S   S179      1.0  0.18961  0.60413  0.85352  1.0000
  S   S180      1.0  0.20026  0.95845  0.80757  1.0000
  Fe  Fe92      1.0  0.15079  0.62775  0.82402  1.0000
  S   S181      1.0  0.14561  0.60680  0.85188  1.0000
  S   S182      1.0  0.12767  0.64255  0.80770  1.0000
  Fe  Fe93      1.0  0.16139  0.62332  0.86150  1.0000
  S   S183      1.0  0.15040  0.63283  0.88935  1.0000
  Fe  Fe94      1.0  0.17415  0.58988  0.84085  1.0000
  S   S184      1.0  0.18100  0.55761  0.84498  1.0000
  S   S185      1.0  0.16447  0.64552  0.83440  1.0000
  S   S186      1.0  0.17827  0.60944  0.81205  1.0000
  Fe  Fe95      1.0  0.04484  0.75024  0.84778  1.0000
  S   S187      1.0  0.06348  0.72910  0.83049  1.0000
  S   S188      1.0  0.05980  0.76812  0.85710  1.0000
  H   H812      1.0  0.02120  0.82942  0.81027  1.0000
  S   S189      1.0  0.02441  0.71970  0.82565  1.0000
  Fe  Fe96      1.0  0.04301  0.71021  0.84713  1.0000
  S   S190      1.0  0.05380  0.67956  0.86056  1.0000
  Fe  Fe97      1.0  0.04296  0.74096  0.81092  1.0000
  S   S191      1.0  0.04962  0.74825  0.77903  1.0000
  S   S192      1.0  0.02541  0.73062  0.86579  1.0000
  S   S193      1.0  0.02581  0.76383  0.82659  1.0000
  Fe  Fe98      1.0  0.05132  0.84770  0.72673  1.0000
  S   S194      1.0  0.03043  0.87384  0.73437  1.0000
  S   S195      1.0  0.06963  0.83040  0.74775  1.0000
  Fe  Fe99      1.0  0.04082  0.85463  0.68842  1.0000
  S   S196      1.0  0.01922  0.88159  0.69252  1.0000
  S   S197      1.0  0.14301  0.94683  0.68865  1.0000
  Fe  Fe100     1.0  0.04111  0.88833  0.70432  1.0000
  S   S198      1.0  0.05131  0.91624  0.69471  1.0000
  Fe  Fe101     1.0  0.01050  0.86456  0.72211  1.0000
  S   S199      1.0  0.06341  0.86280  0.69752  1.0000
  S   S200      1.0  0.03066  0.83705  0.71703  1.0000
  N   N48       1.0  0.21139  0.62158  0.90278  1.0000
  C   C660      1.0  0.06851  0.91748  0.70645  1.0000
  H   H813      1.0  0.13580  0.83099  0.73252  1.0000
  C   C661      1.0  0.09767  0.92728  0.70515  1.0000
  C   C662      1.0  0.08367  0.92633  0.69611  1.0000
  H   H814      1.0  0.10942  0.93378  0.69689  1.0000
  H   H815      1.0  0.00599  0.75128  0.79928  1.0000
  C   C663      1.0  0.05654  0.77044  0.77009  1.0000
  C   C664      1.0  0.05595  0.77986  0.75118  1.0000
  C   C665      1.0  0.06050  0.79807  0.74410  1.0000
  C   C666      1.0  0.06590  0.80679  0.75583  1.0000
  C   C667      1.0  0.06708  0.79711  0.77456  1.0000
  C   C668      1.0  0.06214  0.77905  0.78178  1.0000
  H   H816      1.0  0.05189  0.77313  0.74201  1.0000
  H   H817      1.0  0.06008  0.80524  0.72946  1.0000
  H   H818      1.0  0.07136  0.80375  0.78366  1.0000
  H   H819      1.0  0.06283  0.77172  0.79635  1.0000
  C   C669      1.0  0.21996  0.93705  0.75981  1.0000
  C   C670      1.0  0.10703  0.65286  0.82230  1.0000
  C   C671      1.0  0.09299  0.66693  0.81415  1.0000
  C   C672      1.0  0.07654  0.67528  0.82583  1.0000
  C   C673      1.0  0.07381  0.66900  0.84564  1.0000
  C   C674      1.0  0.08763  0.65465  0.85375  1.0000
  C   C675      1.0  0.10439  0.64697  0.84213  1.0000
  H   H820      1.0  0.09499  0.67166  0.79883  1.0000
  H   H821      1.0  0.06591  0.68646  0.81951  1.0000
  H   H822      1.0  0.08563  0.64993  0.86908  1.0000
  H   H823      1.0  0.11519  0.63650  0.84861  1.0000
  C   C676      1.0  0.15084  0.52811  0.81819  1.0000
  C   C677      1.0  0.15004  0.54798  0.81203  1.0000
  C   C678      1.0  0.15894  0.55733  0.82038  1.0000
  C   C679      1.0  0.16907  0.54671  0.83457  1.0000
  C   C680      1.0  0.17010  0.52684  0.84047  1.0000
  C   C681      1.0  0.16083  0.51761  0.83249  1.0000
  H   H824      1.0  0.14237  0.55612  0.80094  1.0000
  H   H825      1.0  0.15811  0.57268  0.81578  1.0000
  H   H826      1.0  0.17782  0.51857  0.85151  1.0000
  H   H827      1.0  0.16133  0.50238  0.83757  1.0000
  C   C682      1.0  0.17329  0.68289  0.89378  1.0000
  C   C683      1.0  0.15825  0.67659  0.90768  1.0000
  C   C684      1.0  0.15097  0.66150  0.90601  1.0000
  C   C685      1.0  0.15862  0.65273  0.89037  1.0000
  C   C686      1.0  0.17323  0.65943  0.87616  1.0000
  C   C687      1.0  0.18052  0.67448  0.87787  1.0000
  C   C688      1.0  0.08098  0.91130  0.73513  1.0000
  H   H828      1.0  0.13962  0.65641  0.91704  1.0000
  H   H829      1.0  0.17929  0.65275  0.86406  1.0000
  H   H830      1.0  0.19187  0.67955  0.86688  1.0000
  C   C689      1.0  0.08624  0.74555  0.91030  1.0000
  C   C690      1.0  0.09171  0.76103  0.89618  1.0000
  C   C691      1.0  0.08332  0.76791  0.88009  1.0000
  C   C692      1.0  0.06999  0.75892  0.87756  1.0000
  C   C693      1.0  0.06485  0.74312  0.89144  1.0000
  C   C694      1.0  0.07274  0.73666  0.90790  1.0000
  H   H831      1.0  0.10194  0.76811  0.89796  1.0000
  H   H832      1.0  0.08721  0.78026  0.86952  1.0000
  H   H833      1.0  0.05444  0.73621  0.88975  1.0000
  H   H834      1.0  0.06831  0.72479  0.91883  1.0000
  H   H835      1.0  0.22978  0.54485  0.73711  1.0000
  C   C695      1.0  0.18437  0.81081  0.92393  1.0000
  H   H836      1.0  0.16557  0.87488  0.66842  1.0000
  H   H837      1.0  0.20508  0.48961  0.73443  1.0000
  H   H838      1.0  0.08997  0.86824  0.73685  1.0000
  H   H839      1.0  0.18596  0.81940  0.90956  1.0000
  H   H840      1.0  0.21094  0.60812  0.73509  1.0000
  Fe  Fe102     1.0  0.23526  0.86365  0.94520  1.0000
  H   H841      1.0  0.17103  0.95378  0.79108  1.0000
  H   H842      1.0  0.02076  0.75750  0.75630  1.0000
  H   H843      1.0  0.14984  0.87492  0.70106  1.0000
  H   H844      1.0  0.16711  0.51427  0.76229  1.0000
  H   H845      1.0  0.07620  0.72890  0.97179  1.0000
  C   C696      1.0  0.20467  0.73758  0.96515  1.0000
  H   H846      1.0  0.11131  0.84214  0.69560  1.0000
  H   H847      1.0  0.05639  0.88129  0.65214  1.0000
  C   C697      1.0  0.18012  0.78872  0.96106  1.0000
  S   S201      1.0  0.19997  0.80787  0.97324  1.0000
  H   H848      1.0  0.19401  0.69863  0.70290  1.0000
  H   H849      1.0  0.09222  0.97608  0.75910  1.0000
  C   C698      1.0  0.21664  0.71964  0.65963  1.0000
  H   H850      1.0  0.14709  0.92902  0.65677  1.0000
  C   C699      1.0  0.99261  0.80863  0.81596  1.0000
  H   H851      1.0  0.00358  0.80653  0.82382  1.0000
  H   H852      1.0  0.09097  0.85691  0.71844  1.0000
  N   N49       1.0  0.99292  0.75905  0.77486  1.0000
  H   H853      1.0  0.18122  0.98136  0.70972  1.0000
  H   H854      1.0  0.11429  0.82902  0.72719  1.0000
  H   H855      1.0  0.11306  0.83712  0.74800  1.0000
  H   H856      1.0  0.01397  0.85836  0.77603  1.0000
  C   C700      1.0  0.18471  0.94918  0.78230  1.0000
  H   H857      1.0  0.21432  0.92473  0.89935  1.0000
  C   C701      1.0  0.21009  0.50165  0.73566  1.0000
  C   C702      1.0  0.21018  0.64004  0.77834  1.0000
  C   C703      1.0  0.22407  0.53285  0.73678  1.0000
  C   C704      1.0  0.19145  0.98330  0.71727  1.0000
  C   C705      1.0  0.21466  0.64114  0.75863  1.0000
  S   S202      1.0  0.23309  0.83997  0.93264  1.0000
  S   S203      1.0  0.21950  0.63396  0.81303  1.0000
  C   C706      1.0  0.18977  0.59388  0.75519  1.0000
  C   C707      1.0  0.07099  0.83253  0.65619  1.0000
  H   H858      1.0  0.03115  0.80850  0.79978  1.0000
  C   C708      1.0  0.22149  0.51061  0.71944  1.0000
  H   H859      1.0  0.17158  0.57820  0.77786  1.0000
  H   H860      1.0  0.23850  0.60211  0.89923  1.0000
  H   H861      1.0  0.19551  0.64159  0.78582  1.0000
  C   C709      1.0  0.23272  0.66648  0.85807  1.0000
  H   H862      1.0  0.18648  0.64166  0.91280  1.0000
  Fe  Fe103     1.0  0.17185  0.92750  0.68481  1.0000
  C   C710      1.0  0.19928  0.57382  0.78414  1.0000
  H   H863      1.0  0.23151  0.65014  0.83859  1.0000
  N   N50       1.0  0.00943  0.82935  0.78658  1.0000
  N   N51       1.0  0.11078  0.69958  0.85988  1.0000
  C   C711      1.0  0.09080  0.70319  0.87047  1.0000
  C   C712      1.0  0.11105  0.69891  0.84007  1.0000
  C   C713      1.0  0.12028  0.68023  0.86914  1.0000
  C   C714      1.0  0.11993  0.71527  0.85949  1.0000
  C   C715      1.0  0.13677  0.71194  0.86653  1.0000
  C   C716      1.0  0.11218  0.73464  0.85151  1.0000
  C   C717      1.0  0.14516  0.72710  0.86570  1.0000
  C   C718      1.0  0.12070  0.74968  0.85073  1.0000
  C   C719      1.0  0.13709  0.74593  0.85792  1.0000
  H   H864      1.0  0.08203  0.71661  0.86360  1.0000
  H   H865      1.0  0.08356  0.69139  0.87153  1.0000
  H   H866      1.0  0.09010  0.70454  0.88520  1.0000
  H   H867      1.0  0.10324  0.71250  0.83238  1.0000
  H   H868      1.0  0.10429  0.68733  0.83966  1.0000
  H   H869      1.0  0.12586  0.69620  0.83171  1.0000
  H   H870      1.0  0.12033  0.67957  0.88425  1.0000
  H   H871      1.0  0.11293  0.66880  0.86934  1.0000
  H   H872      1.0  0.13517  0.67602  0.86145  1.0000
  H   H873      1.0  0.14367  0.69778  0.87287  1.0000
  H   H874      1.0  0.09928  0.73839  0.84600  1.0000
  H   H875      1.0  0.15790  0.72422  0.87136  1.0000
  H   H876      1.0  0.11425  0.76436  0.84488  1.0000
  H   H877      1.0  0.14345  0.75766  0.85768  1.0000
  N   N52       1.0  0.09863  0.59107  0.83088  1.0000
  C   C720      1.0  0.08375  0.59283  0.82016  1.0000
  C   C721      1.0  0.09063  0.60423  0.84437  1.0000
  C   C722      1.0  0.11506  0.59775  0.81704  1.0000
  C   C723      1.0  0.10510  0.57117  0.84122  1.0000
  C   C724      1.0  0.10025  0.55492  0.83824  1.0000
  C   C725      1.0  0.11757  0.56743  0.85394  1.0000
  C   C726      1.0  0.10721  0.53625  0.84773  1.0000
  C   C727      1.0  0.12439  0.54873  0.86339  1.0000
  C   C728      1.0  0.11919  0.53317  0.86032  1.0000
  H   H878      1.0  0.07121  0.58739  0.82974  1.0000
  H   H879      1.0  0.07852  0.60809  0.81333  1.0000
  H   H880      1.0  0.08930  0.58494  0.80835  1.0000
  H   H881      1.0  0.07909  0.59898  0.85587  1.0000
  H   H882      1.0  0.08467  0.61909  0.83707  1.0000
  H   H883      1.0  0.10149  0.60599  0.85121  1.0000
  H   H884      1.0  0.11072  0.61238  0.80832  1.0000
  H   H885      1.0  0.12610  0.59865  0.82417  1.0000
  H   H886      1.0  0.12197  0.58788  0.80709  1.0000
  H   H887      1.0  0.09147  0.55611  0.82834  1.0000
  H   H888      1.0  0.12262  0.57885  0.85630  1.0000
  H   H889      1.0  0.13433  0.54623  0.87261  1.0000
  H   H890      1.0  0.12500  0.51864  0.86718  1.0000
  H   H891      1.0  0.12772  0.84315  0.66241  1.0000
  C   C729      1.0  0.21899  0.94381  0.77599  1.0000
  H   H892      1.0  0.11912  0.97967  0.70849  1.0000
  H   H893      1.0  0.05015  0.90672  0.64264  1.0000
  H   H894      1.0  0.21639  0.78279  0.92068  1.0000
  C   C730      1.0  0.19007  0.50611  0.78722  1.0000
  H   H895      1.0  0.20348  0.64322  0.75101  1.0000
  C   C731      1.0  0.23890  0.58668  0.79284  1.0000
  H   H896      1.0  0.19061  0.61932  0.88851  1.0000
  C   C732      1.0  0.22587  0.68592  0.75658  1.0000
  Fe  Fe104     1.0  0.15677  0.96591  0.69735  1.0000
  C   C733      1.0  0.09631  0.91992  0.72472  1.0000
  C   C734      1.0  0.10147  0.81902  0.66552  1.0000
  H   H897      1.0  0.07980  0.90556  0.75027  1.0000
  Fe  Fe105     1.0  0.14022  0.93123  0.71923  1.0000
  C   C735      1.0  0.23133  0.75357  0.94855  1.0000
  S   S204      1.0  0.18601  0.94819  0.69035  1.0000
  C   C736      1.0  0.15340  0.91958  0.64693  1.0000
  C   C737      1.0  0.22276  0.65292  0.89153  1.0000
  H   H898      1.0  0.23513  0.59464  0.75417  1.0000
  H   H899      1.0  0.02940  0.83098  0.75976  1.0000
  H   H900      1.0  0.18117  0.49819  0.79971  1.0000
  C   C738      1.0  0.20769  0.59837  0.74872  1.0000
  H   H901      1.0  0.21203  0.60089  0.88652  1.0000
  N   N53       1.0  0.11845  0.85812  0.72186  1.0000
  C   C739      1.0  0.12534  0.86924  0.73171  1.0000
  C   C740      1.0  0.09797  0.86640  0.72235  1.0000
  C   C741      1.0  0.12057  0.83795  0.73285  1.0000
  C   C742      1.0  0.12868  0.85853  0.70187  1.0000
  C   C743      1.0  0.12298  0.84959  0.69016  1.0000
  C   C744      1.0  0.14437  0.86770  0.69344  1.0000
  C   C745      1.0  0.13223  0.85008  0.67115  1.0000
  C   C746      1.0  0.15358  0.86792  0.67449  1.0000
  C   C747      1.0  0.14743  0.85931  0.66331  1.0000
  H   H902      1.0  0.12403  0.88458  0.72410  1.0000
  H   H903      1.0  0.11693  0.86930  0.74646  1.0000
  H   H904      1.0  0.14041  0.86313  0.73296  1.0000
  H   H905      1.0  0.09584  0.88064  0.71235  1.0000
  H   H906      1.0  0.11542  0.97654  0.74431  1.0000
  C   C748      1.0  0.17530  0.79523  0.92872  1.0000
  H   H907      1.0  0.10990  0.81428  0.67641  1.0000
  C   C749      1.0  0.22572  0.69446  0.73752  1.0000
  H   H908      1.0  0.05548  0.90315  0.73410  1.0000
  C   C750      1.0  0.02545  0.82432  0.79669  1.0000
  H   H909      1.0  0.16609  0.77231  0.95112  1.0000
  S   S205      1.0  0.11347  0.92118  0.73661  1.0000
  C   C751      1.0  0.19744  0.62963  0.91850  1.0000
  H   H910      1.0  0.10333  0.95782  0.74608  1.0000
  H   H911      1.0  0.18981  0.61876  0.92882  1.0000
  C   C752      1.0  0.17305  0.78433  0.94735  1.0000
  H   H912      1.0  0.23769  0.67796  0.84691  1.0000
  H   H913      1.0  0.01019  0.77324  0.78376  1.0000
  H   H914      1.0  0.15254  0.68294  0.91998  1.0000
  C   C753      1.0  0.19177  0.81500  0.93757  1.0000
  H   H915      1.0  0.19720  0.96875  0.72516  1.0000
  C   C754      1.0  0.18979  0.80385  0.95614  1.0000
  S   S206      1.0  0.16834  0.91055  0.71496  1.0000
  S   S207      1.0  0.20560  0.92684  0.73478  1.0000
  C   C755      1.0  0.20338  0.93614  0.75487  1.0000
  C   C756      1.0  0.20140  0.94973  0.78739  1.0000
  Fe  Fe106     1.0  0.18037  0.93280  0.72091  1.0000
  H   H916      1.0  0.22152  0.54589  0.80765  1.0000
  C   C757      1.0  0.21343  0.74963  0.94928  1.0000
  C   C758      1.0  0.20236  0.71693  0.67579  1.0000
  C   C759      1.0  0.18568  0.94246  0.76598  1.0000
  C   C760      1.0  0.00235  0.85046  0.78353  1.0000
  H   H917      1.0  0.17281  0.94174  0.76229  1.0000
  C   C761      1.0  0.23972  0.74479  0.96472  1.0000
  H   H918      1.0  0.03760  0.83105  0.78796  1.0000
  H   H919      1.0  0.07310  0.96711  0.73285  1.0000
  S   S208      1.0  0.15188  0.95188  0.72836  1.0000
  C   C762      1.0  0.00968  0.74879  0.76299  1.0000
  C   C763      1.0  0.22594  0.55879  0.80871  1.0000
  H   H920      1.0  0.19090  0.73493  0.96554  1.0000
  H   H921      1.0  0.07509  0.82643  0.68500  1.0000
  H   H922      1.0  0.08475  0.93224  0.68100  1.0000
  H   H923      1.0  0.22401  0.67507  0.70068  1.0000
  H   H924      1.0  0.05931  0.89764  0.66408  1.0000
  C   C764      1.0  0.22223  0.63625  0.86775  1.0000
  H   H925      1.0  0.08415  0.91314  0.65494  1.0000
  C   C765      1.0  0.22916  0.65085  0.85342  1.0000
  H   H926      1.0  0.22504  0.50532  0.70639  1.0000
  H   H927      1.0  0.00682  0.82877  0.75837  1.0000
  C   C766      1.0  0.23364  0.63877  0.74899  1.0000
  C   C767      1.0  0.99418  0.79120  0.75248  1.0000
  H   H928      1.0  0.08949  0.86433  0.64656  1.0000
  Fe  Fe107     1.0  0.22237  0.82580  0.96263  1.0000
  C   C768      1.0  0.17472  0.49905  0.76610  1.0000
  S   S209      1.0  0.22335  0.89381  0.93049  1.0000
  H   H929      1.0  0.22325  0.59669  0.92223  1.0000
  C   C769      1.0  0.06072  0.89520  0.64963  1.0000
  C   C770      1.0  0.18560  0.58156  0.77281  1.0000
  H   H930      1.0  0.20573  0.75578  0.93787  1.0000
  H   H931      1.0  0.20827  0.97916  0.68068  1.0000
  C   C771      1.0  0.20527  0.70084  0.69045  1.0000
  H   H932      1.0  0.21305  0.69645  0.73203  1.0000
  C   C772      1.0  0.01727  0.82403  0.76779  1.0000
  H   H933      1.0  0.23508  0.61650  0.91628  1.0000
  C   C773      1.0  0.20535  0.50799  0.75306  1.0000
  H   H934      1.0  0.22668  0.59670  0.79968  1.0000
  C   C774      1.0  0.22466  0.63690  0.78828  1.0000
  S   S210      1.0  0.23948  0.63786  0.72491  1.0000
  H   H935      1.0  0.17904  0.60008  0.74658  1.0000
  C   C775      1.0  0.20189  0.60993  0.89612  1.0000
  H   H936      1.0  0.19487  0.59972  0.90807  1.0000
  C   C776      1.0  0.10130  0.97352  0.74525  1.0000
  Fe  Fe108     1.0  0.22934  0.95953  0.81028  1.0000
  C   C777      1.0  0.22954  0.66749  0.87708  1.0000
  C   C778      1.0  0.22964  0.92039  0.89719  1.0000
  H   H937      1.0  0.08881  0.75692  0.96361  1.0000
  H   H938      1.0  0.20410  0.63513  0.92711  1.0000
  C   C779      1.0  0.22844  0.52619  0.71999  1.0000
  H   H939      1.0  0.18893  0.72726  0.67684  1.0000
  H   H940      1.0  0.23730  0.55342  0.81719  1.0000
  H   H941      1.0  0.99133  0.85555  0.77467  1.0000
  S   S211      1.0  0.22178  0.85052  0.97508  1.0000
  C   C780      1.0  0.24054  0.85013  0.87762  1.0000
  H   H942      1.0  0.99590  0.85502  0.79731  1.0000
  C   C781      1.0  0.22148  0.59063  0.75987  1.0000
  H   H943      1.0  0.22855  0.85174  0.89006  1.0000
  H   H944      1.0  0.23363  0.93265  0.75099  1.0000
  H   H945      1.0  0.17585  0.49208  0.75423  1.0000
  C   C782      1.0  0.23060  0.77388  0.91612  1.0000
  H   H946      1.0  0.21425  0.73210  0.64813  1.0000
  H   H947      1.0  0.23441  0.93994  0.86987  1.0000
  C   C783      1.0  0.23738  0.68974  0.67272  1.0000
  H   H948      1.0  0.23191  0.94429  0.77970  1.0000
  H   H949      1.0  0.20976  0.52995  0.76559  1.0000
  H   H950      1.0  0.19497  0.56469  0.79778  1.0000
  N   N54       1.0  0.19352  0.49795  0.77011  1.0000
  H   H951      1.0  0.15452  0.85974  0.64855  1.0000
  C   C784      1.0  0.22776  0.60862  0.91051  1.0000
  H   H952      1.0  0.20354  0.50520  0.79155  1.0000
  H   H953      1.0  0.21972  0.62467  0.86303  1.0000
  H   H954      1.0  0.22937  0.79072  0.94504  1.0000
  H   H955      1.0  0.02249  0.80820  0.76944  1.0000
  H   H956      1.0  0.21379  0.56739  0.81728  1.0000
  C   C785      1.0  0.21264  0.52400  0.75312  1.0000
  C   C786      1.0  0.21766  0.57829  0.77804  1.0000
  C   C787      1.0  0.11032  0.81897  0.64648  1.0000
  H   H957      1.0  0.18212  0.52133  0.78489  1.0000
  H   H958      1.0  0.22211  0.96484  0.69754  1.0000
  H   H959      1.0  0.16536  0.49175  0.77870  1.0000
  C   C788      1.0  0.21842  0.63704  0.88731  1.0000
  H   H960      1.0  0.00879  0.78968  0.75336  1.0000
  H   H961      1.0  0.09335  0.87774  0.66156  1.0000
  N   N55       1.0  0.23249  0.57057  0.78966  1.0000
  H   H962      1.0  0.10480  0.96212  0.71369  1.0000
  H   H963      1.0  0.23185  0.67991  0.88068  1.0000
  C   C789      1.0  0.23053  0.97885  0.72489  1.0000
  C   C790      1.0  0.07325  0.98247  0.73173  1.0000
  H   H964      1.0  0.23045  0.88645  0.85934  1.0000
  H   H965      1.0  0.22058  0.65456  0.90597  1.0000
  S   S212      1.0  0.18597  0.91135  0.66133  1.0000
  H   H966      1.0  0.21334  0.68116  0.76583  1.0000
  C   C791      1.0  0.21723  0.97998  0.69022  1.0000
  C   C792      1.0  0.10419  0.97779  0.71166  1.0000
  H   H967      1.0  0.22949  0.96443  0.72515  1.0000
  H   H968      1.0  0.00560  0.74495  0.75133  1.0000
  H   H969      1.0  0.22698  0.88550  0.88427  1.0000
  H   H970      1.0  0.10949  0.72359  0.96947  1.0000
  H   H971      1.0  0.23732  0.89716  0.75839  1.0000
  C   C793      1.0  0.99352  0.81964  0.79701  1.0000
  H   H972      1.0  0.22860  0.76208  0.91059  1.0000
  H   H973      1.0  0.23823  0.78333  0.90388  1.0000
  C   C794      1.0  0.99929  0.76426  0.78978  1.0000
  C   C795      1.0  0.17225  0.90957  0.64608  1.0000
  C   C796      1.0  0.23801  0.90575  0.91080  1.0000
  C   C797      1.0  0.09338  0.87789  0.64656  1.0000
  H   H974      1.0  0.23870  0.87708  0.77777  1.0000
  S   S213      1.0  0.23580  0.97415  0.83019  1.0000
  H   H975      1.0  0.99429  0.81862  0.73265  1.0000
  H   H976      1.0  0.09797  0.98495  0.69882  1.0000
  C   C798      1.0  0.23807  0.88421  0.87104  1.0000
  H   H977      1.0  0.23747  0.53296  0.70741  1.0000
  N   N56       1.0  0.09287  0.98533  0.72872  1.0000
  H   H978      1.0  0.22991  0.98541  0.68101  1.0000
  H   H979      1.0  0.17836  0.78011  0.97538  1.0000
  S   S214      1.0  0.25614  0.47570  0.27692  1.0000
  H   H980      1.0  0.29997  0.18661  0.98269  1.0000
  C   C799      1.0  0.31267  0.41347  0.28140  1.0000
  H   H981      1.0  0.34577  0.41868  0.30275  1.0000
  C   C800      1.0  0.47863  0.24882  0.27096  1.0000
  Fe  Fe109     1.0  0.38575  0.31380  0.28749  1.0000
  S   S215      1.0  0.39364  0.30492  0.25933  1.0000
  H   H982      1.0  0.44525  0.23074  0.25051  1.0000
  S   S216      1.0  0.40289  0.33206  0.29255  1.0000
  C   C801      1.0  0.27568  0.25565  0.99947  1.0000
  Fe  Fe110     1.0  0.27277  0.44800  0.29121  1.0000
  C   C802      1.0  0.34812  0.39442  0.29074  1.0000
  C   C803      1.0  0.24599  0.19140  0.27804  1.0000
  C   C804      1.0  0.24895  0.31682  0.08810  1.0000
  C   C805      1.0  0.30547  0.19565  0.98836  1.0000
  C   C806      1.0  0.29162  0.19967  0.16072  1.0000
  H   H983      1.0  0.42312  0.26412  0.29706  1.0000
  Fe  Fe111     1.0  0.26474  0.00524  0.18433  1.0000
  H   H984      1.0  0.33496  0.23437  0.26375  1.0000
  H   H985      1.0  0.35016  0.30752  0.27291  1.0000
  H   H986      1.0  0.25488  0.28903  0.02026  1.0000
  Fe  Fe112     1.0  0.33465  0.24031  0.21275  1.0000
  S   S217      1.0  0.34915  0.24790  0.18212  1.0000
  S   S218      1.0  0.30325  0.24027  0.22037  1.0000
  Fe  Fe113     1.0  0.37147  0.22977  0.22678  1.0000
  S   S219      1.0  0.38951  0.23421  0.19731  1.0000
  S   S220      1.0  0.38202  0.22478  0.25389  1.0000
  Fe  Fe114     1.0  0.36773  0.26124  0.19212  1.0000
  S   S221      1.0  0.37863  0.28807  0.17558  1.0000
  Fe  Fe115     1.0  0.36990  0.22051  0.18928  1.0000
  S   S222      1.0  0.37998  0.20150  0.16776  1.0000
  S   S223      1.0  0.35024  0.25751  0.22182  1.0000
  S   S224      1.0  0.35473  0.21219  0.21965  1.0000
  C   C807      1.0  0.25429  0.46984  0.23146  1.0000
  H   H987      1.0  0.28248  0.11714  0.27148  1.0000
  H   H988      1.0  0.27342  0.42198  0.24181  1.0000
  S   S225      1.0  0.46398  0.29466  0.16763  1.0000
  Fe  Fe116     1.0  0.31640  0.22948  0.08913  1.0000
  S   S226      1.0  0.29307  0.22029  0.11291  1.0000
  S   S227      1.0  0.34687  0.22463  0.09221  1.0000
  Fe  Fe117     1.0  0.29037  0.24505  0.06026  1.0000
  S   S228      1.0  0.26488  0.23757  0.08191  1.0000
  S   S229      1.0  0.28751  0.25946  0.02989  1.0000
  Fe  Fe118     1.0  0.27546  0.24861  0.10156  1.0000
  H   H989      1.0  0.30875  0.20218  0.03072  1.0000
  Fe  Fe119     1.0  0.28454  0.20998  0.09130  1.0000
  S   S230      1.0  0.27228  0.18363  0.09996  1.0000
  S   S231      1.0  0.29937  0.25897  0.07911  1.0000
  S   S232      1.0  0.30952  0.21638  0.06817  1.0000
  H   H990      1.0  0.24118  0.05155  0.29806  1.0000
  Fe  Fe120     1.0  0.27546  0.14431  0.23402  1.0000
  S   S233      1.0  0.27064  0.16098  0.20522  1.0000
  S   S234      1.0  0.28630  0.15636  0.25310  1.0000
  Fe  Fe121     1.0  0.26302  0.10934  0.22990  1.0000
  S   S235      1.0  0.25658  0.12365  0.20107  1.0000
  S   S236      1.0  0.26110  0.07844  0.24266  1.0000
  Fe  Fe122     1.0  0.28401  0.13320  0.19580  1.0000
  S   S237      1.0  0.30688  0.13116  0.16970  1.0000
  H   H991      1.0  0.34438  0.24393  0.98860  1.0000
  C   C808      1.0  0.30377  0.19259  0.00796  1.0000
  S   S238      1.0  0.29136  0.11730  0.22387  1.0000
  H   H992      1.0  0.25928  0.30970  0.02500  1.0000
  H   H993      1.0  0.27145  0.29212  0.09355  1.0000
  H   H994      1.0  0.27594  0.02496  0.21060  1.0000
  H   H995      1.0  0.47053  0.39175  0.25077  1.0000
  H   H996      1.0  0.25057  0.27423  0.05457  1.0000
  H   H997      1.0  0.27996  0.27158  0.27108  1.0000
  H   H998      1.0  0.24738  0.20960  0.16729  1.0000
  S   S239      1.0  0.48949  0.30341  0.24450  1.0000
  C   C809      1.0  0.35471  0.26522  0.11241  1.0000
  H   H999      1.0  0.43634  0.30214  0.28106  1.0000
  H   H1000     1.0  0.28408  0.19622  0.15185  1.0000
  C   C810      1.0  0.26846  0.24617  0.98970  1.0000
  C   C811      1.0  0.26708  0.45281  0.23699  1.0000
  H   H1001     1.0  0.30807  0.28367  0.12847  1.0000
  C   C812      1.0  0.33359  0.25176  0.97976  1.0000
  H   H1002     1.0  0.38148  0.23995  0.14672  1.0000
  C   C813      1.0  0.45885  0.25708  0.27457  1.0000
  C   C814      1.0  0.26879  0.04815  0.22526  1.0000
  H   H1003     1.0  0.41039  0.25026  0.10909  1.0000
  H   H1004     1.0  0.31456  0.43547  0.29446  1.0000
  S   S240      1.0  0.28103  0.98762  0.20665  1.0000
  H   H1005     1.0  0.27862  0.04107  0.23469  1.0000
  S   S241      1.0  0.29035  0.42477  0.27571  1.0000
  H   H1006     1.0  0.48057  0.34795  0.26935  1.0000
  S   S242      1.0  0.25331  0.21671  0.98714  1.0000
  C   C815      1.0  0.27666  0.24818  0.01867  1.0000
  C   C816      1.0  0.24749  0.43443  0.23137  1.0000
  H   H1007     1.0  0.31876  0.21276  0.19171  1.0000
  H   H1008     1.0  0.45278  0.29480  0.26068  1.0000
  C   C817      1.0  0.26165  0.22260  0.01873  1.0000
  C   C818      1.0  0.26926  0.23185  0.02841  1.0000
  C   C819      1.0  0.38799  0.25275  0.14273  1.0000
  H   H1009     1.0  0.26979  0.22604  0.04328  1.0000
  C   C820      1.0  0.29757  0.14491  0.14984  1.0000
  C   C821      1.0  0.27858  0.14624  0.14948  1.0000
  C   C822      1.0  0.27102  0.15763  0.13377  1.0000
  C   C823      1.0  0.28226  0.16823  0.11874  1.0000
  C   C824      1.0  0.30116  0.16715  0.11922  1.0000
  C   C825      1.0  0.30894  0.15515  0.13460  1.0000
  H   H1010     1.0  0.26973  0.13838  0.16119  1.0000
  H   H1011     1.0  0.25637  0.15858  0.13343  1.0000
  C   C826      1.0  0.32560  0.24708  0.26827  1.0000
  H   H1012     1.0  0.32360  0.15426  0.13489  1.0000
  C   C827      1.0  0.40253  0.28887  0.17426  1.0000
  C   C828      1.0  0.41006  0.30372  0.16089  1.0000
  C   C829      1.0  0.42890  0.30503  0.15908  1.0000
  C   C830      1.0  0.44046  0.29172  0.17085  1.0000
  C   C831      1.0  0.43303  0.27687  0.18443  1.0000
  C   C832      1.0  0.41411  0.27538  0.18603  1.0000
  H   H1013     1.0  0.40129  0.31425  0.15179  1.0000
  H   H1014     1.0  0.43449  0.31655  0.14855  1.0000
  H   H1015     1.0  0.44185  0.26643  0.19354  1.0000
  H   H1016     1.0  0.40855  0.26385  0.19641  1.0000
  C   C833      1.0  0.36959  0.20780  0.14745  1.0000
  C   C834      1.0  0.38045  0.20181  0.13090  1.0000
  C   C835      1.0  0.37306  0.20679  0.11432  1.0000
  C   C836      1.0  0.35439  0.21710  0.11423  1.0000
  C   C837      1.0  0.34313  0.22253  0.13101  1.0000
  C   C838      1.0  0.35091  0.21832  0.14745  1.0000
  H   H1017     1.0  0.39484  0.19362  0.13074  1.0000
  H   H1018     1.0  0.38188  0.20257  0.10145  1.0000
  H   H1019     1.0  0.32872  0.23060  0.13110  1.0000
  H   H1020     1.0  0.34242  0.22312  0.16009  1.0000
  C   C839      1.0  0.29802  0.21721  0.23015  1.0000
  C   C840      1.0  0.30817  0.20381  0.24313  1.0000
  C   C841      1.0  0.30422  0.18530  0.25036  1.0000
  C   C842      1.0  0.29045  0.17991  0.24429  1.0000
  C   C843      1.0  0.28012  0.19337  0.23150  1.0000
  C   C844      1.0  0.28365  0.21208  0.22476  1.0000
  H   H1021     1.0  0.31897  0.20776  0.24774  1.0000
  H   H1022     1.0  0.31215  0.17503  0.26038  1.0000
  H   H1023     1.0  0.26924  0.18950  0.22697  1.0000
  H   H1024     1.0  0.27561  0.22244  0.21488  1.0000
  C   C845      1.0  0.31042  0.20439  0.01540  1.0000
  C   C846      1.0  0.26178  0.22937  0.99920  1.0000
  H   H1025     1.0  0.29694  0.18128  0.01744  1.0000
  H   H1026     1.0  0.47546  0.37237  0.23869  1.0000
  S   S243      1.0  0.37004  0.38253  0.29709  1.0000
  C   C847      1.0  0.45453  0.23570  0.25639  1.0000
  H   H1027     1.0  0.36272  0.25714  0.10169  1.0000
  H   H1028     1.0  0.30984  0.17543  0.10763  1.0000
  C   C848      1.0  0.25825  0.06675  0.22619  1.0000
  C   C849      1.0  0.48593  0.23427  0.26059  1.0000
  C   C850      1.0  0.31537  0.30539  0.29357  1.0000
  C   C851      1.0  0.24399  0.06659  0.20038  1.0000
  H   H1029     1.0  0.24104  0.31233  0.01205  1.0000
  H   H1030     1.0  0.28085  0.26862  0.99206  1.0000
  H   H1031     1.0  0.39307  0.26257  0.09480  1.0000
  C   C852      1.0  0.39224  0.28183  0.25821  1.0000
  C   C853      1.0  0.39193  0.27859  0.24061  1.0000
  C   C854      1.0  0.38914  0.26097  0.23934  1.0000
  C   C855      1.0  0.38716  0.24620  0.25550  1.0000
  C   C856      1.0  0.38827  0.24909  0.27305  1.0000
  C   C857      1.0  0.39056  0.26700  0.27446  1.0000
  H   H1032     1.0  0.39314  0.28992  0.22794  1.0000
  H   H1033     1.0  0.38829  0.25887  0.22581  1.0000
  H   H1034     1.0  0.38674  0.23768  0.28562  1.0000
  H   H1035     1.0  0.39077  0.26937  0.28810  1.0000
  H   H1036     1.0  0.30490  0.29979  0.30616  1.0000
  H   H1037     1.0  0.34793  0.25545  0.27466  1.0000
  C   C858      1.0  0.28841  0.21848  0.16305  1.0000
  H   H1038     1.0  0.34659  0.03456  0.19183  1.0000
  S   S244      1.0  0.48192  0.26739  0.21821  1.0000
  C   C859      1.0  0.30182  0.28028  0.27905  1.0000
  H   H1039     1.0  0.35392  0.28697  0.26294  1.0000
  H   H1040     1.0  0.39030  0.24020  0.11171  1.0000
  N   N57       1.0  0.42982  0.32610  0.21224  1.0000
  C   C860      1.0  0.44300  0.33372  0.19483  1.0000
  C   C861      1.0  0.43796  0.30553  0.21935  1.0000
  C   C862      1.0  0.41177  0.32698  0.20670  1.0000
  C   C863      1.0  0.42747  0.33725  0.22687  1.0000
  C   C864      1.0  0.40982  0.34883  0.23391  1.0000
  C   C865      1.0  0.44336  0.33723  0.23408  1.0000
  C   C866      1.0  0.40835  0.35972  0.24721  1.0000
  C   C867      1.0  0.44166  0.34784  0.24766  1.0000
  C   C868      1.0  0.42422  0.35925  0.25406  1.0000
  H   H1041     1.0  0.45772  0.33106  0.19714  1.0000
  H   H1042     1.0  0.44399  0.32684  0.18291  1.0000
  H   H1043     1.0  0.43816  0.34949  0.18987  1.0000
  H   H1044     1.0  0.43977  0.29676  0.20870  1.0000
  H   H1045     1.0  0.42857  0.29930  0.23254  1.0000
  H   H1046     1.0  0.45223  0.30326  0.22254  1.0000
  H   H1047     1.0  0.41392  0.31786  0.19623  1.0000
  H   H1048     1.0  0.40116  0.32153  0.21920  1.0000
  H   H1049     1.0  0.40545  0.34186  0.19993  1.0000
  H   H1050     1.0  0.39684  0.34953  0.22960  1.0000
  H   H1051     1.0  0.45728  0.32892  0.22928  1.0000
  H   H1052     1.0  0.39468  0.36824  0.25266  1.0000
  H   H1053     1.0  0.45389  0.34701  0.25338  1.0000
  H   H1054     1.0  0.42279  0.36735  0.26475  1.0000
  N   N58       1.0  0.33004  0.17356  0.18922  1.0000
  C   C869      1.0  0.34467  0.16583  0.17381  1.0000
  C   C870      1.0  0.33985  0.18000  0.20064  1.0000
  C   C871      1.0  0.32104  0.15775  0.20195  1.0000
  C   C872      1.0  0.31551  0.18910  0.18079  1.0000
  C   C873      1.0  0.31161  0.20834  0.18322  1.0000
  C   C874      1.0  0.30497  0.18523  0.16939  1.0000
  H   H1055     1.0  0.32216  0.31454  0.29843  1.0000
  Fe  Fe123     1.0  0.24387  0.14972  0.21362  1.0000
  H   H1056     1.0  0.33882  0.15867  0.16587  1.0000
  H   H1057     1.0  0.35095  0.17752  0.16327  1.0000
  H   H1058     1.0  0.35654  0.15497  0.17942  1.0000
  H   H1059     1.0  0.34721  0.19168  0.19183  1.0000
  H   H1060     1.0  0.35096  0.16821  0.20652  1.0000
  H   H1061     1.0  0.32973  0.18525  0.21295  1.0000
  H   H1062     1.0  0.30925  0.16321  0.21308  1.0000
  H   H1063     1.0  0.31507  0.15066  0.19411  1.0000
  H   H1064     1.0  0.33135  0.14625  0.20932  1.0000
  H   H1065     1.0  0.30718  0.17099  0.16692  1.0000
  C   C875      1.0  0.32942  0.02041  0.18327  1.0000
  H   H1066     1.0  0.33708  0.00602  0.18845  1.0000
  C   C876      1.0  0.25643  0.29809  0.09721  1.0000
  C   C877      1.0  0.31849  0.21956  0.00334  1.0000
  H   H1067     1.0  0.27840  0.22981  0.15592  1.0000
  C   C878      1.0  0.26718  0.03893  0.21168  1.0000
  H   H1068     1.0  0.26402  0.09403  0.27250  1.0000
  C   C879      1.0  0.43533  0.26594  0.30188  1.0000
  H   H1069     1.0  0.24466  0.42064  0.23166  1.0000
  C   C880      1.0  0.33953  0.38628  0.28108  1.0000
  H   H1070     1.0  0.25965  0.18138  0.28048  1.0000
  S   S245      1.0  0.25365  0.26386  0.12258  1.0000
  H   H1071     1.0  0.24334  0.20340  0.28543  1.0000
  C   C881      1.0  0.32334  0.28009  0.12741  1.0000
  C   C882      1.0  0.29830  0.22275  0.17439  1.0000
  C   C883      1.0  0.24290  0.21179  0.13214  1.0000
  H   H1072     1.0  0.25757  0.48313  0.23184  1.0000
  C   C884      1.0  0.24577  0.07593  0.21379  1.0000
  N   N59       1.0  0.45048  0.27224  0.28577  1.0000
  H   H1073     1.0  0.32882  0.26592  0.10417  1.0000
  C   C885      1.0  0.33908  0.41223  0.29546  1.0000
  C   C886      1.0  0.33474  0.03647  0.18511  1.0000
  H   H1074     1.0  0.32277  0.22841  0.01026  1.0000
  C   C887      1.0  0.39488  0.25406  0.10924  1.0000
  C   C888      1.0  0.32187  0.39582  0.27637  1.0000
  N   N60       1.0  0.38407  0.26493  0.12423  1.0000
  H   H1075     1.0  0.24601  0.15533  0.27454  1.0000
  C   C889      1.0  0.39152  0.28265  0.12052  1.0000
  C   C890      1.0  0.36330  0.27010  0.12499  1.0000
  C   C891      1.0  0.35097  0.28040  0.13865  1.0000
  C   C892      1.0  0.33130  0.28521  0.13986  1.0000
  H   H1076     1.0  0.25819  0.32520  0.07735  1.0000
  H   H1077     1.0  0.40347  0.24754  0.14248  1.0000
  H   H1078     1.0  0.38806  0.29268  0.10718  1.0000
  H   H1079     1.0  0.38549  0.29057  0.13229  1.0000
  H   H1080     1.0  0.40721  0.27936  0.11924  1.0000
  H   H1081     1.0  0.35644  0.28458  0.14872  1.0000
  C   C893      1.0  0.33503  0.27021  0.11367  1.0000
  C   C894      1.0  0.34047  0.27871  0.30124  1.0000
  N   N61       1.0  0.29895  0.07773  0.16258  1.0000
  C   C895      1.0  0.29074  0.08750  0.17876  1.0000
  C   C896      1.0  0.31228  0.08888  0.14831  1.0000
  C   C897      1.0  0.28315  0.07839  0.15350  1.0000
  C   C898      1.0  0.30922  0.05795  0.16953  1.0000
  C   C899      1.0  0.30408  0.04122  0.16802  1.0000
  C   C900      1.0  0.32484  0.05499  0.17835  1.0000
  C   C901      1.0  0.31415  0.02280  0.17476  1.0000
  C   C902      1.0  0.26846  0.12242  0.29924  1.0000
  C   C903      1.0  0.32135  0.42170  0.29088  1.0000
  H   H1082     1.0  0.30177  0.08951  0.18523  1.0000
  H   H1083     1.0  0.28229  0.10214  0.17418  1.0000
  H   H1084     1.0  0.28132  0.07916  0.19021  1.0000
  H   H1085     1.0  0.32338  0.09109  0.15456  1.0000
  H   H1086     1.0  0.30482  0.10362  0.14228  1.0000
  H   H1087     1.0  0.31955  0.08153  0.13631  1.0000
  H   H1088     1.0  0.27209  0.07102  0.16372  1.0000
  H   H1089     1.0  0.27575  0.09344  0.14840  1.0000
  H   H1090     1.0  0.28836  0.07160  0.14091  1.0000
  H   H1091     1.0  0.29224  0.04188  0.16184  1.0000
  H   H1092     1.0  0.32942  0.06701  0.18017  1.0000
  H   H1093     1.0  0.31011  0.01021  0.17342  1.0000
  S   S246      1.0  0.35808  0.33379  0.29532  1.0000
  H   H1094     1.0  0.30772  0.31524  0.28251  1.0000
  H   H1095     1.0  0.48884  0.25349  0.27573  1.0000
  H   H1096     1.0  0.29576  0.23735  0.17635  1.0000
  C   C904      1.0  0.32125  0.27623  0.28037  1.0000
  H   H1097     1.0  0.32218  0.29279  0.15064  1.0000
  H   H1098     1.0  0.31532  0.38951  0.26883  1.0000
  C   C905      1.0  0.34275  0.29809  0.26927  1.0000
  C   C906      1.0  0.29471  0.26808  0.27238  1.0000
  C   C907      1.0  0.30658  0.25156  0.26694  1.0000
  H   H1099     1.0  0.34613  0.28847  0.30649  1.0000
  H   H1100     1.0  0.34664  0.37285  0.27688  1.0000
  H   H1101     1.0  0.35300  0.26792  0.29628  1.0000
  C   C908      1.0  0.46444  0.27704  0.29393  1.0000
  C   C909      1.0  0.24454  0.28735  0.11131  1.0000
  H   H1102     1.0  0.47963  0.39514  0.27996  1.0000
  H   H1103     1.0  0.27961  0.45324  0.24162  1.0000
  C   C910      1.0  0.25471  0.04807  0.19926  1.0000
  H   H1104     1.0  0.30113  0.24238  0.26135  1.0000
  H   H1105     1.0  0.48711  0.29661  0.11688  1.0000
  H   H1106     1.0  0.38229  0.26056  0.15450  1.0000
  H   H1107     1.0  0.29189  0.29293  0.28278  1.0000
  H   H1108     1.0  0.24747  0.22543  0.12410  1.0000
  C   C911      1.0  0.44203  0.29010  0.27340  1.0000
  S   S247      1.0  0.24775  0.13458  0.24322  1.0000
  H   H1109     1.0  0.33506  0.30684  0.25779  1.0000
  H   H1110     1.0  0.24819  0.19815  0.26256  1.0000
  N   N62       1.0  0.32964  0.28943  0.28610  1.0000
  C   C912      1.0  0.48215  0.38189  0.24308  1.0000
  C   C913      1.0  0.24315  0.28858  0.05761  1.0000
  H   H1111     1.0  0.43199  0.25618  0.26838  1.0000
  C   C914      1.0  0.33290  0.25925  0.27471  1.0000
  C   C915      1.0  0.44708  0.25025  0.26671  1.0000
  H   H1112     1.0  0.43006  0.28823  0.26827  1.0000
  H   H1113     1.0  0.25563  0.20122  0.13632  1.0000
  H   H1114     1.0  0.25629  0.20975  0.02626  1.0000
  H   H1115     1.0  0.47979  0.21660  0.24512  1.0000
  H   H1116     1.0  0.48865  0.27072  0.14212  1.0000
  S   S248      1.0  0.25247  0.03702  0.18192  1.0000
  C   C916      1.0  0.24704  0.09502  0.30109  1.0000
  H   H1117     1.0  0.24158  0.23407  0.15519  1.0000
  C   C917      1.0  0.47392  0.22766  0.25341  1.0000
  H   H1118     1.0  0.48797  0.23677  0.15430  1.0000
  C   C918      1.0  0.24908  0.06283  0.29695  1.0000
  C   C919      1.0  0.27171  0.11356  0.28404  1.0000
  H   H1119     1.0  0.47337  0.36793  0.28024  1.0000
  C   C920      1.0  0.26364  0.43514  0.23707  1.0000
  C   C921      1.0  0.24776  0.30314  0.02406  1.0000
  S   S249      1.0  0.28507  0.99231  0.16078  1.0000
  C   C922      1.0  0.26113  0.10019  0.28484  1.0000
  H   H1120     1.0  0.48812  0.31326  0.27984  1.0000
  H   H1121     1.0  0.27667  0.13289  0.29842  1.0000
  H   H1122     1.0  0.48910  0.39092  0.22992  1.0000
  C   C923      1.0  0.32031  0.22320  0.98323  1.0000
  Fe  Fe124     1.0  0.37501  0.35030  0.30320  1.0000
  H   H1123     1.0  0.25751  0.06498  0.28217  1.0000
  H   H1124     1.0  0.25925  0.05690  0.30674  1.0000
  H   H1125     1.0  0.47573  0.28292  0.28257  1.0000
  H   H1126     1.0  0.24245  0.01039  0.22675  1.0000
  C   C924      1.0  0.48601  0.35916  0.27254  1.0000
  H   H1127     1.0  0.25432  0.29488  0.05968  1.0000
  H   H1128     1.0  0.47121  0.26426  0.30360  1.0000
  H   H1129     1.0  0.45761  0.28828  0.30249  1.0000
  H   H1130     1.0  0.32057  0.25835  0.98914  1.0000
  Fe  Fe125     1.0  0.48496  0.28195  0.18727  1.0000
  C   C925      1.0  0.31383  0.21056  0.97612  1.0000
  C   C926      1.0  0.25697  0.38005  0.51212  1.0000
  H   H1131     1.0  0.44000  0.36781  0.31533  1.0000
  H   H1132     1.0  0.45779  0.35348  0.36434  1.0000
  H   H1133     1.0  0.25849  0.35971  0.56880  1.0000
  C   C927      1.0  0.24740  0.25804  0.41355  1.0000
  C   C928      1.0  0.48349  0.32164  0.40319  1.0000
  H   H1134     1.0  0.31802  0.41903  0.62916  1.0000
  H   H1135     1.0  0.27947  0.32660  0.39350  1.0000
  C   C929      1.0  0.31119  0.47079  0.64226  1.0000
  H   H1136     1.0  0.34909  0.32818  0.59679  1.0000
  C   C930      1.0  0.24101  0.39693  0.40059  1.0000
  H   H1137     1.0  0.36046  0.27169  0.63103  1.0000
  H   H1138     1.0  0.41961  0.34443  0.32045  1.0000
  H   H1139     1.0  0.26910  0.29590  0.39043  1.0000
  C   C931      1.0  0.25334  0.28419  0.55754  1.0000
  C   C932      1.0  0.28259  0.37781  0.34474  1.0000
  Fe  Fe126     1.0  0.26775  0.32592  0.43625  1.0000
  H   H1140     1.0  0.29320  0.24328  0.40400  1.0000
  S   S250      1.0  0.29934  0.31932  0.42453  1.0000
  S   S251      1.0  0.42639  0.30292  0.33378  1.0000
  H   H1141     1.0  0.25215  0.12480  0.32717  1.0000
  C   C933      1.0  0.24391  0.10448  0.31633  1.0000
  C   C934      1.0  0.27633  0.38344  0.32719  1.0000
  C   C935      1.0  0.31453  0.33679  0.63395  1.0000
  H   H1142     1.0  0.28632  0.41117  0.34986  1.0000
  S   S252      1.0  0.25450  0.31042  0.46505  1.0000
  N   N63       1.0  0.48352  0.32332  0.38289  1.0000
  S   S253      1.0  0.32863  0.31022  0.33906  1.0000
  Fe  Fe127     1.0  0.27008  0.32227  0.58797  1.0000
  S   S254      1.0  0.27571  0.29449  0.60927  1.0000
  S   S255      1.0  0.28175  0.32409  0.55640  1.0000
  C   C936      1.0  0.46438  0.34623  0.32249  1.0000
  H   H1143     1.0  0.33843  0.40073  0.62548  1.0000
  Fe  Fe128     1.0  0.28236  0.31189  0.62645  1.0000
  C   C937      1.0  0.37754  0.29071  0.63325  1.0000
  H   H1144     1.0  0.32271  0.36424  0.62546  1.0000
  S   S256      1.0  0.27973  0.33888  0.60369  1.0000
  H   H1145     1.0  0.27875  0.26036  0.44973  1.0000
  N   N64       1.0  0.30028  0.38258  0.34600  1.0000
  H   H1146     1.0  0.33685  0.31183  0.40186  1.0000
  C   C938      1.0  0.25534  0.37477  0.57073  1.0000
  C   C939      1.0  0.30466  0.37603  0.36538  1.0000
  C   C940      1.0  0.24951  0.41269  0.39095  1.0000
  H   H1147     1.0  0.37288  0.33764  0.60830  1.0000
  Fe  Fe129     1.0  0.39955  0.31428  0.32212  1.0000
  C   C941      1.0  0.26782  0.26431  0.44083  1.0000
  C   C942      1.0  0.25474  0.36303  0.35871  1.0000
  H   H1148     1.0  0.26436  0.28286  0.56519  1.0000
  Fe  Fe130     1.0  0.24927  0.34466  0.61881  1.0000
  H   H1149     1.0  0.40915  0.26434  0.62581  1.0000
  H   H1150     1.0  0.42930  0.27665  0.31109  1.0000
  H   H1151     1.0  0.31163  0.40796  0.34145  1.0000
  H   H1152     1.0  0.25371  0.37398  0.58621  1.0000
  H   H1153     1.0  0.29735  0.27753  0.39887  1.0000
  C   C943      1.0  0.36388  0.28579  0.62618  1.0000
  H   H1154     1.0  0.29314  0.38283  0.37597  1.0000
  H   H1155     1.0  0.34297  0.29529  0.60845  1.0000
  H   H1156     1.0  0.26800  0.38116  0.56347  1.0000
  H   H1157     1.0  0.42683  0.35239  0.36068  1.0000
  H   H1158     1.0  0.30433  0.34110  0.62488  1.0000
  S   S257      1.0  0.25682  0.44277  0.36130  1.0000
  H   H1159     1.0  0.33028  0.37642  0.33344  1.0000
  H   H1160     1.0  0.25791  0.41757  0.39786  1.0000
  S   S258      1.0  0.38421  0.29443  0.31640  1.0000
  H   H1161     1.0  0.36569  0.39739  0.63675  1.0000
  C   C944      1.0  0.26687  0.38194  0.62785  1.0000
  C   C945      1.0  0.24222  0.33933  0.51410  1.0000
  H   H1162     1.0  0.24275  0.38992  0.41491  1.0000
  H   H1163     1.0  0.27422  0.37188  0.61885  1.0000
  C   C946      1.0  0.27725  0.39196  0.63360  1.0000
  Fe  Fe131     1.0  0.25538  0.45551  0.33049  1.0000
  C   C947      1.0  0.26188  0.33393  0.50802  1.0000
  C   C948      1.0  0.27387  0.32924  0.52115  1.0000
  C   C949      1.0  0.26625  0.32943  0.54046  1.0000
  H   H1164     1.0  0.24742  0.24546  0.42502  1.0000
  C   C950      1.0  0.35389  0.29914  0.61307  1.0000
  H   H1165     1.0  0.26788  0.33388  0.49314  1.0000
  H   H1166     1.0  0.28910  0.32550  0.51631  1.0000
  C   C951      1.0  0.25946  0.28617  0.39451  1.0000
  C   C952      1.0  0.29009  0.27701  0.41404  1.0000
  H   H1167     1.0  0.31508  0.37859  0.31775  1.0000
  C   C953      1.0  0.32497  0.34993  0.63432  1.0000
  C   C954      1.0  0.43811  0.30697  0.38621  1.0000
  H   H1168     1.0  0.39059  0.31504  0.63084  1.0000
  C   C955      1.0  0.36219  0.41298  0.63710  1.0000
  S   S259      1.0  0.24667  0.32221  0.42155  1.0000
  H   H1169     1.0  0.47341  0.33397  0.40870  1.0000
  H   H1170     1.0  0.48593  0.32142  0.33012  1.0000
  S   S260      1.0  0.47791  0.36339  0.32034  1.0000
  H   H1171     1.0  0.43239  0.29402  0.39182  1.0000
  C   C956      1.0  0.45992  0.31327  0.33112  1.0000
  C   C957      1.0  0.24655  0.33423  0.54659  1.0000
  C   C958      1.0  0.47158  0.32650  0.32790  1.0000
  H   H1172     1.0  0.28286  0.29183  0.41582  1.0000
  H   H1173     1.0  0.29669  0.40981  0.32561  1.0000
  C   C959      1.0  0.32067  0.31463  0.36219  1.0000
  C   C960      1.0  0.33354  0.31232  0.37376  1.0000
  C   C961      1.0  0.32685  0.31432  0.39275  1.0000
  C   C962      1.0  0.30731  0.31907  0.40011  1.0000
  C   C963      1.0  0.29450  0.32241  0.38818  1.0000
  C   C964      1.0  0.30114  0.31985  0.36937  1.0000
  H   H1174     1.0  0.34864  0.30828  0.36832  1.0000
  H   H1175     1.0  0.29113  0.32194  0.36038  1.0000
  C   C965      1.0  0.37069  0.32299  0.61301  1.0000
  H   H1176     1.0  0.27446  0.36301  0.37458  1.0000
  C   C966      1.0  0.24707  0.38543  0.63327  1.0000
  C   C967      1.0  0.29867  0.40374  0.34048  1.0000
  H   H1177     1.0  0.31799  0.37992  0.36583  1.0000
  C   C968      1.0  0.38073  0.30977  0.62617  1.0000
  H   H1178     1.0  0.30681  0.36009  0.37021  1.0000
  S   S261      1.0  0.24733  0.43999  0.31267  1.0000
  H   H1179     1.0  0.25954  0.27895  0.44233  1.0000
  C   C969      1.0  0.24683  0.42240  0.37259  1.0000
  C   C970      1.0  0.44571  0.35257  0.31947  1.0000
  H   H1180     1.0  0.38972  0.25212  0.63525  1.0000
  C   C971      1.0  0.31659  0.37336  0.33283  1.0000
  Fe  Fe132     1.0  0.35774  0.31605  0.32490  1.0000
  H   H1181     1.0  0.36927  0.42054  0.62306  1.0000
  S   S262      1.0  0.25230  0.31856  0.64247  1.0000
  S   S263      1.0  0.25250  0.35526  0.44137  1.0000
  C   C972      1.0  0.26120  0.26948  0.40944  1.0000
  H   H1182     1.0  0.26915  0.37172  0.53647  1.0000
  C   C973      1.0  0.45598  0.30724  0.38876  1.0000
  H   H1183     1.0  0.24574  0.18409  0.31364  1.0000
  H   H1184     1.0  0.41406  0.32278  0.37364  1.0000
  S   S264      1.0  0.37284  0.33402  0.33352  1.0000
  C   C974      1.0  0.24897  0.36885  0.34131  1.0000
  H   H1185     1.0  0.31805  0.35744  0.33630  1.0000
  C   C975      1.0  0.45288  0.34024  0.37099  1.0000
  H   H1186     1.0  0.24335  0.30406  0.37356  1.0000
  C   C976      1.0  0.42767  0.32320  0.37610  1.0000
  N   N65       1.0  0.27642  0.26398  0.42056  1.0000
  H   H1187     1.0  0.36435  0.44632  0.63888  1.0000
  C   C977      1.0  0.27119  0.36753  0.36054  1.0000
  H   H1188     1.0  0.33855  0.42489  0.61180  1.0000
  H   H1189     1.0  0.30142  0.27257  0.42254  1.0000
  C   C978      1.0  0.44111  0.31966  0.32853  1.0000
  H   H1190     1.0  0.24608  0.35550  0.37109  1.0000
  H   H1191     1.0  0.24744  0.29298  0.51235  1.0000
  C   C979      1.0  0.46414  0.32375  0.38082  1.0000
  H   H1192     1.0  0.29254  0.38942  0.62902  1.0000
  C   C980      1.0  0.43414  0.33933  0.32235  1.0000
  C   C981      1.0  0.35727  0.31771  0.60652  1.0000
  C   C982      1.0  0.25972  0.37908  0.32558  1.0000
  H   H1193     1.0  0.27189  0.28836  0.53010  1.0000
  H   H1194     1.0  0.46349  0.29431  0.39675  1.0000
  H   H1195     1.0  0.24657  0.41321  0.55838  1.0000
  C   C983      1.0  0.33377  0.41622  0.62619  1.0000
  C   C984      1.0  0.28739  0.24429  0.41917  1.0000
  H   H1196     1.0  0.48226  0.35395  0.37688  1.0000
  H   H1197     1.0  0.29956  0.24008  0.42656  1.0000
  H   H1198     1.0  0.27860  0.23323  0.42580  1.0000
  C   C985      1.0  0.25636  0.37929  0.53124  1.0000
  C   C986      1.0  0.25461  0.11788  0.31535  1.0000
  C   C987      1.0  0.43492  0.33986  0.36876  1.0000
  H   H1199     1.0  0.25783  0.25436  0.44728  1.0000
  H   H1200     1.0  0.46540  0.29808  0.33587  1.0000
  C   C988      1.0  0.25755  0.28730  0.53774  1.0000
  Fe  Fe133     1.0  0.24525  0.30353  0.62339  1.0000
  H   H1201     1.0  0.26977  0.37323  0.50351  1.0000
  H   H1202     1.0  0.28419  0.39140  0.31454  1.0000
  H   H1203     1.0  0.47924  0.30823  0.41237  1.0000
  H   H1204     1.0  0.35403  0.48020  0.63973  1.0000
  H   H1205     1.0  0.25518  0.38379  0.31206  1.0000
  C   C989      1.0  0.33601  0.44149  0.64048  1.0000
  C   C990      1.0  0.24326  0.28992  0.52768  1.0000
  C   C991      1.0  0.39886  0.25967  0.63903  1.0000
  H   H1206     1.0  0.33130  0.27110  0.31374  1.0000
  N   N66       1.0  0.34133  0.42059  0.64084  1.0000
  H   H1207     1.0  0.44092  0.25204  0.31102  1.0000
  C   C992      1.0  0.24471  0.29103  0.38455  1.0000
  C   C993      1.0  0.34364  0.47203  0.64034  1.0000
  C   C994      1.0  0.34938  0.45247  0.63982  1.0000
  C   C995      1.0  0.24092  0.38864  0.50429  1.0000
  C   C996      1.0  0.32458  0.48114  0.64161  1.0000
  C   C997      1.0  0.31673  0.45128  0.64181  1.0000
  S   S265      1.0  0.28204  0.46185  0.30973  1.0000
  H   H1208     1.0  0.24126  0.38840  0.48968  1.0000
  H   H1209     1.0  0.41234  0.28880  0.64187  1.0000
  C   C998      1.0  0.24639  0.03187  0.82572  1.0000
  C   C999      1.0  0.32511  0.19657  0.87632  1.0000
  S   S266      1.0  0.40785  0.33969  0.69836  1.0000
  H   H1210     1.0  0.34465  0.22170  0.94918  1.0000
  H   H1211     1.0  0.29977  0.37215  0.66130  1.0000
  S   S267      1.0  0.40620  0.28859  0.69727  1.0000
  C   C1000     1.0  0.25309  0.06870  0.80737  1.0000
  S   S268      1.0  0.25955  0.13051  0.83075  1.0000
  C   C1001     1.0  0.33678  0.44325  0.72669  1.0000
  C   C1002     1.0  0.33080  0.31284  0.65687  1.0000
  H   H1212     1.0  0.36879  0.41410  0.64845  1.0000
  H   H1213     1.0  0.39246  0.25565  0.80386  1.0000
  Fe  Fe134     1.0  0.27100  0.43077  0.71635  1.0000
  S   S269      1.0  0.28197  0.41330  0.74230  1.0000
  H   H1214     1.0  0.32256  0.26308  0.94706  1.0000
  Fe  Fe135     1.0  0.34727  0.23900  0.77369  1.0000
  S   S270      1.0  0.36530  0.20974  0.78154  1.0000
  S   S271      1.0  0.33801  0.25043  0.74581  1.0000
  Fe  Fe136     1.0  0.34492  0.24935  0.81117  1.0000
  S   S272      1.0  0.36255  0.22099  0.82237  1.0000
  S   S273      1.0  0.33228  0.27142  0.82900  1.0000
  Fe  Fe137     1.0  0.38088  0.22507  0.79306  1.0000
  S   S274      1.0  0.41272  0.22173  0.78563  1.0000
  Fe  Fe138     1.0  0.34521  0.20877  0.80990  1.0000
  S   S275      1.0  0.33013  0.18540  0.82780  1.0000
  S   S276      1.0  0.36433  0.25454  0.78276  1.0000
  S   S277      1.0  0.32599  0.23693  0.80104  1.0000
  H   H1215     1.0  0.27224  0.19508  0.85523  1.0000
  H   H1216     1.0  0.27168  0.21187  0.82251  1.0000
  H   H1217     1.0  0.26633  0.37597  0.72118  1.0000
  H   H1218     1.0  0.26801  0.25190  0.97486  1.0000
  H   H1219     1.0  0.25804  0.36319  0.69920  1.0000
  S   S278      1.0  0.45558  0.22131  0.84896  1.0000
  C   C1003     1.0  0.45094  0.33473  0.73555  1.0000
  S   S279      1.0  0.24700  0.12536  0.79309  1.0000
  Fe  Fe139     1.0  0.29788  0.22500  0.92334  1.0000
  S   S280      1.0  0.32833  0.22771  0.91456  1.0000
  S   S281      1.0  0.28908  0.19871  0.94300  1.0000
  Fe  Fe140     1.0  0.26201  0.14493  0.79977  1.0000
  S   S282      1.0  0.28858  0.15449  0.78162  1.0000
  H   H1220     1.0  0.30846  0.39827  0.76666  1.0000
  H   H1221     1.0  0.38079  0.25975  0.67611  1.0000
  C   C1004     1.0  0.46621  0.28521  0.75471  1.0000
  H   H1222     1.0  0.32078  0.33887  0.70373  1.0000
  H   H1223     1.0  0.29470  0.46620  0.71386  1.0000
  C   C1005     1.0  0.33209  0.26069  0.85307  1.0000
  C   C1006     1.0  0.31551  0.26463  0.86666  1.0000
  C   C1007     1.0  0.31466  0.25502  0.88574  1.0000
  C   C1008     1.0  0.33051  0.24174  0.89134  1.0000
  C   C1009     1.0  0.34740  0.23845  0.87792  1.0000
  C   C1010     1.0  0.34812  0.24776  0.85873  1.0000
  H   H1224     1.0  0.30314  0.27472  0.86236  1.0000
  H   H1225     1.0  0.30163  0.25784  0.89608  1.0000
  H   H1226     1.0  0.35971  0.22824  0.88219  1.0000
  H   H1227     1.0  0.36109  0.24496  0.84835  1.0000
  C   C1011     1.0  0.31862  0.17714  0.81472  1.0000
  C   C1012     1.0  0.30178  0.17068  0.82373  1.0000
  C   C1013     1.0  0.29218  0.16440  0.81342  1.0000
  C   C1014     1.0  0.29990  0.16350  0.79436  1.0000
  C   C1015     1.0  0.31686  0.16980  0.78539  1.0000
  C   C1016     1.0  0.32599  0.17703  0.79543  1.0000
  H   H1228     1.0  0.29606  0.17059  0.83865  1.0000
  H   H1229     1.0  0.27889  0.16010  0.82034  1.0000
  H   H1230     1.0  0.32313  0.16872  0.77080  1.0000
  H   H1231     1.0  0.33913  0.18178  0.78847  1.0000
  C   C1017     1.0  0.42460  0.22071  0.80357  1.0000
  C   C1018     1.0  0.41495  0.22016  0.82247  1.0000
  C   C1019     1.0  0.42461  0.22034  0.83629  1.0000
  C   C1020     1.0  0.44392  0.22108  0.83131  1.0000
  C   C1021     1.0  0.45357  0.22154  0.81243  1.0000
  C   C1022     1.0  0.44395  0.22126  0.79862  1.0000
  H   H1232     1.0  0.40009  0.21964  0.82645  1.0000
  H   H1233     1.0  0.41709  0.22004  0.85088  1.0000
  S   S283      1.0  0.25399  0.46054  0.71729  1.0000
  H   H1234     1.0  0.45153  0.22148  0.78407  1.0000
  C   C1023     1.0  0.32525  0.47763  0.71602  1.0000
  H   H1235     1.0  0.47670  0.36345  0.65183  1.0000
  H   H1236     1.0  0.33303  0.29847  0.66558  1.0000
  H   H1237     1.0  0.28165  0.33141  0.69701  1.0000
  H   H1238     1.0  0.35144  0.32187  0.66647  1.0000
  H   H1239     1.0  0.26191  0.15017  0.86048  1.0000
  C   C1024     1.0  0.38743  0.27701  0.70916  1.0000
  C   C1025     1.0  0.36909  0.28503  0.70572  1.0000
  C   C1026     1.0  0.35392  0.27627  0.71626  1.0000
  C   C1027     1.0  0.35710  0.25978  0.73055  1.0000
  C   C1028     1.0  0.37552  0.25147  0.73357  1.0000
  C   C1029     1.0  0.39074  0.25991  0.72266  1.0000
  H   H1240     1.0  0.36659  0.29798  0.69499  1.0000
  H   H1241     1.0  0.33965  0.28274  0.71397  1.0000
  H   H1242     1.0  0.37806  0.23866  0.74455  1.0000
  H   H1243     1.0  0.40492  0.25362  0.72530  1.0000
  H   H1244     1.0  0.26625  0.37058  0.67413  1.0000
  C   C1030     1.0  0.43869  0.37487  0.68669  1.0000
  C   C1031     1.0  0.44826  0.37762  0.69940  1.0000
  C   C1032     1.0  0.46811  0.37492  0.69513  1.0000
  Fe  Fe141     1.0  0.48197  0.23380  0.83881  1.0000
  H   H1245     1.0  0.49061  0.29771  0.87242  1.0000
  H   H1246     1.0  0.42337  0.37697  0.69005  1.0000
  H   H1247     1.0  0.44027  0.38173  0.71258  1.0000
  C   C1033     1.0  0.28452  0.24144  0.69031  1.0000
  S   S284      1.0  0.47993  0.37760  0.71157  1.0000
  S   S285      1.0  0.28278  0.22496  0.90106  1.0000
  C   C1034     1.0  0.33446  0.38535  0.74990  1.0000
  C   C1035     1.0  0.31553  0.39522  0.75280  1.0000
  C   C1036     1.0  0.30572  0.40111  0.73790  1.0000
  H   H1248     1.0  0.34197  0.38080  0.76153  1.0000
  H   H1249     1.0  0.32670  0.20954  0.88020  1.0000
  C   C1037     1.0  0.44741  0.26529  0.74982  1.0000
  N   N67       1.0  0.40161  0.28098  0.80439  1.0000
  C   C1038     1.0  0.38948  0.26651  0.81267  1.0000
  C   C1039     1.0  0.42184  0.27086  0.80135  1.0000
  C   C1040     1.0  0.39871  0.29267  0.81876  1.0000
  C   C1041     1.0  0.39691  0.29243  0.78593  1.0000
  C   C1042     1.0  0.39027  0.31275  0.78236  1.0000
  C   C1043     1.0  0.39876  0.28320  0.77086  1.0000
  C   C1044     1.0  0.38569  0.32300  0.76481  1.0000
  C   C1045     1.0  0.39405  0.29360  0.75344  1.0000
  C   C1046     1.0  0.38752  0.31345  0.75043  1.0000
  H   H1250     1.0  0.39183  0.25827  0.82706  1.0000
  H   H1251     1.0  0.37410  0.27345  0.81406  1.0000
  H   H1252     1.0  0.42601  0.26217  0.81495  1.0000
  H   H1253     1.0  0.43145  0.28120  0.79482  1.0000
  H   H1254     1.0  0.42491  0.26063  0.79184  1.0000
  H   H1255     1.0  0.38356  0.30008  0.82232  1.0000
  H   H1256     1.0  0.40248  0.28355  0.83239  1.0000
  H   H1257     1.0  0.40788  0.30351  0.81376  1.0000
  H   H1258     1.0  0.38829  0.32107  0.79290  1.0000
  H   H1259     1.0  0.38047  0.33848  0.76235  1.0000
  H   H1260     1.0  0.38371  0.32145  0.73697  1.0000
  H   H1261     1.0  0.31911  0.15963  0.88703  1.0000
  H   H1262     1.0  0.33233  0.21991  0.73197  1.0000
  C   C1047     1.0  0.31009  0.34601  0.71393  1.0000
  C   C1048     1.0  0.26039  0.12714  0.92055  1.0000
  C   C1049     1.0  0.24664  0.06454  0.82710  1.0000
  H   H1263     1.0  0.40829  0.27289  0.66455  1.0000
  H   H1264     1.0  0.25481  0.00053  0.74304  1.0000
  C   C1050     1.0  0.33378  0.16207  0.88046  1.0000
  H   H1265     1.0  0.26670  0.38534  0.68926  1.0000
  H   H1266     1.0  0.31342  0.24297  0.94787  1.0000
  H   H1267     1.0  0.46855  0.40631  0.73563  1.0000
  H   H1268     1.0  0.27887  0.20334  0.74270  1.0000
  H   H1269     1.0  0.43233  0.27749  0.72688  1.0000
  N   N68       1.0  0.32427  0.45814  0.71497  1.0000
  H   H1270     1.0  0.48354  0.33448  0.70851  1.0000
  N   N69       1.0  0.38765  0.27635  0.64741  1.0000
  H   H1271     1.0  0.33699  0.39429  0.66106  1.0000
  C   C1051     1.0  0.28431  0.36482  0.74107  1.0000
  H   H1272     1.0  0.30999  0.27314  0.69091  1.0000
  H   H1273     1.0  0.29517  0.21511  0.81919  1.0000
  C   C1052     1.0  0.24428  0.18502  0.89539  1.0000
  C   C1053     1.0  0.38651  0.18759  0.88232  1.0000
  H   H1274     1.0  0.24381  0.01768  0.83287  1.0000
  H   H1275     1.0  0.44339  0.30762  0.71773  1.0000
  S   S286      1.0  0.24578  0.21836  0.93579  1.0000
  C   C1054     1.0  0.29674  0.22516  0.75234  1.0000
  H   H1276     1.0  0.30536  0.35290  0.75846  1.0000
  C   C1055     1.0  0.44177  0.27968  0.73471  1.0000
  C   C1056     1.0  0.47746  0.32129  0.71309  1.0000
  H   H1277     1.0  0.30245  0.25734  0.96521  1.0000
  C   C1057     1.0  0.31454  0.34438  0.73150  1.0000
  H   H1278     1.0  0.32955  0.43971  0.69512  1.0000
  C   C1058     1.0  0.46080  0.30016  0.73925  1.0000
  C   C1059     1.0  0.44893  0.36993  0.66943  1.0000
  C   C1060     1.0  0.25813  0.09550  0.88130  1.0000
  C   C1061     1.0  0.32451  0.20843  0.73367  1.0000
  H   H1279     1.0  0.39330  0.29614  0.66095  1.0000
  H   H1280     1.0  0.30403  0.23696  0.75097  1.0000
  C   C1062     1.0  0.26902  0.37006  0.68830  1.0000
  H   H1281     1.0  0.34486  0.45652  0.68874  1.0000
  H   H1282     1.0  0.26007  0.25900  0.85670  1.0000
  H   H1283     1.0  0.28806  0.23761  0.85944  1.0000
  S   S287      1.0  0.28978  0.43981  0.68836  1.0000
  C   C1063     1.0  0.29101  0.34022  0.68598  1.0000
  C   C1064     1.0  0.33008  0.45462  0.69531  1.0000
  C   C1065     1.0  0.26870  0.16066  0.88186  1.0000
  N   N70       1.0  0.27620  0.22425  0.84392  1.0000
  C   C1066     1.0  0.24496  0.99906  0.73528  1.0000
  H   H1284     1.0  0.26700  0.10609  0.87268  1.0000
  H   H1285     1.0  0.28136  0.21551  0.71036  1.0000
  H   H1286     1.0  0.45550  0.34865  0.73252  1.0000
  S   S288      1.0  0.27748  0.17378  0.90904  1.0000
  S   S289      1.0  0.24169  0.08239  0.84049  1.0000
  C   C1067     1.0  0.25687  0.15978  0.87026  1.0000
  H   H1287     1.0  0.28277  0.15160  0.88099  1.0000
  C   C1068     1.0  0.35735  0.18068  0.87843  1.0000
  H   H1288     1.0  0.31709  0.36241  0.67592  1.0000
  C   C1069     1.0  0.25011  0.25102  0.85595  1.0000
  C   C1070     1.0  0.30449  0.45546  0.72243  1.0000
  C   C1071     1.0  0.31761  0.31811  0.64496  1.0000
  H   H1289     1.0  0.27669  0.20625  0.87180  1.0000
  Fe  Fe142     1.0  0.25813  0.24324  0.91671  1.0000
  H   H1290     1.0  0.35165  0.44544  0.72230  1.0000
  H   H1291     1.0  0.33490  0.16388  0.86493  1.0000
  C   C1072     1.0  0.25914  0.11599  0.90855  1.0000
  Fe  Fe143     1.0  0.25457  0.98808  0.80411  1.0000
  Fe  Fe144     1.0  0.26834  0.43358  0.67575  1.0000
  C   C1073     1.0  0.45960  0.26806  0.75979  1.0000
  H   H1292     1.0  0.26622  0.08449  0.89138  1.0000
  H   H1293     1.0  0.28805  0.24985  0.83492  1.0000
  S   S290      1.0  0.27430  0.24577  0.93716  1.0000
  Fe  Fe145     1.0  0.27109  0.46909  0.68809  1.0000
  H   H1294     1.0  0.36118  0.18879  0.90334  1.0000
  Fe  Fe146     1.0  0.39567  0.32032  0.68852  1.0000
  C   C1074     1.0  0.24341  0.04605  0.83627  1.0000
  Fe  Fe147     1.0  0.37815  0.35707  0.70264  1.0000
  H   H1295     1.0  0.46790  0.32308  0.70320  1.0000
  Fe  Fe148     1.0  0.37154  0.35292  0.66571  1.0000
  S   S291      1.0  0.47977  0.26126  0.84764  1.0000
  N   N71       1.0  0.28855  0.35935  0.69033  1.0000
  C   C1075     1.0  0.30386  0.26042  0.69543  1.0000
  H   H1296     1.0  0.26070  0.05806  0.78152  1.0000
  H   H1297     1.0  0.30986  0.19573  0.88081  1.0000
  C   C1076     1.0  0.34115  0.32607  0.65742  1.0000
  C   C1077     1.0  0.26241  0.17325  0.89448  1.0000
  H   H1298     1.0  0.29559  0.19798  0.85328  1.0000
  H   H1299     1.0  0.34082  0.38326  0.70350  1.0000
  H   H1300     1.0  0.30718  0.40120  0.70856  1.0000
  Fe  Fe149     1.0  0.27208  0.20001  0.92157  1.0000
  C   C1078     1.0  0.24140  0.22415  0.84979  1.0000
  H   H1301     1.0  0.28756  0.34151  0.67191  1.0000
  H   H1302     1.0  0.32813  0.19747  0.74647  1.0000
  C   C1079     1.0  0.46874  0.36742  0.66510  1.0000
  C   C1080     1.0  0.33384  0.38683  0.71715  1.0000
  C   C1081     1.0  0.26798  0.40512  0.64529  1.0000
  H   H1303     1.0  0.31731  0.41398  0.66300  1.0000
  H   H1304     1.0  0.46856  0.22163  0.80855  1.0000
  S   S292      1.0  0.25105  0.42202  0.70401  1.0000
  H   H1305     1.0  0.28123  0.23140  0.75409  1.0000
  C   C1082     1.0  0.28975  0.23549  0.84481  1.0000
  C   C1083     1.0  0.27998  0.22168  0.82407  1.0000
  H   H1306     1.0  0.33808  0.41326  0.67136  1.0000
  S   S293      1.0  0.48523  0.29990  0.79997  1.0000
  H   H1307     1.0  0.39533  0.28621  0.74224  1.0000
  H   H1308     1.0  0.40709  0.24879  0.64912  1.0000
  C   C1084     1.0  0.39569  0.18470  0.86415  1.0000
  C   C1085     1.0  0.33308  0.41011  0.65989  1.0000
  C   C1086     1.0  0.34359  0.38098  0.73219  1.0000
  H   H1309     1.0  0.33194  0.44321  0.74213  1.0000
  C   C1087     1.0  0.25583  0.05465  0.79682  1.0000
  C   C1088     1.0  0.29249  0.35712  0.70941  1.0000
  H   H1310     1.0  0.27562  0.23948  0.68181  1.0000
  H   H1311     1.0  0.29929  0.21474  0.76583  1.0000
  S   S294      1.0  0.36543  0.33608  0.69571  1.0000
  C   C1089     1.0  0.29465  0.19899  0.74017  1.0000
  H   H1312     1.0  0.30315  0.44098  0.72194  1.0000
  H   H1313     1.0  0.41036  0.18612  0.85872  1.0000
  C   C1090     1.0  0.31488  0.39708  0.71997  1.0000
  H   H1314     1.0  0.44140  0.33661  0.72560  1.0000
  C   C1091     1.0  0.30211  0.37002  0.67596  1.0000
  C   C1092     1.0  0.44825  0.29689  0.72952  1.0000
  C   C1093     1.0  0.40095  0.28396  0.65385  1.0000
  S   S295      1.0  0.38149  0.37567  0.67332  1.0000
  S   S296      1.0  0.36717  0.36821  0.72941  1.0000
  H   H1315     1.0  0.40365  0.26778  0.77250  1.0000
  H   H1316     1.0  0.33043  0.20171  0.72108  1.0000
  C   C1094     1.0  0.29958  0.23005  0.71821  1.0000
  H   H1317     1.0  0.32898  0.19900  0.86053  1.0000
  H   H1318     1.0  0.39289  0.17875  0.83841  1.0000
  H   H1319     1.0  0.32823  0.33617  0.73449  1.0000
  C   C1095     1.0  0.28036  0.20510  0.85662  1.0000
  C   C1096     1.0  0.27974  0.36665  0.72349  1.0000
  H   H1320     1.0  0.35456  0.24152  0.94827  1.0000
  H   H1321     1.0  0.31627  0.24967  0.71989  1.0000
  H   H1322     1.0  0.29976  0.19072  0.72866  1.0000
  N   N72       1.0  0.46748  0.31852  0.73336  1.0000
  H   H1323     1.0  0.25627  0.08767  0.87120  1.0000
  H   H1324     1.0  0.34401  0.14874  0.88531  1.0000
  C   C1097     1.0  0.36696  0.17855  0.85970  1.0000
  C   C1098     1.0  0.30737  0.24686  0.71199  1.0000
  C   C1099     1.0  0.25251  0.03621  0.80593  1.0000
  H   H1325     1.0  0.35987  0.17586  0.85002  1.0000
  C   C1100     1.0  0.38588  0.18038  0.85280  1.0000
  H   H1326     1.0  0.29915  0.45682  0.73751  1.0000
  H   H1327     1.0  0.47563  0.28633  0.76307  1.0000
  H   H1328     1.0  0.36447  0.26156  0.66155  1.0000
  C   C1101     1.0  0.31634  0.25104  0.95704  1.0000
  H   H1329     1.0  0.30479  0.22801  0.84072  1.0000
  H   H1330     1.0  0.27406  0.12692  0.92330  1.0000
  H   H1331     1.0  0.27652  0.23570  0.81408  1.0000
  H   H1332     1.0  0.29796  0.18864  0.75341  1.0000
  H   H1333     1.0  0.30061  0.38448  0.67875  1.0000
  H   H1334     1.0  0.39408  0.19149  0.89089  1.0000
  N   N73       1.0  0.30369  0.21584  0.73573  1.0000
  C   C1102     1.0  0.33093  0.17670  0.90640  1.0000
  H   H1335     1.0  0.33037  0.18995  0.91112  1.0000
  H   H1336     1.0  0.31622  0.17403  0.91147  1.0000
  H   H1337     1.0  0.34043  0.16443  0.91400  1.0000
  H   H1338     1.0  0.30583  0.33190  0.68509  1.0000
  H   H1339     1.0  0.33702  0.42843  0.72543  1.0000
  C   C1103     1.0  0.28796  0.22775  0.70684  1.0000
  C   C1104     1.0  0.24819  0.40848  0.65098  1.0000
  N   N74       1.0  0.33720  0.17897  0.88540  1.0000
  C   C1105     1.0  0.36758  0.18578  0.88939  1.0000
  Fe  Fe150     1.0  0.26394  0.21955  0.95533  1.0000
  C   C1106     1.0  0.30166  0.35375  0.74505  1.0000
  Fe  Fe151     1.0  0.41032  0.35651  0.66836  1.0000
  S   S297      1.0  0.25531  0.01948  0.79185  1.0000
  C   C1107     1.0  0.33838  0.34459  0.64592  1.0000
  S   S298      1.0  0.35109  0.36160  0.64589  1.0000
  H   H1340     1.0  0.44232  0.33255  0.75030  1.0000
  H   H1341     1.0  0.27463  0.37266  0.75142  1.0000
  S   S299      1.0  0.25113  0.46382  0.67287  1.0000
  H   H1342     1.0  0.44234  0.25195  0.75380  1.0000
  H   H1343     1.0  0.31692  0.47283  0.74703  1.0000
  H   H1344     1.0  0.28978  0.26828  0.67177  1.0000
  C   C1108     1.0  0.29247  0.25771  0.68461  1.0000
  H   H1345     1.0  0.46070  0.42523  0.76056  1.0000
  H   H1346     1.0  0.47682  0.45196  0.75620  1.0000
  C   C1109     1.0  0.47834  0.36964  0.67804  1.0000
  S   S300      1.0  0.43714  0.36678  0.65324  1.0000
  S   S301      1.0  0.40079  0.33549  0.65791  1.0000
  H   H1347     1.0  0.31509  0.21214  0.96101  1.0000
  H   H1348     1.0  0.47402  0.31844  0.76004  1.0000
  H   H1349     1.0  0.46407  0.25677  0.77148  1.0000
  H   H1350     1.0  0.25598  0.08275  0.80020  1.0000
  C   C1110     1.0  0.47555  0.41810  0.73365  1.0000
  H   H1351     1.0  0.32032  0.46440  0.68602  1.0000
  C   C1111     1.0  0.47114  0.42873  0.74769  1.0000
  C   C1112     1.0  0.37370  0.26956  0.66455  1.0000
  C   C1113     1.0  0.48909  0.42239  0.71706  1.0000
  H   H1352     1.0  0.24469  0.21057  0.84544  1.0000
  C   C1114     1.0  0.25598  0.23334  0.84974  1.0000
  N   N75       1.0  0.32916  0.23886  0.96994  1.0000
  H   H1353     1.0  0.33955  0.26380  0.96948  1.0000
  H   H1354     1.0  0.48568  0.33347  0.73981  1.0000
  H   H1355     1.0  0.36424  0.28190  0.67046  1.0000
  H   H1356     1.0  0.48941  0.30888  0.71062  1.0000
  C   C1115     1.0  0.32099  0.48285  0.73394  1.0000
  C   C1116     1.0  0.48081  0.31955  0.74468  1.0000
  H   H1357     1.0  0.35702  0.22056  0.96733  1.0000
  C   C1117     1.0  0.34713  0.23029  0.95821  1.0000
  S   S302      1.0  0.28179  0.41659  0.65282  1.0000
  H   H1358     1.0  0.27228  0.10720  0.90272  1.0000
  S   S303      1.0  0.24290  0.27076  0.90078  1.0000
  Fe  Fe152     1.0  0.24195  0.11320  0.82466  1.0000
  C   C1118     1.0  0.48022  0.44376  0.74519  1.0000
  H   H1359     1.0  0.24091  0.41867  0.65997  1.0000
  C   C1119     1.0  0.24427  0.13930  0.92838  1.0000
  H   H1360     1.0  0.24549  0.14842  0.93710  1.0000
  H   H1361     1.0  0.48948  0.30571  0.83816  1.0000
  S   S304      1.0  0.30556  0.30099  0.64374  1.0000
  H   H1362     1.0  0.29630  0.47790  0.64347  1.0000
  C   C1120     1.0  0.24148  0.11675  0.90405  1.0000
  H   H1363     1.0  0.30564  0.44389  0.64284  1.0000
  C   C1121     1.0  0.26602  0.56603  0.30378  1.0000
  C   C1122     1.0  0.30075  0.87211  0.18823  1.0000
  S   S305      1.0  0.41572  0.73357  0.27103  1.0000
  C   C1123     1.0  0.33711  0.51094  0.29844  1.0000
  H   H1364     1.0  0.25472  0.94101  0.11965  1.0000
  H   H1365     1.0  0.26697  0.90334  0.19845  1.0000
  C   C1124     1.0  0.24627  0.90345  0.22463  1.0000
  H   H1366     1.0  0.35742  0.92017  0.13495  1.0000
  C   C1125     1.0  0.35517  0.66604  0.30562  1.0000
  N   N76       1.0  0.46083  0.76126  0.28268  1.0000
  C   C1126     1.0  0.28615  0.86709  0.18261  1.0000
  H   H1367     1.0  0.30560  0.55334  0.29416  1.0000
  N   N77       1.0  0.29167  0.90829  0.24820  1.0000
  C   C1127     1.0  0.44043  0.76474  0.29196  1.0000
  H   H1368     1.0  0.34768  0.59110  0.29996  1.0000
  C   C1128     1.0  0.24598  0.93089  0.16806  1.0000
  H   H1369     1.0  0.30833  0.51969  0.29429  1.0000
  H   H1370     1.0  0.30081  0.87752  0.25572  1.0000
  H   H1371     1.0  0.48170  0.86285  0.19716  1.0000
  H   H1372     1.0  0.46669  0.77994  0.29746  1.0000
  H   H1373     1.0  0.28933  0.93860  0.23601  1.0000
  Fe  Fe153     1.0  0.39928  0.83834  0.20099  1.0000
  S   S306      1.0  0.38185  0.83554  0.23057  1.0000
  S   S307      1.0  0.43118  0.83198  0.19693  1.0000
  Fe  Fe154     1.0  0.36430  0.85270  0.18270  1.0000
  S   S308      1.0  0.34412  0.85131  0.21103  1.0000
  S   S309      1.0  0.35242  0.86646  0.15605  1.0000
  Fe  Fe155     1.0  0.36440  0.86384  0.21910  1.0000
  S   S310      1.0  0.35651  0.88752  0.23492  1.0000
  Fe  Fe156     1.0  0.36358  0.82307  0.21955  1.0000
  S   S311      1.0  0.35153  0.79781  0.23777  1.0000
  S   S312      1.0  0.38307  0.86773  0.19022  1.0000
  S   S313      1.0  0.38245  0.82332  0.19059  1.0000
  N   N78       1.0  0.27797  0.84997  0.19293  1.0000
  C   C1129     1.0  0.38600  0.77871  0.29561  1.0000
  S   S314      1.0  0.46323  0.89404  0.21699  1.0000
  C   C1130     1.0  0.40166  0.91114  0.19501  1.0000
  S   S315      1.0  0.33119  0.96734  0.18138  1.0000
  S   S316      1.0  0.28326  0.94971  0.19005  1.0000
  Fe  Fe157     1.0  0.27249  0.83790  0.12793  1.0000
  S   S317      1.0  0.26437  0.86967  0.11658  1.0000
  S   S318      1.0  0.30134  0.82212  0.13438  1.0000
  H   H1374     1.0  0.25028  0.84327  0.20617  1.0000
  H   H1375     1.0  0.44598  0.76045  0.25283  1.0000
  H   H1376     1.0  0.41185  0.90969  0.20418  1.0000
  H   H1377     1.0  0.29948  0.83459  0.20941  1.0000
  H   H1378     1.0  0.25164  0.86786  0.20392  1.0000
  H   H1379     1.0  0.31942  0.89185  0.18249  1.0000
  H   H1380     1.0  0.37076  0.80276  0.26740  1.0000
  S   S319      1.0  0.24640  0.64368  0.26409  1.0000
  C   C1131     1.0  0.28412  0.83543  0.18099  1.0000
  H   H1381     1.0  0.24084  0.70735  0.05535  1.0000
  H   H1382     1.0  0.43142  0.92835  0.17628  1.0000
  Fe  Fe158     1.0  0.29974  0.97288  0.18376  1.0000
  S   S320      1.0  0.25115  0.95508  0.24154  1.0000
  H   H1383     1.0  0.29291  0.90500  0.21196  1.0000
  C   C1132     1.0  0.47400  0.78828  0.25754  1.0000
  H   H1384     1.0  0.25105  0.85922  0.18374  1.0000
  C   C1133     1.0  0.25688  0.85536  0.19690  1.0000
  H   H1385     1.0  0.27766  0.82260  0.18771  1.0000
  N   N79       1.0  0.41119  0.91282  0.17466  1.0000
  H   H1386     1.0  0.31196  0.92653  0.24189  1.0000
  C   C1134     1.0  0.42689  0.89568  0.17315  1.0000
  H   H1387     1.0  0.31822  0.89075  0.25487  1.0000
  H   H1388     1.0  0.48383  0.81108  0.23509  1.0000
  C   C1135     1.0  0.35019  0.90950  0.21951  1.0000
  C   C1136     1.0  0.34332  0.91021  0.20347  1.0000
  C   C1137     1.0  0.33706  0.92804  0.19191  1.0000
  C   C1138     1.0  0.33854  0.94504  0.19591  1.0000
  C   C1139     1.0  0.34594  0.94424  0.21162  1.0000
  C   C1140     1.0  0.35146  0.92649  0.22360  1.0000
  H   H1389     1.0  0.34248  0.89707  0.20018  1.0000
  H   H1390     1.0  0.33138  0.92863  0.17973  1.0000
  H   H1391     1.0  0.34706  0.95737  0.21473  1.0000
  H   H1392     1.0  0.35682  0.92593  0.23598  1.0000
  C   C1141     1.0  0.33864  0.85384  0.14983  1.0000
  C   C1142     1.0  0.34112  0.83383  0.15547  1.0000
  C   C1143     1.0  0.33012  0.82417  0.14997  1.0000
  C   C1144     1.0  0.31593  0.83454  0.13968  1.0000
  C   C1145     1.0  0.31332  0.85456  0.13426  1.0000
  C   C1146     1.0  0.32502  0.86408  0.13885  1.0000
  H   H1393     1.0  0.35175  0.82575  0.16374  1.0000
  H   H1394     1.0  0.33226  0.80865  0.15418  1.0000
  H   H1395     1.0  0.30236  0.86270  0.12647  1.0000
  H   H1396     1.0  0.32323  0.87951  0.13432  1.0000
  C   C1147     1.0  0.44027  0.84808  0.20413  1.0000
  C   C1148     1.0  0.42839  0.86074  0.21541  1.0000
  C   C1149     1.0  0.43578  0.87424  0.22001  1.0000
  C   C1150     1.0  0.45500  0.87522  0.21331  1.0000
  C   C1151     1.0  0.46694  0.86214  0.20256  1.0000
  C   C1152     1.0  0.45960  0.84861  0.19799  1.0000
  H   H1397     1.0  0.41348  0.86034  0.22035  1.0000
  H   H1398     1.0  0.42651  0.88416  0.22855  1.0000
  H   H1399     1.0  0.28192  0.90457  0.14391  1.0000
  H   H1400     1.0  0.46883  0.83895  0.18916  1.0000
  H   H1401     1.0  0.35263  0.80226  0.28809  1.0000
  C   C1153     1.0  0.25761  0.84099  0.02285  1.0000
  S   S321      1.0  0.28314  0.61245  0.29285  1.0000
  H   H1402     1.0  0.33869  0.57865  0.26742  1.0000
  S   S322      1.0  0.32701  0.63279  0.29204  1.0000
  Fe  Fe159     1.0  0.26302  0.48906  0.29745  1.0000
  H   H1403     1.0  0.28016  0.85116  0.22091  1.0000
  Fe  Fe160     1.0  0.40210  0.72040  0.30076  1.0000
  Fe  Fe161     1.0  0.26698  0.97021  0.16862  1.0000
  S   S323      1.0  0.26866  0.51888  0.28444  1.0000
  C   C1154     1.0  0.26757  0.53394  0.29965  1.0000
  H   H1404     1.0  0.31367  0.88866  0.23328  1.0000
  C   C1155     1.0  0.24987  0.86073  0.01893  1.0000
  H   H1405     1.0  0.30717  0.86336  0.19994  1.0000
  C   C1156     1.0  0.36976  0.77846  0.24434  1.0000
  C   C1157     1.0  0.38882  0.77990  0.23767  1.0000
  C   C1158     1.0  0.40316  0.76534  0.24490  1.0000
  C   C1159     1.0  0.39845  0.74939  0.25885  1.0000
  C   C1160     1.0  0.37953  0.74739  0.26448  1.0000
  C   C1161     1.0  0.36517  0.76197  0.25740  1.0000
  H   H1406     1.0  0.39249  0.79244  0.22730  1.0000
  H   H1407     1.0  0.41778  0.76684  0.24015  1.0000
  H   H1408     1.0  0.37595  0.73455  0.27425  1.0000
  H   H1409     1.0  0.35049  0.76061  0.26225  1.0000
  H   H1410     1.0  0.44096  0.83274  0.25750  1.0000
  H   H1411     1.0  0.26958  0.87566  0.16030  1.0000
  H   H1412     1.0  0.48713  0.76252  0.28907  1.0000
  N   N80       1.0  0.33239  0.57072  0.29805  1.0000
  C   C1162     1.0  0.34960  0.65529  0.29571  1.0000
  C   C1163     1.0  0.46331  0.77355  0.26325  1.0000
  H   H1413     1.0  0.30598  0.92355  0.22144  1.0000
  C   C1164     1.0  0.34979  0.57546  0.30028  1.0000
  H   H1414     1.0  0.35594  0.65561  0.28082  1.0000
  S   S324      1.0  0.24503  0.98509  0.18996  1.0000
  H   H1415     1.0  0.44915  0.78107  0.22089  1.0000
  C   C1165     1.0  0.41994  0.92998  0.16850  1.0000
  C   C1166     1.0  0.38176  0.93117  0.16210  1.0000
  C   C1167     1.0  0.38327  0.90275  0.14309  1.0000
  C   C1168     1.0  0.36793  0.93322  0.15168  1.0000
  H   H1416     1.0  0.35631  0.94571  0.15135  1.0000
  H   H1417     1.0  0.40955  0.94330  0.17128  1.0000
  H   H1418     1.0  0.42632  0.93240  0.15299  1.0000
  H   H1419     1.0  0.38009  0.94228  0.16975  1.0000
  C   C1169     1.0  0.42201  0.81615  0.25556  1.0000
  C   C1170     1.0  0.24690  0.87155  0.03286  1.0000
  C   C1171     1.0  0.47157  0.76496  0.29514  1.0000
  H   H1420     1.0  0.45842  0.73599  0.27455  1.0000
  C   C1172     1.0  0.25187  0.94049  0.14934  1.0000
  S   S325      1.0  0.26122  0.82646  0.00634  1.0000
  C   C1173     1.0  0.25738  0.90577  0.25160  1.0000
  H   H1421     1.0  0.42161  0.88204  0.17882  1.0000
  Fe  Fe162     1.0  0.25168  0.83611  0.97808  1.0000
  C   C1174     1.0  0.39756  0.80835  0.28408  1.0000
  C   C1175     1.0  0.26642  0.55369  0.29215  1.0000
  H   H1422     1.0  0.26567  0.55953  0.27734  1.0000
  S   S326      1.0  0.24707  0.83689  0.15186  1.0000
  C   C1176     1.0  0.39700  0.91489  0.16310  1.0000
  H   H1423     1.0  0.28780  0.92677  0.10038  1.0000
  C   C1177     1.0  0.28690  0.89567  0.15652  1.0000
  C   C1178     1.0  0.30667  0.89053  0.24801  1.0000
  C   C1179     1.0  0.27985  0.87911  0.16611  1.0000
  H   H1424     1.0  0.29764  0.91320  0.27323  1.0000
  H   H1425     1.0  0.38341  0.89140  0.13625  1.0000
  C   C1180     1.0  0.28566  0.91126  0.26805  1.0000
  C   C1181     1.0  0.45445  0.77124  0.24948  1.0000
  H   H1426     1.0  0.42684  0.83377  0.29130  1.0000
  C   C1182     1.0  0.30069  0.90056  0.16279  1.0000
  H   H1427     1.0  0.30630  0.91328  0.15515  1.0000
  Fe  Fe163     1.0  0.29605  0.63117  0.30294  1.0000
  H   H1428     1.0  0.39980  0.81914  0.30809  1.0000
  N   N81       1.0  0.31224  0.86280  0.07104  1.0000
  C   C1183     1.0  0.31446  0.84584  0.08699  1.0000
  C   C1184     1.0  0.29911  0.85987  0.06055  1.0000
  C   C1185     1.0  0.33089  0.86330  0.05783  1.0000
  C   C1186     1.0  0.30546  0.88064  0.07857  1.0000
  C   C1187     1.0  0.28825  0.89392  0.07556  1.0000
  C   C1188     1.0  0.31621  0.88518  0.08940  1.0000
  C   C1189     1.0  0.28202  0.91029  0.08342  1.0000
  C   C1190     1.0  0.30990  0.90166  0.09708  1.0000
  C   C1191     1.0  0.29277  0.91412  0.09422  1.0000
  H   H1429     1.0  0.30082  0.84536  0.09748  1.0000
  H   H1430     1.0  0.31888  0.83203  0.08206  1.0000
  H   H1431     1.0  0.32526  0.84578  0.09489  1.0000
  H   H1432     1.0  0.28503  0.85862  0.07000  1.0000
  H   H1433     1.0  0.30449  0.84636  0.05510  1.0000
  H   H1434     1.0  0.29694  0.87181  0.04798  1.0000
  H   H1435     1.0  0.34205  0.86361  0.06511  1.0000
  H   H1436     1.0  0.33614  0.85038  0.05139  1.0000
  H   H1437     1.0  0.32989  0.87625  0.04600  1.0000
  H   H1438     1.0  0.27908  0.89183  0.06751  1.0000
  H   H1439     1.0  0.32945  0.87582  0.09229  1.0000
  H   H1440     1.0  0.26863  0.91995  0.08128  1.0000
  H   H1441     1.0  0.31826  0.90470  0.10545  1.0000
  H   H1442     1.0  0.26845  0.81696  0.04376  1.0000
  S   S327      1.0  0.25899  0.82959  0.10831  1.0000
  H   H1443     1.0  0.32795  0.75008  0.30588  1.0000
  H   H1444     1.0  0.33806  0.49597  0.29860  1.0000
  C   C1192     1.0  0.32768  0.58279  0.27977  1.0000
  C   C1193     1.0  0.48048  0.68786  0.29708  1.0000
  Fe  Fe164     1.0  0.26289  0.96651  0.21082  1.0000
  H   H1445     1.0  0.30228  0.70560  0.29126  1.0000
  H   H1446     1.0  0.39019  0.92386  0.19753  1.0000
  C   C1194     1.0  0.32037  0.52430  0.29602  1.0000
  H   H1447     1.0  0.43804  0.75638  0.30692  1.0000
  C   C1195     1.0  0.36854  0.91891  0.14242  1.0000
  C   C1196     1.0  0.40674  0.80724  0.26502  1.0000
  C   C1197     1.0  0.30785  0.88861  0.17839  1.0000
  H   H1448     1.0  0.28020  0.84126  0.16680  1.0000
  C   C1198     1.0  0.45620  0.78291  0.23116  1.0000
  H   H1449     1.0  0.36257  0.82348  0.27781  1.0000
  C   C1199     1.0  0.35255  0.51684  0.30072  1.0000
  C   C1200     1.0  0.28391  0.84075  0.21143  1.0000
  H   H1450     1.0  0.36560  0.67479  0.29834  1.0000
  C   C1201     1.0  0.25034  0.93349  0.13414  1.0000
  H   H1451     1.0  0.28044  0.89872  0.27814  1.0000
  C   C1202     1.0  0.33523  0.64485  0.30478  1.0000
  H   H1452     1.0  0.43468  0.89599  0.15817  1.0000
  C   C1203     1.0  0.30005  0.92490  0.23639  1.0000
  C   C1204     1.0  0.31897  0.54360  0.29591  1.0000
  H   H1453     1.0  0.24700  0.93633  0.17983  1.0000
  H   H1454     1.0  0.40188  0.79987  0.25706  1.0000
  C   C1205     1.0  0.39748  0.90080  0.15302  1.0000
  S   S328      1.0  0.26087  0.96143  0.14441  1.0000
  H   H1455     1.0  0.43159  0.76045  0.28446  1.0000
  C   C1206     1.0  0.27595  0.90648  0.24043  1.0000
  N   N82       1.0  0.38056  0.79990  0.29327  1.0000
  H   H1456     1.0  0.27429  0.92448  0.26903  1.0000
  C   C1207     1.0  0.42920  0.82570  0.26501  1.0000
  H   H1457     1.0  0.39500  0.89833  0.20036  1.0000
  H   H1458     1.0  0.40830  0.88776  0.15310  1.0000
  H   H1459     1.0  0.43761  0.89483  0.18153  1.0000
  C   C1208     1.0  0.42113  0.82633  0.28401  1.0000
  H   H1460     1.0  0.27697  0.82841  0.21919  1.0000
  C   C1209     1.0  0.33439  0.55017  0.29816  1.0000
  C   C1210     1.0  0.35131  0.53615  0.30060  1.0000
  C   C1211     1.0  0.25909  0.84292  0.05465  1.0000
  Fe  Fe165     1.0  0.25836  0.63724  0.29055  1.0000
  H   H1461     1.0  0.31380  0.58160  0.27774  1.0000
  H   H1462     1.0  0.24571  0.50468  0.20696  1.0000
  Fe  Fe166     1.0  0.24861  0.86138  0.09881  1.0000
  H   H1463     1.0  0.29980  0.83030  0.17845  1.0000
  H   H1464     1.0  0.42808  0.81597  0.24066  1.0000
  S   S329      1.0  0.24712  0.87643  0.06819  1.0000
  C   C1212     1.0  0.36605  0.80746  0.28117  1.0000
  C   C1213     1.0  0.47564  0.79988  0.23917  1.0000
  H   H1465     1.0  0.43485  0.78025  0.29220  1.0000
  H   H1466     1.0  0.26271  0.83587  0.06829  1.0000
  C   C1214     1.0  0.26236  0.83222  0.04067  1.0000
  H   H1467     1.0  0.26458  0.58128  0.29796  1.0000
  C   C1215     1.0  0.26438  0.90368  0.21340  1.0000
  C   C1216     1.0  0.40550  0.81785  0.29349  1.0000
  H   H1468     1.0  0.32660  0.59836  0.27893  1.0000
  S   S330      1.0  0.27270  0.65695  0.29764  1.0000
  C   C1217     1.0  0.46676  0.79719  0.22602  1.0000
  C   C1218     1.0  0.27910  0.90489  0.22121  1.0000
  C   C1219     1.0  0.24315  0.91682  0.13760  1.0000
  H   H1469     1.0  0.39251  0.77432  0.28182  1.0000
  C   C1220     1.0  0.25135  0.86264  0.05082  1.0000
  H   H1470     1.0  0.46662  0.73109  0.29612  1.0000
  C   C1221     1.0  0.46732  0.74066  0.28167  1.0000
  H   H1471     1.0  0.25345  0.90708  0.26627  1.0000
  H   H1472     1.0  0.46790  0.80630  0.21185  1.0000
  H   H1473     1.0  0.48229  0.73775  0.27369  1.0000
  H   H1474     1.0  0.37347  0.77186  0.30196  1.0000
  H   H1475     1.0  0.36200  0.57224  0.28849  1.0000
  H   H1476     1.0  0.24623  0.86766  0.00520  1.0000
  C   C1222     1.0  0.24284  0.90427  0.24372  1.0000
  H   H1477     1.0  0.29986  0.68177  0.30405  1.0000
  H   H1478     1.0  0.48624  0.82397  0.28492  1.0000
  H   H1479     1.0  0.48128  0.79120  0.26694  1.0000
  H   H1480     1.0  0.39636  0.77230  0.30515  1.0000
  H   H1481     1.0  0.36375  0.53971  0.30250  1.0000
  H   H1482     1.0  0.32116  0.72173  0.30079  1.0000
  H   H1483     1.0  0.31860  0.69106  0.30638  1.0000
  H   H1484     1.0  0.36553  0.50634  0.30266  1.0000
  H   H1485     1.0  0.26811  0.71878  0.30698  1.0000
  C   C1223     1.0  0.30349  0.69518  0.30501  1.0000
  H   H1486     1.0  0.47115  0.69372  0.28696  1.0000
  H   H1487     1.0  0.24096  0.88683  0.02975  1.0000
  H   H1488     1.0  0.24199  0.91151  0.12581  1.0000
  H   H1489     1.0  0.24519  0.77690  0.41569  1.0000
  H   H1490     1.0  0.35841  0.79795  0.31864  1.0000
  H   H1491     1.0  0.33059  0.65341  0.63440  1.0000
  H   H1492     1.0  0.30234  0.77961  0.63267  1.0000
  H   H1493     1.0  0.27226  0.75312  0.62207  1.0000
  C   C1224     1.0  0.47389  0.67734  0.31506  1.0000
  H   H1494     1.0  0.47971  0.66158  0.34183  1.0000
  C   C1225     1.0  0.30388  0.75418  0.32877  1.0000
  H   H1495     1.0  0.26918  0.53307  0.34522  1.0000
  S   S331      1.0  0.36770  0.76079  0.34731  1.0000
  H   H1496     1.0  0.24331  0.65424  0.55498  1.0000
  C   C1226     1.0  0.25476  0.66890  0.36473  1.0000
  C   C1227     1.0  0.28159  0.75651  0.62962  1.0000
  C   C1228     1.0  0.46874  0.71076  0.35551  1.0000
  C   C1229     1.0  0.25239  0.81683  0.59645  1.0000
  H   H1497     1.0  0.27127  0.72134  0.50406  1.0000
  H   H1498     1.0  0.25102  0.69754  0.39535  1.0000
  H   H1499     1.0  0.25879  0.70933  0.49493  1.0000
  H   H1500     1.0  0.28307  0.69238  0.35172  1.0000
  Fe  Fe167     1.0  0.26837  0.60471  0.32326  1.0000
  Fe  Fe168     1.0  0.37402  0.69776  0.32852  1.0000
  C   C1230     1.0  0.48586  0.66946  0.32815  1.0000
  C   C1231     1.0  0.45467  0.70430  0.35077  1.0000
  Fe  Fe169     1.0  0.27790  0.73987  0.41033  1.0000
  S   S332      1.0  0.29986  0.71265  0.41445  1.0000
  S   S333      1.0  0.28130  0.76555  0.38654  1.0000
  Fe  Fe170     1.0  0.29370  0.71529  0.44482  1.0000
  S   S334      1.0  0.31660  0.70821  0.46166  1.0000
  Fe  Fe171     1.0  0.27496  0.69823  0.42335  1.0000
  S   S335      1.0  0.27409  0.74394  0.43989  1.0000
  N   N83       1.0  0.27417  0.77603  0.63369  1.0000
  Fe  Fe172     1.0  0.30712  0.72419  0.59506  1.0000
  S   S336      1.0  0.28224  0.71235  0.61354  1.0000
  S   S337      1.0  0.33071  0.72672  0.60765  1.0000
  Fe  Fe173     1.0  0.29000  0.73401  0.55976  1.0000
  S   S338      1.0  0.26393  0.72244  0.57572  1.0000
  S   S339      1.0  0.28984  0.75120  0.52980  1.0000
  Fe  Fe174     1.0  0.26434  0.73751  0.59787  1.0000
  C   C1232     1.0  0.26833  0.69743  0.53961  1.0000
  Fe  Fe175     1.0  0.28434  0.69817  0.58993  1.0000
  S   S340      1.0  0.27940  0.66802  0.59946  1.0000
  S   S341      1.0  0.28896  0.75091  0.58116  1.0000
  S   S342      1.0  0.31070  0.70823  0.57199  1.0000
  H   H1501     1.0  0.25183  0.73488  0.49296  1.0000
  C   C1233     1.0  0.26718  0.55863  0.32290  1.0000
  C   C1234     1.0  0.26842  0.52653  0.31885  1.0000
  S   S343      1.0  0.38097  0.70356  0.35384  1.0000
  C   C1235     1.0  0.33636  0.73102  0.64115  1.0000
  C   C1236     1.0  0.27031  0.67015  0.39499  1.0000
  C   C1237     1.0  0.31800  0.64939  0.63338  1.0000
  C   C1238     1.0  0.26899  0.65373  0.37110  1.0000
  C   C1239     1.0  0.27668  0.65432  0.38624  1.0000
  H   H1502     1.0  0.27393  0.64144  0.36453  1.0000
  H   H1503     1.0  0.28750  0.64241  0.39125  1.0000
  C   C1240     1.0  0.31017  0.72030  0.48045  1.0000
  C   C1241     1.0  0.31432  0.71061  0.49832  1.0000
  C   C1242     1.0  0.30849  0.72004  0.51361  1.0000
  C   C1243     1.0  0.29884  0.73926  0.51088  1.0000
  C   C1244     1.0  0.29549  0.74915  0.49279  1.0000
  C   C1245     1.0  0.30090  0.73963  0.47766  1.0000
  H   H1504     1.0  0.32164  0.69567  0.50047  1.0000
  H   H1505     1.0  0.31134  0.71241  0.52750  1.0000
  H   H1506     1.0  0.28856  0.76417  0.49055  1.0000
  H   H1507     1.0  0.29810  0.74733  0.46381  1.0000
  H   H1508     1.0  0.38089  0.79755  0.32277  1.0000
  C   C1246     1.0  0.25140  0.69957  0.53319  1.0000
  C   C1247     1.0  0.25027  0.66637  0.55061  1.0000
  C   C1248     1.0  0.29206  0.65463  0.61725  1.0000
  C   C1249     1.0  0.30815  0.65996  0.61891  1.0000
  C   C1250     1.0  0.24270  0.68335  0.53876  1.0000
  C   C1251     1.0  0.26785  0.81767  0.58123  1.0000
  S   S344      1.0  0.41159  0.72774  0.32369  1.0000
  H   H1509     1.0  0.31317  0.67207  0.60885  1.0000
  H   H1510     1.0  0.26047  0.70959  0.33210  1.0000
  C   C1252     1.0  0.28805  0.74725  0.34021  1.0000
  Fe  Fe176     1.0  0.25896  0.64613  0.32798  1.0000
  H   H1511     1.0  0.26937  0.51130  0.32473  1.0000
  H   H1512     1.0  0.29155  0.67421  0.33801  1.0000
  H   H1513     1.0  0.47373  0.72339  0.34668  1.0000
  Fe  Fe177     1.0  0.41129  0.69718  0.33856  1.0000
  C   C1253     1.0  0.34349  0.76208  0.35719  1.0000
  C   C1254     1.0  0.33208  0.77952  0.36106  1.0000
  C   C1255     1.0  0.31286  0.78058  0.36973  1.0000
  C   C1256     1.0  0.30517  0.76409  0.37508  1.0000
  C   C1257     1.0  0.31658  0.74663  0.37123  1.0000
  C   C1258     1.0  0.33568  0.74570  0.36200  1.0000
  H   H1514     1.0  0.33810  0.79220  0.35740  1.0000
  H   H1515     1.0  0.30404  0.79410  0.37266  1.0000
  H   H1516     1.0  0.31056  0.73397  0.37487  1.0000
  H   H1517     1.0  0.34436  0.73224  0.35883  1.0000
  C   C1259     1.0  0.44842  0.68772  0.36210  1.0000
  C   C1260     1.0  0.45592  0.67795  0.37827  1.0000
  C   C1261     1.0  0.46930  0.68480  0.38338  1.0000
  C   C1262     1.0  0.47607  0.70095  0.37186  1.0000
  S   S345      1.0  0.43209  0.67796  0.35621  1.0000
  S   S346      1.0  0.28030  0.67034  0.41393  1.0000
  H   H1518     1.0  0.45122  0.66510  0.38702  1.0000
  H   H1519     1.0  0.24403  0.79081  0.37486  1.0000
  Fe  Fe178     1.0  0.38066  0.73353  0.33686  1.0000
  S   S347      1.0  0.26728  0.57377  0.33763  1.0000
  S   S348      1.0  0.27062  0.69855  0.45434  1.0000
  H   H1520     1.0  0.25195  0.77255  0.57690  1.0000
  H   H1521     1.0  0.32910  0.63647  0.38831  1.0000
  Fe  Fe179     1.0  0.25123  0.72716  0.44705  1.0000
  H   H1522     1.0  0.34734  0.73855  0.63238  1.0000
  H   H1523     1.0  0.31642  0.63611  0.33124  1.0000
  H   H1524     1.0  0.25711  0.77126  0.48397  1.0000
  C   C1263     1.0  0.31685  0.57616  0.31393  1.0000
  C   C1264     1.0  0.27578  0.68041  0.55136  1.0000
  C   C1265     1.0  0.24831  0.68469  0.37357  1.0000
  C   C1266     1.0  0.28376  0.73093  0.33752  1.0000
  H   H1525     1.0  0.31531  0.59136  0.31482  1.0000
  H   H1526     1.0  0.27165  0.72577  0.34711  1.0000
  H   H1527     1.0  0.36693  0.81992  0.31166  1.0000
  C   C1267     1.0  0.34657  0.66603  0.32472  1.0000
  H   H1528     1.0  0.30527  0.70633  0.63784  1.0000
  H   H1529     1.0  0.27930  0.75433  0.35152  1.0000
  N   N84       1.0  0.34113  0.65797  0.39333  1.0000
  C   C1268     1.0  0.35820  0.65228  0.37880  1.0000
  C   C1269     1.0  0.33120  0.64157  0.40027  1.0000
  C   C1270     1.0  0.32843  0.67488  0.38400  1.0000
  C   C1271     1.0  0.34581  0.66307  0.40928  1.0000
  C   C1272     1.0  0.33214  0.66445  0.42641  1.0000
  C   C1273     1.0  0.36342  0.66807  0.40786  1.0000
  C   C1274     1.0  0.33626  0.66930  0.44158  1.0000
  C   C1275     1.0  0.36727  0.67323  0.42305  1.0000
  C   C1276     1.0  0.35377  0.67367  0.43994  1.0000
  H   H1530     1.0  0.36883  0.64044  0.38535  1.0000
  H   H1531     1.0  0.35454  0.64727  0.36760  1.0000
  H   H1532     1.0  0.36510  0.66458  0.37089  1.0000
  H   H1533     1.0  0.33931  0.62920  0.40925  1.0000
  C   C1277     1.0  0.31547  0.74483  0.31458  1.0000
  H   H1534     1.0  0.31663  0.64546  0.40869  1.0000
  H   H1535     1.0  0.33563  0.68725  0.37760  1.0000
  H   H1536     1.0  0.32367  0.67160  0.37247  1.0000
  H   H1537     1.0  0.31538  0.67978  0.39421  1.0000
  H   H1538     1.0  0.31798  0.66214  0.42818  1.0000
  H   H1539     1.0  0.37443  0.66821  0.39514  1.0000
  H   H1540     1.0  0.32560  0.67007  0.45459  1.0000
  H   H1541     1.0  0.38080  0.67693  0.42168  1.0000
  H   H1542     1.0  0.35666  0.67776  0.45170  1.0000
  N   N85       1.0  0.35445  0.73824  0.41749  1.0000
  C   C1278     1.0  0.35359  0.75774  0.40504  1.0000
  C   C1279     1.0  0.34106  0.72890  0.41334  1.0000
  C   C1280     1.0  0.34762  0.74068  0.43749  1.0000
  C   C1281     1.0  0.37400  0.72661  0.41373  1.0000
  C   C1282     1.0  0.38264  0.72328  0.39517  1.0000
  C   C1283     1.0  0.38502  0.71838  0.42807  1.0000
  C   C1284     1.0  0.40117  0.71258  0.39119  1.0000
  C   C1285     1.0  0.40355  0.70772  0.42389  1.0000
  C   C1286     1.0  0.41161  0.70489  0.40550  1.0000
  H   H1543     1.0  0.36374  0.76512  0.40745  1.0000
  H   H1544     1.0  0.35721  0.75737  0.38969  1.0000
  H   H1545     1.0  0.33909  0.76695  0.40754  1.0000
  H   H1546     1.0  0.34438  0.72759  0.39825  1.0000
  H   H1547     1.0  0.32616  0.73721  0.41611  1.0000
  H   H1548     1.0  0.34128  0.71418  0.42240  1.0000
  H   H1549     1.0  0.35648  0.74848  0.44140  1.0000
  H   H1550     1.0  0.33271  0.74903  0.43998  1.0000
  H   H1551     1.0  0.34753  0.72658  0.44770  1.0000
  H   H1552     1.0  0.37520  0.72909  0.38351  1.0000
  H   H1553     1.0  0.37975  0.72006  0.44261  1.0000
  H   H1554     1.0  0.40759  0.71033  0.37687  1.0000
  H   H1555     1.0  0.41182  0.70173  0.43495  1.0000
  H   H1556     1.0  0.42603  0.69680  0.40229  1.0000
  H   H1557     1.0  0.44910  0.71179  0.33813  1.0000
  C   C1287     1.0  0.25695  0.72105  0.50249  1.0000
  H   H1558     1.0  0.29721  0.80580  0.57110  1.0000
  C   C1288     1.0  0.32624  0.72328  0.63261  1.0000
  S   S349      1.0  0.28333  0.62147  0.33375  1.0000
  H   H1559     1.0  0.28851  0.67927  0.55647  1.0000
  C   C1289     1.0  0.29344  0.68840  0.33900  1.0000
  H   H1560     1.0  0.32004  0.49624  0.64224  1.0000
  C   C1290     1.0  0.33310  0.65462  0.33399  1.0000
  H   H1561     1.0  0.32658  0.65419  0.34882  1.0000
  C   C1291     1.0  0.27169  0.79039  0.61581  1.0000
  S   S350      1.0  0.40459  0.68888  0.31444  1.0000
  C   C1292     1.0  0.26835  0.53886  0.33042  1.0000
  H   H1562     1.0  0.25247  0.80400  0.38680  1.0000
  H   H1563     1.0  0.27231  0.65197  0.56654  1.0000
  H   H1564     1.0  0.30776  0.68654  0.34194  1.0000
  C   C1293     1.0  0.28524  0.80524  0.58304  1.0000
  C   C1294     1.0  0.24566  0.78464  0.50810  1.0000
  H   H1565     1.0  0.30104  0.78258  0.60080  1.0000
  H   H1566     1.0  0.25538  0.73704  0.53058  1.0000
  S   S351      1.0  0.35010  0.68173  0.33704  1.0000
  C   C1295     1.0  0.32721  0.64438  0.32401  1.0000
  C   C1296     1.0  0.26667  0.66497  0.55701  1.0000
  H   H1567     1.0  0.29611  0.75485  0.62061  1.0000
  N   N86       1.0  0.29097  0.70316  0.32141  1.0000
  N   N87       1.0  0.24363  0.71800  0.52112  1.0000
  H   H1568     1.0  0.30287  0.57485  0.31235  1.0000
  C   C1297     1.0  0.25412  0.80333  0.61346  1.0000
  C   C1298     1.0  0.27106  0.70658  0.31909  1.0000
  S   S352      1.0  0.37091  0.72864  0.31299  1.0000
  C   C1299     1.0  0.25617  0.68539  0.38855  1.0000
  S   S353      1.0  0.25326  0.72548  0.41684  1.0000
  S   S354      1.0  0.24258  0.62843  0.32045  1.0000
  C   C1300     1.0  0.37137  0.80415  0.31237  1.0000
  H   H1569     1.0  0.25937  0.78230  0.51187  1.0000
  C   C1301     1.0  0.28569  0.63888  0.63028  1.0000
  H   H1570     1.0  0.47487  0.67720  0.39604  1.0000
  H   H1571     1.0  0.26451  0.68050  0.64097  1.0000
  H   H1572     1.0  0.27583  0.70904  0.53579  1.0000
  S   S355      1.0  0.24541  0.66909  0.34522  1.0000
  H   H1573     1.0  0.27326  0.63471  0.62900  1.0000
  C   C1302     1.0  0.28724  0.79190  0.60010  1.0000
  H   H1574     1.0  0.26621  0.82786  0.56793  1.0000
  H   H1575     1.0  0.30735  0.76662  0.33116  1.0000
  H   H1576     1.0  0.26797  0.69367  0.31634  1.0000
  C   C1303     1.0  0.24443  0.77839  0.49246  1.0000
  H   H1577     1.0  0.45937  0.67525  0.31898  1.0000
  C   C1304     1.0  0.29523  0.72106  0.32316  1.0000
  C   C1305     1.0  0.31132  0.72848  0.31176  1.0000
  H   H1578     1.0  0.31931  0.56680  0.32790  1.0000
  H   H1579     1.0  0.35369  0.56760  0.31419  1.0000
  C   C1306     1.0  0.24148  0.73415  0.53046  1.0000
  C   C1307     1.0  0.28803  0.78049  0.64218  1.0000
  H   H1580     1.0  0.24134  0.80316  0.62436  1.0000
  H   H1581     1.0  0.46976  0.75535  0.30956  1.0000
  S   S356      1.0  0.36541  0.72119  0.74467  1.0000
  Fe  Fe180     1.0  0.34621  0.70138  0.74689  1.0000
  S   S357      1.0  0.34179  0.67591  0.77074  1.0000
  H   H1582     1.0  0.44011  0.81763  0.71522  1.0000
  S   S358      1.0  0.45618  0.75099  0.72805  1.0000
  C   C1308     1.0  0.37332  0.79259  0.71400  1.0000
  H   H1583     1.0  0.33853  0.93457  0.84684  1.0000
  Fe  Fe181     1.0  0.30545  0.60446  0.73434  1.0000
  S   S359      1.0  0.29567  0.63025  0.71271  1.0000
  S   S360      1.0  0.31982  0.60376  0.75762  1.0000
  Fe  Fe182     1.0  0.28842  0.57779  0.72113  1.0000
  S   S361      1.0  0.27753  0.60139  0.69787  1.0000
  S   S362      1.0  0.28019  0.54885  0.73290  1.0000
  H   H1584     1.0  0.28446  0.90464  0.88930  1.0000
  Fe  Fe183     1.0  0.26868  0.61957  0.71968  1.0000
  C   C1309     1.0  0.28223  0.66476  0.76790  1.0000
  S   S363      1.0  0.27746  0.59561  0.74325  1.0000
  Fe  Fe184     1.0  0.36421  0.83874  0.83437  1.0000
  S   S364      1.0  0.38240  0.85737  0.81189  1.0000
  S   S365      1.0  0.34801  0.85015  0.86054  1.0000
  Fe  Fe185     1.0  0.37270  0.80833  0.81137  1.0000
  S   S366      1.0  0.39111  0.82438  0.78715  1.0000
  S   S367      1.0  0.37012  0.77903  0.81008  1.0000
  Fe  Fe186     1.0  0.40355  0.82970  0.80922  1.0000
  S   S368      1.0  0.43583  0.82274  0.80281  1.0000
  Fe  Fe187     1.0  0.36847  0.85046  0.79195  1.0000
  S   S369      1.0  0.36004  0.87076  0.76569  1.0000
  S   S370      1.0  0.38656  0.81158  0.83346  1.0000
  S   S371      1.0  0.34881  0.83389  0.81438  1.0000
  C   C1310     1.0  0.37004  0.65312  0.70120  1.0000
  S   S372      1.0  0.24617  0.97519  0.78431  1.0000
  Fe  Fe188     1.0  0.27031  0.95039  0.78958  1.0000
  S   S373      1.0  0.28718  0.93821  0.76416  1.0000
  S   S374      1.0  0.28052  0.96464  0.80689  1.0000
  S   S375      1.0  0.32377  0.62121  0.66488  1.0000
  H   H1585     1.0  0.34589  0.62496  0.69076  1.0000
  H   H1586     1.0  0.28895  0.70793  0.73971  1.0000
  Fe  Fe189     1.0  0.26232  0.82668  0.93830  1.0000
  H   H1587     1.0  0.29004  0.77015  0.65585  1.0000
  S   S376      1.0  0.28223  0.81069  0.91629  1.0000
  H   H1588     1.0  0.48270  0.77639  0.83042  1.0000
  C   C1311     1.0  0.35395  0.62992  0.69797  1.0000
  C   C1312     1.0  0.28226  0.51043  0.69294  1.0000
  H   H1589     1.0  0.31471  0.93260  0.84802  1.0000
  S   S377      1.0  0.26540  0.85125  0.94906  1.0000
  S   S378      1.0  0.48903  0.87062  0.81593  1.0000
  H   H1590     1.0  0.25914  0.74257  0.92014  1.0000
  H   H1591     1.0  0.30901  0.90564  0.83860  1.0000
  H   H1592     1.0  0.29539  0.66173  0.77362  1.0000
  H   H1593     1.0  0.26747  0.84832  0.89478  1.0000
  S   S379      1.0  0.33366  0.77377  0.74416  1.0000
  H   H1594     1.0  0.36954  0.89988  0.81107  1.0000
  H   H1595     1.0  0.36830  0.78127  0.71038  1.0000
  C   C1313     1.0  0.41873  0.80231  0.71629  1.0000
  H   H1596     1.0  0.40415  0.76417  0.74168  1.0000
  H   H1597     1.0  0.27490  0.90168  0.78050  1.0000
  H   H1598     1.0  0.41797  0.84096  0.73359  1.0000
  H   H1599     1.0  0.33230  0.48985  0.68529  1.0000
  H   H1600     1.0  0.37439  0.91325  0.77722  1.0000
  H   H1601     1.0  0.35962  0.88391  0.83982  1.0000
  C   C1314     1.0  0.26077  0.92315  0.87751  1.0000
  H   H1602     1.0  0.32560  0.67297  0.68786  1.0000
  H   H1603     1.0  0.24942  0.79358  0.92586  1.0000
  C   C1315     1.0  0.35917  0.64812  0.69082  1.0000
  H   H1604     1.0  0.25519  0.89077  0.79372  1.0000
  H   H1605     1.0  0.26762  0.76475  0.91153  1.0000
  C   C1316     1.0  0.26167  0.89820  0.77932  1.0000
  H   H1606     1.0  0.26437  0.88931  0.91863  1.0000
  C   C1317     1.0  0.32998  0.83882  0.87596  1.0000
  C   C1318     1.0  0.32722  0.82158  0.87371  1.0000
  C   C1319     1.0  0.31275  0.81285  0.88637  1.0000
  C   C1320     1.0  0.30094  0.82137  0.90126  1.0000
  C   C1321     1.0  0.30372  0.83862  0.90344  1.0000
  C   C1322     1.0  0.31819  0.84731  0.89083  1.0000
  H   H1607     1.0  0.33635  0.81488  0.86234  1.0000
  H   H1608     1.0  0.31069  0.79949  0.88461  1.0000
  H   H1609     1.0  0.29476  0.84530  0.91485  1.0000
  H   H1610     1.0  0.32031  0.86061  0.89269  1.0000
  C   C1323     1.0  0.33990  0.88966  0.76663  1.0000
  C   C1324     1.0  0.33559  0.90085  0.74931  1.0000
  C   C1325     1.0  0.31956  0.91580  0.74894  1.0000
  C   C1326     1.0  0.30768  0.91991  0.76588  1.0000
  C   C1327     1.0  0.31189  0.90883  0.78339  1.0000
  C   C1328     1.0  0.32802  0.89359  0.78377  1.0000
  H   H1611     1.0  0.34467  0.89788  0.73605  1.0000
  H   H1612     1.0  0.31638  0.92425  0.73539  1.0000
  H   H1613     1.0  0.30288  0.91215  0.79653  1.0000
  H   H1614     1.0  0.33139  0.88507  0.79721  1.0000
  C   C1329     1.0  0.44992  0.83748  0.80526  1.0000
  C   C1330     1.0  0.46954  0.83342  0.79786  1.0000
  H   H1615     1.0  0.24949  0.58157  0.80220  1.0000
  C   C1331     1.0  0.47407  0.85821  0.81114  1.0000
  C   C1332     1.0  0.45436  0.86272  0.81805  1.0000
  C   C1333     1.0  0.44231  0.85231  0.81522  1.0000
  H   H1616     1.0  0.47547  0.82217  0.78988  1.0000
  H   H1617     1.0  0.33990  0.73539  0.66753  1.0000
  H   H1618     1.0  0.44844  0.87403  0.82595  1.0000
  H   H1619     1.0  0.42720  0.85556  0.82098  1.0000
  H   H1620     1.0  0.31976  0.95103  0.78399  1.0000
  C   C1334     1.0  0.24807  0.63604  0.75888  1.0000
  C   C1335     1.0  0.24680  0.88335  0.76368  1.0000
  C   C1336     1.0  0.28744  0.54007  0.69755  1.0000
  Fe  Fe190     1.0  0.30563  0.60986  0.69278  1.0000
  H   H1621     1.0  0.26048  0.55216  0.78767  1.0000
  H   H1622     1.0  0.26274  0.63445  0.75144  1.0000
  H   H1623     1.0  0.25194  0.91223  0.77544  1.0000
  H   H1624     1.0  0.41874  0.76773  0.70794  1.0000
  H   H1625     1.0  0.29420  0.53187  0.67044  1.0000
  C   C1337     1.0  0.28049  0.53472  0.71712  1.0000
  C   C1338     1.0  0.27412  0.51741  0.72450  1.0000
  H   H1626     1.0  0.45788  0.70420  0.77424  1.0000
  H   H1627     1.0  0.31496  0.82078  0.78736  1.0000
  H   H1628     1.0  0.26863  0.51326  0.73962  1.0000
  H   H1629     1.0  0.32797  0.88533  0.83461  1.0000
  C   C1339     1.0  0.39936  0.80073  0.72263  1.0000
  C   C1340     1.0  0.34277  0.77512  0.76324  1.0000
  C   C1341     1.0  0.34302  0.79319  0.76590  1.0000
  C   C1342     1.0  0.35154  0.79457  0.78015  1.0000
  C   C1343     1.0  0.35935  0.77787  0.79212  1.0000
  C   C1344     1.0  0.35879  0.75985  0.78968  1.0000
  C   C1345     1.0  0.35062  0.75846  0.77522  1.0000
  H   H1630     1.0  0.33695  0.80612  0.75667  1.0000
  H   H1631     1.0  0.35201  0.80852  0.78192  1.0000
  H   H1632     1.0  0.36467  0.74690  0.79902  1.0000
  H   H1633     1.0  0.35023  0.74449  0.77349  1.0000
  C   C1346     1.0  0.33627  0.65614  0.76583  1.0000
  C   C1347     1.0  0.33202  0.65671  0.74834  1.0000
  C   C1348     1.0  0.32630  0.64098  0.74570  1.0000
  C   C1349     1.0  0.32567  0.62440  0.76025  1.0000
  C   C1350     1.0  0.33028  0.62381  0.77747  1.0000
  C   C1351     1.0  0.33531  0.63966  0.78033  1.0000
  H   H1634     1.0  0.33297  0.66926  0.73696  1.0000
  H   H1635     1.0  0.32291  0.64147  0.73229  1.0000
  H   H1636     1.0  0.32988  0.61104  0.78874  1.0000
  C   C1352     1.0  0.42045  0.72334  0.70647  1.0000
  C   C1353     1.0  0.43748  0.72776  0.69471  1.0000
  C   C1354     1.0  0.44971  0.73461  0.70171  1.0000
  C   C1355     1.0  0.44490  0.73700  0.72052  1.0000
  C   C1356     1.0  0.42848  0.73152  0.73250  1.0000
  C   C1357     1.0  0.41635  0.72466  0.72554  1.0000
  C   C1358     1.0  0.34105  0.91766  0.81842  1.0000
  C   C1359     1.0  0.32723  0.93221  0.80985  1.0000
  H   H1637     1.0  0.42470  0.73333  0.74702  1.0000
  H   H1638     1.0  0.40367  0.72074  0.73490  1.0000
  S   S380      1.0  0.40392  0.71757  0.69678  1.0000
  C   C1360     1.0  0.29796  0.86818  0.77040  1.0000
  C   C1361     1.0  0.35381  0.89672  0.84631  1.0000
  C   C1362     1.0  0.26029  0.86333  0.88966  1.0000
  H   H1639     1.0  0.26626  0.71177  0.77048  1.0000
  C   C1363     1.0  0.32896  0.92425  0.85036  1.0000
  H   H1640     1.0  0.27110  0.87238  0.88590  1.0000
  H   H1641     1.0  0.32682  0.91807  0.86596  1.0000
  C   C1364     1.0  0.32586  0.51508  0.71894  1.0000
  H   H1642     1.0  0.48717  0.92129  0.79530  1.0000
  C   C1365     1.0  0.31147  0.63383  0.64660  1.0000
  H   H1643     1.0  0.27032  0.70255  0.72256  1.0000
  C   C1366     1.0  0.35945  0.67963  0.66799  1.0000
  H   H1644     1.0  0.28585  0.90293  0.74659  1.0000
  H   H1645     1.0  0.29237  0.55341  0.69175  1.0000
  H   H1646     1.0  0.37268  0.81305  0.73999  1.0000
  C   C1367     1.0  0.25781  0.90037  0.90807  1.0000
  H   H1647     1.0  0.48884  0.82347  0.83656  1.0000
  C   C1368     1.0  0.39393  0.82839  0.73734  1.0000
  H   H1648     1.0  0.45504  0.78609  0.77374  1.0000
  H   H1649     1.0  0.25317  0.74736  0.96531  1.0000
  S   S381      1.0  0.25287  0.93356  0.81419  1.0000
  H   H1650     1.0  0.40767  0.78622  0.69047  1.0000
  Fe  Fe191     1.0  0.48811  0.74393  0.72406  1.0000
  H   H1651     1.0  0.25149  0.96815  0.74261  1.0000
  H   H1652     1.0  0.24534  0.77185  0.64261  1.0000
  H   H1653     1.0  0.37742  0.64686  0.65519  1.0000
  C   C1369     1.0  0.25832  0.69763  0.73260  1.0000
  C   C1370     1.0  0.37470  0.64094  0.71804  1.0000
  H   H1654     1.0  0.38245  0.64534  0.72609  1.0000
  N   N88       1.0  0.26538  0.88626  0.76508  1.0000
  S   S382      1.0  0.35669  0.69780  0.71688  1.0000
  S   S383      1.0  0.31755  0.58453  0.71409  1.0000
  H   H1655     1.0  0.32758  0.67438  0.66285  1.0000
  C   C1371     1.0  0.26692  0.86330  0.85617  1.0000
  C   C1372     1.0  0.47280  0.78422  0.86501  1.0000
  C   C1373     1.0  0.36140  0.91887  0.78645  1.0000
  H   H1656     1.0  0.31346  0.93719  0.81816  1.0000
  N   N89       1.0  0.33682  0.90904  0.83907  1.0000
  C   C1374     1.0  0.32258  0.89704  0.84271  1.0000
  C   C1375     1.0  0.39023  0.77042  0.73737  1.0000
  H   H1657     1.0  0.42924  0.79241  0.70856  1.0000
  S   S384      1.0  0.25138  0.81044  0.96743  1.0000
  S   S385      1.0  0.35078  0.74474  0.70451  1.0000
  H   H1658     1.0  0.29659  0.70470  0.67249  1.0000
  C   C1376     1.0  0.24184  0.70044  0.72559  1.0000
  H   H1659     1.0  0.38059  0.77659  0.74934  1.0000
  H   H1660     1.0  0.38445  0.75846  0.73601  1.0000
  H   H1661     1.0  0.35405  0.60429  0.72031  1.0000
  H   H1662     1.0  0.25902  0.84839  0.77893  1.0000
  S   S386      1.0  0.32145  0.72532  0.74124  1.0000
  H   H1663     1.0  0.37377  0.80487  0.70149  1.0000
  Fe  Fe192     1.0  0.34157  0.74496  0.73575  1.0000
  H   H1664     1.0  0.44082  0.72666  0.67994  1.0000
  H   H1665     1.0  0.33859  0.63910  0.79384  1.0000
  H   H1666     1.0  0.47948  0.81869  0.86161  1.0000
  C   C1377     1.0  0.27328  0.84998  0.77784  1.0000
  H   H1667     1.0  0.34993  0.93903  0.76335  1.0000
  H   H1668     1.0  0.36191  0.79734  0.72573  1.0000
  H   H1669     1.0  0.26049  0.69081  0.78778  1.0000
  C   C1378     1.0  0.33212  0.72930  0.66101  1.0000
  H   H1670     1.0  0.25479  0.63241  0.78626  1.0000
  H   H1671     1.0  0.35035  0.89073  0.86194  1.0000
  C   C1379     1.0  0.48161  0.84362  0.80089  1.0000
  C   C1380     1.0  0.25895  0.68883  0.75201  1.0000
  C   C1381     1.0  0.41288  0.82981  0.73057  1.0000
  H   H1672     1.0  0.24584  0.59526  0.77942  1.0000
  H   H1673     1.0  0.35622  0.63794  0.65908  1.0000
  C   C1382     1.0  0.25173  0.65627  0.67220  1.0000
  C   C1383     1.0  0.31086  0.85130  0.77610  1.0000
  H   H1674     1.0  0.33298  0.52148  0.68843  1.0000
  H   H1675     1.0  0.24931  0.83546  0.88139  1.0000
  H   H1676     1.0  0.30313  0.88138  0.76567  1.0000
  H   H1677     1.0  0.29731  0.68430  0.73416  1.0000
  C   C1384     1.0  0.33235  0.66527  0.67599  1.0000
  C   C1385     1.0  0.38730  0.81392  0.73372  1.0000
  H   H1678     1.0  0.37520  0.67766  0.66489  1.0000
  H   H1679     1.0  0.26324  0.90991  0.74061  1.0000
  C   C1386     1.0  0.35878  0.61781  0.71475  1.0000
  C   C1387     1.0  0.27881  0.86806  0.77088  1.0000
  S   S387      1.0  0.28488  0.49492  0.67763  1.0000
  Fe  Fe193     1.0  0.37377  0.71984  0.71378  1.0000
  H   H1680     1.0  0.25531  0.66848  0.70177  1.0000
  S   S388      1.0  0.27533  0.93223  0.85604  1.0000
  C   C1388     1.0  0.35830  0.91115  0.80606  1.0000
  H   H1681     1.0  0.46223  0.73908  0.69226  1.0000
  N   N90       1.0  0.39217  0.78515  0.71945  1.0000
  C   C1389     1.0  0.26916  0.90911  0.89148  1.0000
  C   C1390     1.0  0.34764  0.93337  0.77860  1.0000
  C   C1391     1.0  0.40492  0.77564  0.70413  1.0000
  C   C1392     1.0  0.36167  0.65116  0.65709  1.0000
  C   C1393     1.0  0.33011  0.51047  0.70113  1.0000
  H   H1682     1.0  0.35461  0.68896  0.65492  1.0000
  H   H1683     1.0  0.38434  0.83849  0.74561  1.0000
  C   C1394     1.0  0.26016  0.75565  0.92430  1.0000
  H   H1684     1.0  0.28313  0.66892  0.65363  1.0000
  H   H1685     1.0  0.37216  0.61424  0.73818  1.0000
  C   C1395     1.0  0.28384  0.87603  0.82409  1.0000
  C   C1396     1.0  0.29635  0.84424  0.84076  1.0000
  C   C1397     1.0  0.29769  0.85915  0.82473  1.0000
  C   C1398     1.0  0.24895  0.55831  0.77944  1.0000
  C   C1399     1.0  0.36903  0.62337  0.72483  1.0000
  C   C1400     1.0  0.26864  0.87820  0.83952  1.0000
  H   H1686     1.0  0.35329  0.68799  0.67941  1.0000
  C   C1401     1.0  0.24358  0.63514  0.77852  1.0000
  H   H1687     1.0  0.27813  0.66325  0.68705  1.0000
  C   C1402     1.0  0.27478  0.50542  0.71244  1.0000
  H   H1688     1.0  0.45740  0.78895  0.86455  1.0000
  C   C1403     1.0  0.24216  0.68317  0.76378  1.0000
  C   C1404     1.0  0.32969  0.49210  0.69956  1.0000
  H   H1689     1.0  0.28186  0.81947  0.78877  1.0000
  H   H1690     1.0  0.28506  0.88766  0.81169  1.0000
  H   H1691     1.0  0.30732  0.83120  0.84137  1.0000
  H   H1692     1.0  0.30961  0.85772  0.81288  1.0000
  C   C1405     1.0  0.28847  0.52785  0.68552  1.0000
  H   H1693     1.0  0.24468  0.54620  0.77647  1.0000
  H   H1694     1.0  0.25846  0.76426  0.66129  1.0000
  H   H1695     1.0  0.25029  0.78937  0.65276  1.0000
  C   C1406     1.0  0.47992  0.79186  0.83089  1.0000
  H   H1696     1.0  0.36523  0.90485  0.84358  1.0000
  C   C1407     1.0  0.33065  0.94013  0.79029  1.0000
  C   C1408     1.0  0.30499  0.83384  0.78280  1.0000
  H   H1697     1.0  0.26966  0.75100  0.93471  1.0000
  H   H1698     1.0  0.47685  0.76841  0.86583  1.0000
  H   H1699     1.0  0.48747  0.94341  0.80078  1.0000
  H   H1700     1.0  0.39882  0.76453  0.70145  1.0000
  H   H1701     1.0  0.26683  0.68777  0.68804  1.0000
  H   H1702     1.0  0.48829  0.79945  0.81773  1.0000
  C   C1409     1.0  0.28120  0.84621  0.85626  1.0000
  C   C1410     1.0  0.31231  0.71332  0.64408  1.0000
  H   H1703     1.0  0.32542  0.52958  0.72003  1.0000
  H   H1704     1.0  0.37501  0.66643  0.69676  1.0000
  H   H1705     1.0  0.46440  0.82183  0.84545  1.0000
  S   S389      1.0  0.31124  0.71818  0.69697  1.0000
  C   C1411     1.0  0.31754  0.72010  0.67227  1.0000
  H   H1706     1.0  0.42476  0.79699  0.76499  1.0000
  H   H1707     1.0  0.31906  0.89003  0.85807  1.0000
  H   H1708     1.0  0.46465  0.79786  0.83020  1.0000
  C   C1412     1.0  0.29526  0.62862  0.64508  1.0000
  C   C1413     1.0  0.42527  0.81672  0.72019  1.0000
  H   H1709     1.0  0.30483  0.68994  0.75259  1.0000
  H   H1710     1.0  0.32646  0.65215  0.67929  1.0000
  Fe  Fe194     1.0  0.26125  0.94946  0.83159  1.0000
  C   C1414     1.0  0.30764  0.71213  0.66377  1.0000
  Fe  Fe195     1.0  0.33280  0.72272  0.71085  1.0000
  N   N91       1.0  0.43417  0.76833  0.78071  1.0000
  C   C1415     1.0  0.45409  0.77111  0.77430  1.0000
  C   C1416     1.0  0.42304  0.78199  0.76696  1.0000
  C   C1417     1.0  0.42669  0.77340  0.79964  1.0000
  C   C1418     1.0  0.43228  0.74849  0.78199  1.0000
  C   C1419     1.0  0.44805  0.73363  0.77725  1.0000
  C   C1420     1.0  0.41412  0.74359  0.78799  1.0000
  C   C1421     1.0  0.44567  0.71513  0.77839  1.0000
  C   C1422     1.0  0.41188  0.72504  0.78916  1.0000
  C   C1423     1.0  0.42764  0.71083  0.78437  1.0000
  H   H1711     1.0  0.46038  0.76837  0.75971  1.0000
  C   C1424     1.0  0.26425  0.67365  0.68783  1.0000
  H   H1712     1.0  0.46332  0.76152  0.78416  1.0000
  H   H1713     1.0  0.42776  0.77803  0.75277  1.0000
  H   H1714     1.0  0.42835  0.78805  0.79934  1.0000
  H   H1715     1.0  0.40753  0.78234  0.77173  1.0000
  H   H1716     1.0  0.43423  0.76305  0.81054  1.0000
  C   C1425     1.0  0.28627  0.83317  0.78364  1.0000
  H   H1717     1.0  0.41126  0.77352  0.80477  1.0000
  H   H1718     1.0  0.46236  0.73603  0.77219  1.0000
  H   H1719     1.0  0.40147  0.75412  0.79177  1.0000
  H   H1720     1.0  0.32548  0.85181  0.77538  1.0000
  H   H1721     1.0  0.39782  0.72174  0.79367  1.0000
  H   H1722     1.0  0.42584  0.69655  0.78499  1.0000
  N   N92       1.0  0.27603  0.68560  0.76007  1.0000
  C   C1426     1.0  0.29240  0.69223  0.74594  1.0000
  H   H1723     1.0  0.28100  0.83443  0.86858  1.0000
  N   N93       1.0  0.35336  0.66091  0.67332  1.0000
  N   N94       1.0  0.25163  0.86536  0.87322  1.0000
  H   H1724     1.0  0.24153  0.70735  0.71083  1.0000
  C   C1427     1.0  0.27368  0.89710  0.74616  1.0000
  H   H1725     1.0  0.25866  0.89182  0.83820  1.0000
  H   H1726     1.0  0.28427  0.69444  0.78166  1.0000
  H   H1727     1.0  0.24547  0.89624  0.86825  1.0000
  H   H1728     1.0  0.26498  0.64492  0.67177  1.0000
  H   H1729     1.0  0.25546  0.56643  0.76545  1.0000
  C   C1428     1.0  0.27151  0.69610  0.77568  1.0000
  H   H1730     1.0  0.27864  0.88786  0.73546  1.0000
  H   H1731     1.0  0.27146  0.65893  0.77990  1.0000
  N   N95       1.0  0.25545  0.67526  0.67157  1.0000
  H   H1732     1.0  0.29034  0.61643  0.65505  1.0000
  C   C1429     1.0  0.26969  0.67997  0.65393  1.0000
  H   H1733     1.0  0.28523  0.65621  0.75678  1.0000
  H   H1734     1.0  0.25294  0.77876  0.94832  1.0000
  H   H1735     1.0  0.26955  0.49231  0.71831  1.0000
  C   C1430     1.0  0.47908  0.81545  0.84799  1.0000
  H   H1736     1.0  0.24872  0.87397  0.75353  1.0000
  N   N96       1.0  0.48457  0.79454  0.84813  1.0000
  H   H1737     1.0  0.24955  0.86762  0.90210  1.0000
  C   C1431     1.0  0.25624  0.77543  0.64819  1.0000
  H   H1738     1.0  0.27353  0.69388  0.65276  1.0000
  H   H1739     1.0  0.28327  0.79527  0.64503  1.0000
  H   H1740     1.0  0.47437  0.78675  0.87855  1.0000
  C   C1432     1.0  0.24329  0.78300  0.93809  1.0000
  C   C1433     1.0  0.24309  0.98083  0.73499  1.0000
  H   H1741     1.0  0.24418  0.70930  0.64492  1.0000
  H   H1742     1.0  0.24554  0.65685  0.65989  1.0000
  H   H1743     1.0  0.35825  0.66061  0.64347  1.0000
  H   H1744     1.0  0.31736  0.50524  0.74906  1.0000
  C   C1434     1.0  0.32126  0.50132  0.73530  1.0000
  H   H1745     1.0  0.24171  0.65115  0.68536  1.0000
  H   H1746     1.0  0.24154  0.67630  0.77865  1.0000
  N   N97       1.0  0.24104  0.76629  0.93200  1.0000
  C   C1435     1.0  0.24098  0.92900  0.88050  1.0000
  H   H1747     1.0  0.28246  0.74524  0.64287  1.0000
  H   H1748     1.0  0.64771  0.29893  0.03249  1.0000
  Fe  Fe196     1.0  0.52687  0.28211  0.18311  1.0000
  S   S390      1.0  0.51206  0.26165  0.17820  1.0000
  S   S391      1.0  0.55241  0.29130  0.16208  1.0000
  C   C1436     1.0  0.51711  0.31149  0.28124  1.0000
  Fe  Fe197     1.0  0.51066  0.24892  0.20927  1.0000
  S   S392      1.0  0.52014  0.21689  0.21890  1.0000
  S   S393      1.0  0.52725  0.26812  0.21374  1.0000
  C   C1437     1.0  0.68248  0.13031  0.27010  1.0000
  Fe  Fe198     1.0  0.61896  0.24538  0.08389  1.0000
  S   S394      1.0  0.63416  0.23058  0.05978  1.0000
  S   S395      1.0  0.59177  0.23819  0.10274  1.0000
  Fe  Fe199     1.0  0.65030  0.26632  0.07936  1.0000
  S   S396      1.0  0.66851  0.25332  0.05493  1.0000
  S   S397      1.0  0.65574  0.28864  0.09186  1.0000
  Fe  Fe200     1.0  0.64150  0.25907  0.04433  1.0000
  S   S398      1.0  0.64340  0.27181  0.01287  1.0000
  Fe  Fe201     1.0  0.65972  0.22587  0.07220  1.0000
  S   S399      1.0  0.68000  0.19740  0.07247  1.0000
  S   S400      1.0  0.62383  0.27450  0.06735  1.0000
  S   S401      1.0  0.64406  0.23826  0.09760  1.0000
  N   N98       1.0  0.63006  0.19191  0.24415  1.0000
  S   S402      1.0  0.55446  0.30860  0.28266  1.0000
  C   C1438     1.0  0.50070  0.26035  0.13673  1.0000
  C   C1439     1.0  0.69232  0.40299  0.16621  1.0000
  H   H1749     1.0  0.62675  0.00836  0.25763  1.0000
  S   S403      1.0  0.65912  0.11295  0.19998  1.0000
  S   S404      1.0  0.63001  0.14619  0.17539  1.0000
  Fe  Fe202     1.0  0.62810  0.12067  0.19976  1.0000
  Fe  Fe203     1.0  0.66058  0.13983  0.17714  1.0000
  S   S405      1.0  0.68422  0.13849  0.15147  1.0000
  S   S406      1.0  0.65641  0.15876  0.19754  1.0000
  C   C1440     1.0  0.65927  0.20105  0.98545  1.0000
  S   S407      1.0  0.65187  0.02409  0.16768  1.0000
  H   H1750     1.0  0.52622  0.28749  0.14181  1.0000
  H   H1751     1.0  0.53517  0.30640  0.09890  1.0000
  H   H1752     1.0  0.68514  0.26507  0.00545  1.0000
  H   H1753     1.0  0.69595  0.39954  0.15230  1.0000
  C   C1441     1.0  0.69128  0.42168  0.16885  1.0000
  H   H1754     1.0  0.53068  0.29557  0.23295  1.0000
  H   H1755     1.0  0.70838  0.34944  0.04136  1.0000
  H   H1756     1.0  0.70642  0.19293  0.98618  1.0000
  H   H1757     1.0  0.67554  0.29205  0.98066  1.0000
  H   H1758     1.0  0.66473  0.21386  0.27506  1.0000
  H   H1759     1.0  0.69051  0.37356  0.17933  1.0000
  N   N99       1.0  0.67309  0.04030  0.23507  1.0000
  H   H1760     1.0  0.69952  0.02013  0.22839  1.0000
  H   H1761     1.0  0.68480  0.35015  0.00417  1.0000
  C   C1442     1.0  0.63599  0.26847  0.97989  1.0000
  H   H1762     1.0  0.63588  0.19831  0.21337  1.0000
  H   H1763     1.0  0.69472  0.01748  0.26089  1.0000
  Fe  Fe204     1.0  0.65373  0.43996  0.30626  1.0000
  Fe  Fe205     1.0  0.49893  0.28769  0.22021  1.0000
  H   H1764     1.0  0.69185  0.30521  0.98222  1.0000
  C   C1443     1.0  0.69060  0.03242  0.26185  1.0000
  H   H1765     1.0  0.67754  0.08527  0.26750  1.0000
  H   H1766     1.0  0.67716  0.15645  0.22601  1.0000
  H   H1767     1.0  0.69608  0.17547  0.23361  1.0000
  C   C1444     1.0  0.62335  0.07759  0.19273  1.0000
  C   C1445     1.0  0.64159  0.07620  0.18125  1.0000
  C   C1446     1.0  0.65023  0.05971  0.17364  1.0000
  C   C1447     1.0  0.64084  0.04442  0.17772  1.0000
  C   C1448     1.0  0.62268  0.04582  0.18933  1.0000
  C   C1449     1.0  0.61394  0.06239  0.19669  1.0000
  H   H1768     1.0  0.64893  0.08789  0.17802  1.0000
  H   H1769     1.0  0.66424  0.05875  0.16458  1.0000
  H   H1770     1.0  0.61510  0.03440  0.19215  1.0000
  C   C1450     1.0  0.64023  0.18940  0.25961  1.0000
  C   C1451     1.0  0.67893  0.28745  0.09429  1.0000
  C   C1452     1.0  0.69383  0.27231  0.08969  1.0000
  C   C1453     1.0  0.71228  0.27200  0.09138  1.0000
  C   C1454     1.0  0.71600  0.28701  0.09723  1.0000
  C   C1455     1.0  0.70111  0.30225  0.10163  1.0000
  C   C1456     1.0  0.68258  0.30229  0.10045  1.0000
  H   H1771     1.0  0.69115  0.26081  0.08493  1.0000
  C   C1457     1.0  0.57872  0.01083  0.24504  1.0000
  H   H1772     1.0  0.70383  0.31373  0.10638  1.0000
  H   H1773     1.0  0.67105  0.31394  0.10420  1.0000
  C   C1458     1.0  0.63328  0.26192  0.99971  1.0000
  H   H1774     1.0  0.64490  0.20463  0.99323  1.0000
  H   H1775     1.0  0.73519  0.12654  0.26734  1.0000
  S   S408      1.0  0.49993  0.30364  0.18989  1.0000
  C   C1459     1.0  0.61720  0.23817  0.99736  1.0000
  C   C1460     1.0  0.62355  0.24698  0.00847  1.0000
  S   S409      1.0  0.62156  0.99404  0.20988  1.0000
  H   H1776     1.0  0.72235  0.10739  0.27396  1.0000
  H   H1777     1.0  0.60977  0.22654  0.00416  1.0000
  H   H1778     1.0  0.62091  0.24219  0.02376  1.0000
  C   C1461     1.0  0.68028  0.18146  0.09480  1.0000
  C   C1462     1.0  0.69544  0.16566  0.09639  1.0000
  C   C1463     1.0  0.69637  0.15270  0.11387  1.0000
  C   C1464     1.0  0.68199  0.15518  0.12989  1.0000
  C   C1465     1.0  0.66642  0.17065  0.12829  1.0000
  C   C1466     1.0  0.66571  0.18397  0.11078  1.0000
  H   H1779     1.0  0.70672  0.16359  0.08413  1.0000
  H   H1780     1.0  0.70838  0.14073  0.11499  1.0000
  H   H1781     1.0  0.65512  0.17254  0.14056  1.0000
  H   H1782     1.0  0.65389  0.19606  0.10966  1.0000
  C   C1467     1.0  0.56424  0.27594  0.14628  1.0000
  C   C1468     1.0  0.56003  0.25786  0.14919  1.0000
  C   C1469     1.0  0.56864  0.24629  0.13582  1.0000
  C   C1470     1.0  0.58170  0.25264  0.11957  1.0000
  C   C1471     1.0  0.58648  0.27043  0.11693  1.0000
  C   C1472     1.0  0.57763  0.28213  0.13021  1.0000
  H   H1783     1.0  0.55025  0.25265  0.16179  1.0000
  H   H1784     1.0  0.56522  0.23235  0.13820  1.0000
  H   H1785     1.0  0.59666  0.27538  0.10449  1.0000
  H   H1786     1.0  0.58101  0.29609  0.12790  1.0000
  C   C1473     1.0  0.54496  0.20989  0.21135  1.0000
  C   C1474     1.0  0.55442  0.19074  0.21671  1.0000
  C   C1475     1.0  0.57433  0.18546  0.21118  1.0000
  C   C1476     1.0  0.58478  0.19940  0.20045  1.0000
  C   C1477     1.0  0.57529  0.21841  0.19492  1.0000
  C   C1478     1.0  0.55548  0.22357  0.20017  1.0000
  H   H1787     1.0  0.54635  0.18005  0.22526  1.0000
  H   H1788     1.0  0.58156  0.17072  0.21547  1.0000
  H   H1789     1.0  0.54839  0.23821  0.19558  1.0000
  H   H1790     1.0  0.65596  0.05108  0.21354  1.0000
  H   H1791     1.0  0.66562  0.34981  0.05644  1.0000
  H   H1792     1.0  0.66912  0.32502  0.06820  1.0000
  C   C1479     1.0  0.68942  0.45210  0.22700  1.0000
  C   C1480     1.0  0.70339  0.43817  0.23531  1.0000
  C   C1481     1.0  0.69888  0.42808  0.25415  1.0000
  Fe  Fe206     1.0  0.62538  0.16309  0.19769  1.0000
  H   H1793     1.0  0.71778  0.43533  0.22742  1.0000
  H   H1794     1.0  0.70980  0.41743  0.26056  1.0000
  C   C1482     1.0  0.68994  0.03276  0.22134  1.0000
  C   C1483     1.0  0.52679  0.29970  0.24654  1.0000
  H   H1795     1.0  0.69191  0.46941  0.26155  1.0000
  C   C1484     1.0  0.68922  0.38776  0.18176  1.0000
  Fe  Fe207     1.0  0.63346  0.48089  0.30881  1.0000
  H   H1796     1.0  0.50146  0.31264  0.10128  1.0000
  H   H1797     1.0  0.54457  0.25448  0.10717  1.0000
  H   H1798     1.0  0.50110  0.22831  0.25770  1.0000
  C   C1485     1.0  0.58749  0.99332  0.25597  1.0000
  C   C1486     1.0  0.67601  0.21875  0.01344  1.0000
  C   C1487     1.0  0.60419  0.02622  0.24377  1.0000
  H   H1799     1.0  0.71330  0.47730  0.25986  1.0000
  H   H1800     1.0  0.72383  0.29113  0.98378  1.0000
  H   H1801     1.0  0.69006  0.22146  0.00489  1.0000
  H   H1802     1.0  0.62975  0.39632  0.28264  1.0000
  S   S410      1.0  0.67552  0.42062  0.28892  1.0000
  H   H1803     1.0  0.56569  0.01234  0.24048  1.0000
  H   H1804     1.0  0.73013  0.38124  0.16818  1.0000
  H   H1805     1.0  0.59973  0.06354  0.20532  1.0000
  S   S411      1.0  0.62609  0.45776  0.29899  1.0000
  C   C1488     1.0  0.69991  0.26752  0.00061  1.0000
  S   S412      1.0  0.73286  0.34319  0.09167  1.0000
  H   H1806     1.0  0.66959  0.18313  0.29847  1.0000
  C   C1489     1.0  0.51517  0.29553  0.13340  1.0000
  H   H1807     1.0  0.66527  0.34369  0.98613  1.0000
  N   N100      1.0  0.62847  0.24367  0.15237  1.0000
  C   C1490     1.0  0.62425  0.24393  0.17291  1.0000
  C   C1491     1.0  0.62545  0.26398  0.14160  1.0000
  C   C1492     1.0  0.61446  0.23459  0.14890  1.0000
  C   C1493     1.0  0.64799  0.23250  0.14705  1.0000
  C   C1494     1.0  0.65285  0.21264  0.15551  1.0000
  C   C1495     1.0  0.66273  0.24084  0.13379  1.0000
  C   C1496     1.0  0.67114  0.20176  0.15069  1.0000
  C   C1497     1.0  0.68094  0.22976  0.12899  1.0000
  C   C1498     1.0  0.68509  0.21025  0.13730  1.0000
  H   H1808     1.0  0.63477  0.25016  0.17627  1.0000
  H   H1809     1.0  0.60981  0.25260  0.17736  1.0000
  H   H1810     1.0  0.62452  0.22927  0.18206  1.0000
  H   H1811     1.0  0.63486  0.27209  0.14420  1.0000
  H   H1812     1.0  0.61061  0.27190  0.14582  1.0000
  H   H1813     1.0  0.62800  0.26489  0.12598  1.0000
  H   H1814     1.0  0.61457  0.21975  0.15750  1.0000
  H   H1815     1.0  0.59969  0.24278  0.15268  1.0000
  H   H1816     1.0  0.61714  0.23380  0.13369  1.0000
  H   H1817     1.0  0.64250  0.20531  0.16583  1.0000
  H   H1818     1.0  0.66055  0.25582  0.12662  1.0000
  H   H1819     1.0  0.67446  0.18653  0.15710  1.0000
  H   H1820     1.0  0.69190  0.23635  0.11866  1.0000
  H   H1821     1.0  0.69914  0.20166  0.13331  1.0000
  H   H1822     1.0  0.66493  0.23025  0.00714  1.0000
  H   H1823     1.0  0.61419  0.16938  0.25715  1.0000
  C   C1499     1.0  0.67700  0.33886  0.01107  1.0000
  S   S413      1.0  0.66263  0.12257  0.24784  1.0000
  C   C1500     1.0  0.69847  0.15712  0.26113  1.0000
  H   H1824     1.0  0.67367  0.26154  0.98125  1.0000
  S   S414      1.0  0.73960  0.47180  0.16287  1.0000
  C   C1501     1.0  0.67495  0.06557  0.25191  1.0000
  C   C1502     1.0  0.65599  0.31002  0.02648  1.0000
  H   H1825     1.0  0.67491  0.22052  0.02815  1.0000
  C   C1503     1.0  0.53105  0.23209  0.12432  1.0000
  H   H1826     1.0  0.66716  0.30458  0.05135  1.0000
  C   C1504     1.0  0.66713  0.31345  0.03720  1.0000
  H   H1827     1.0  0.68578  0.02796  0.21028  1.0000
  H   H1828     1.0  0.54295  0.22110  0.11964  1.0000
  C   C1505     1.0  0.52374  0.38651  0.25145  1.0000
  C   C1506     1.0  0.66219  0.02489  0.24443  1.0000
  H   H1829     1.0  0.60438  0.20911  0.23509  1.0000
  C   C1507     1.0  0.49423  0.39569  0.27321  1.0000
  C   C1508     1.0  0.67641  0.45258  0.15222  1.0000
  C   C1509     1.0  0.67785  0.32811  0.02993  1.0000
  C   C1510     1.0  0.53182  0.39878  0.25696  1.0000
  C   C1511     1.0  0.62676  0.38847  0.29726  1.0000
  H   H1830     1.0  0.68945  0.36156  0.02897  1.0000
  N   N101      1.0  0.51717  0.28701  0.11685  1.0000
  S   S415      1.0  0.71097  0.98604  0.30654  1.0000
  H   H1831     1.0  0.73470  0.26780  0.97906  1.0000
  C   C1512     1.0  0.51668  0.26630  0.12349  1.0000
  C   C1513     1.0  0.69349  0.19439  0.98146  1.0000
  C   C1514     1.0  0.53178  0.25152  0.11722  1.0000
  H   H1832     1.0  0.55000  0.98960  0.26525  1.0000
  H   H1833     1.0  0.59735  0.43459  0.30262  1.0000
  H   H1834     1.0  0.51330  0.31597  0.29467  1.0000
  H   H1835     1.0  0.65543  0.15657  0.29790  1.0000
  C   C1515     1.0  0.70118  0.47959  0.25280  1.0000
  H   H1836     1.0  0.72377  0.26015  0.08804  1.0000
  H   H1837     1.0  0.64432  0.40145  0.30661  1.0000
  H   H1838     1.0  0.51669  0.31079  0.12902  1.0000
  C   C1516     1.0  0.66104  0.18505  0.28806  1.0000
  C   C1517     1.0  0.50766  0.30417  0.25535  1.0000
  C   C1518     1.0  0.70137  0.43277  0.13393  1.0000
  H   H1839     1.0  0.66507  0.44612  0.15075  1.0000
  H   H1840     1.0  0.70428  0.44531  0.12220  1.0000
  H   H1841     1.0  0.70688  0.98619  0.21997  1.0000
  H   H1842     1.0  0.61692  0.17644  0.23201  1.0000
  N   N102      1.0  0.69449  0.43819  0.15278  1.0000
  C   C1519     1.0  0.67668  0.33662  0.05960  1.0000
  H   H1843     1.0  0.71302  0.31614  0.05525  1.0000
  H   H1844     1.0  0.61568  0.22129  0.24540  1.0000
  H   H1845     1.0  0.68487  0.33913  0.06898  1.0000
  N   N103      1.0  0.67357  0.19943  0.01357  1.0000
  C   C1520     1.0  0.67941  0.04623  0.24958  1.0000
  C   C1521     1.0  0.65478  0.19674  0.02576  1.0000
  C   C1522     1.0  0.68829  0.18468  0.02272  1.0000
  H   H1846     1.0  0.53723  0.28539  0.09023  1.0000
  H   H1847     1.0  0.60300  0.20332  0.26041  1.0000
  H   H1848     1.0  0.69850  0.04391  0.21392  1.0000
  H   H1849     1.0  0.65428  0.19613  0.04102  1.0000
  H   H1850     1.0  0.65142  0.18317  0.02497  1.0000
  H   H1851     1.0  0.70277  0.18773  0.01707  1.0000
  H   H1852     1.0  0.68577  0.18407  0.03829  1.0000
  H   H1853     1.0  0.68853  0.17007  0.02100  1.0000
  H   H1854     1.0  0.52151  0.34842  0.25254  1.0000
  H   H1855     1.0  0.68471  0.43806  0.19107  1.0000
  C   C1523     1.0  0.58701  0.02699  0.23913  1.0000
  C   C1524     1.0  0.73815  0.38872  0.15535  1.0000
  H   H1856     1.0  0.70101  0.27733  0.00919  1.0000
  S   S416      1.0  0.53001  0.35776  0.29319  1.0000
  N   N104      1.0  0.62955  0.12833  0.12993  1.0000
  C   C1525     1.0  0.62849  0.12422  0.11183  1.0000
  C   C1526     1.0  0.64984  0.12622  0.13033  1.0000
  C   C1527     1.0  0.62199  0.11337  0.14578  1.0000
  C   C1528     1.0  0.61904  0.14823  0.13105  1.0000
  C   C1529     1.0  0.62515  0.16420  0.11749  1.0000
  C   C1530     1.0  0.60246  0.15242  0.14520  1.0000
  C   C1531     1.0  0.61552  0.18311  0.11827  1.0000
  C   C1532     1.0  0.59312  0.17141  0.14600  1.0000
  C   C1533     1.0  0.59964  0.18671  0.13258  1.0000
  H   H1857     1.0  0.63539  0.13382  0.09917  1.0000
  H   H1858     1.0  0.63574  0.10918  0.11068  1.0000
  H   H1859     1.0  0.61344  0.12621  0.11071  1.0000
  H   H1860     1.0  0.65735  0.13553  0.11790  1.0000
  H   H1861     1.0  0.65799  0.11120  0.13038  1.0000
  H   H1862     1.0  0.65129  0.12999  0.14330  1.0000
  H   H1863     1.0  0.60709  0.11321  0.14580  1.0000
  H   H1864     1.0  0.63040  0.09861  0.14481  1.0000
  H   H1865     1.0  0.62250  0.11550  0.15989  1.0000
  H   H1866     1.0  0.63752  0.16223  0.10621  1.0000
  H   H1867     1.0  0.59669  0.14133  0.15618  1.0000
  H   H1868     1.0  0.62042  0.19512  0.10779  1.0000
  H   H1869     1.0  0.58085  0.17432  0.15724  1.0000
  H   H1870     1.0  0.59237  0.20140  0.13324  1.0000
  C   C1534     1.0  0.50481  0.38410  0.25994  1.0000
  C   C1535     1.0  0.61423  0.37599  0.30265  1.0000
  C   C1536     1.0  0.50116  0.29713  0.10708  1.0000
  C   C1537     1.0  0.64793  0.20461  0.26088  1.0000
  H   H1871     1.0  0.64621  0.21831  0.25094  1.0000
  H   H1872     1.0  0.63691  0.16217  0.24197  1.0000
  C   C1538     1.0  0.53627  0.30686  0.27245  1.0000
  C   C1539     1.0  0.69357  0.14082  0.27428  1.0000
  H   H1873     1.0  0.64760  0.06248  0.23340  1.0000
  H   H1874     1.0  0.65999  0.46663  0.23120  1.0000
  H   H1875     1.0  0.58026  0.04009  0.23055  1.0000
  C   C1540     1.0  0.65310  0.17008  0.28766  1.0000
  H   H1876     1.0  0.56820  0.99045  0.14156  1.0000
  C   C1541     1.0  0.70885  0.44740  0.15542  1.0000
  H   H1877     1.0  0.64308  0.20893  0.02179  1.0000
  H   H1878     1.0  0.52791  0.41814  0.27536  1.0000
  C   C1542     1.0  0.61256  0.20708  0.24636  1.0000
  H   H1879     1.0  0.65220  0.44931  0.26476  1.0000
  H   H1880     1.0  0.67989  0.41120  0.21779  1.0000
  H   H1881     1.0  0.70973  0.25352  0.00446  1.0000
  C   C1543     1.0  0.68050  0.43228  0.26493  1.0000
  C   C1544     1.0  0.64295  0.17206  0.27362  1.0000
  C   C1545     1.0  0.64242  0.19779  0.22539  1.0000
  H   H1882     1.0  0.66661  0.07720  0.24326  1.0000
  H   H1883     1.0  0.66831  0.06787  0.21558  1.0000
  H   H1884     1.0  0.64986  0.02973  0.25545  1.0000
  S   S417      1.0  0.62045  0.13827  0.22214  1.0000
  C   C1546     1.0  0.67088  0.45589  0.23757  1.0000
  C   C1547     1.0  0.54104  0.30086  0.25515  1.0000
  H   H1885     1.0  0.67860  0.11777  0.28036  1.0000
  Fe  Fe208     1.0  0.72683  0.46034  0.19323  1.0000
  H   H1886     1.0  0.58616  0.41857  0.28350  1.0000
  C   C1548     1.0  0.51014  0.35669  0.24446  1.0000
  C   C1549     1.0  0.67537  0.19794  0.99366  1.0000
  S   S418      1.0  0.61164  0.09825  0.20196  1.0000
  C   C1550     1.0  0.69225  0.16289  0.24384  1.0000
  H   H1887     1.0  0.71288  0.30934  0.03377  1.0000
  H   H1888     1.0  0.70929  0.34473  0.01886  1.0000
  C   C1551     1.0  0.68141  0.15224  0.23957  1.0000
  H   H1889     1.0  0.54658  0.39967  0.25113  1.0000
  H   H1890     1.0  0.68256  0.37879  0.21229  1.0000
  H   H1891     1.0  0.69691  0.06037  0.28846  1.0000
  C   C1552     1.0  0.73644  0.11119  0.26718  1.0000
  H   H1892     1.0  0.55581  0.29734  0.24825  1.0000
  C   C1553     1.0  0.69946  0.34756  0.03230  1.0000
  Fe  Fe209     1.0  0.64141  0.99639  0.18151  1.0000
  S   S419      1.0  0.71247  0.17055  0.26568  1.0000
  H   H1893     1.0  0.71494  0.42186  0.13354  1.0000
  S   S420      1.0  0.60975  0.19399  0.19420  1.0000
  H   H1894     1.0  0.70379  0.45434  0.16787  1.0000
  H   H1895     1.0  0.49438  0.41593  0.28939  1.0000
  H   H1896     1.0  0.61070  0.03868  0.23879  1.0000
  C   C1554     1.0  0.70365  0.31397  0.04682  1.0000
  H   H1897     1.0  0.51687  0.36386  0.23008  1.0000
  H   H1898     1.0  0.71269  0.45893  0.14291  1.0000
  H   H1899     1.0  0.65636  0.18753  0.22383  1.0000
  C   C1555     1.0  0.68635  0.42418  0.18792  1.0000
  C   C1556     1.0  0.60499  0.99308  0.26039  1.0000
  C   C1557     1.0  0.66648  0.44617  0.25661  1.0000
  C   C1558     1.0  0.67636  0.13604  0.25274  1.0000
  H   H1900     1.0  0.50165  0.29057  0.09506  1.0000
  C   C1559     1.0  0.66073  0.05618  0.22400  1.0000
  H   H1901     1.0  0.58321  0.22927  0.18657  1.0000
  C   C1560     1.0  0.68484  0.39066  0.20029  1.0000
  H   H1902     1.0  0.69712  0.30173  0.05567  1.0000
  H   H1903     1.0  0.63784  0.15958  0.27380  1.0000
  C   C1561     1.0  0.62434  0.17416  0.24389  1.0000
  H   H1904     1.0  0.67094  0.01158  0.25152  1.0000
  H   H1905     1.0  0.64529  0.21234  0.22322  1.0000
  N   N105      1.0  0.68925  0.33163  0.04181  1.0000
  C   C1562     1.0  0.69676  0.03756  0.27566  1.0000
  H   H1906     1.0  0.53289  0.37853  0.24110  1.0000
  C   C1563     1.0  0.68119  0.07050  0.26584  1.0000
  Fe  Fe210     1.0  0.65192  0.13256  0.22038  1.0000
  H   H1907     1.0  0.65678  0.02044  0.23396  1.0000
  S   S421      1.0  0.56179  0.39164  0.29370  1.0000
  C   C1564     1.0  0.53507  0.29076  0.10342  1.0000
  C   C1565     1.0  0.52130  0.40924  0.27066  1.0000
  H   H1908     1.0  0.60729  0.37434  0.29219  1.0000
  H   H1909     1.0  0.71593  0.12240  0.24019  1.0000
  H   H1910     1.0  0.69809  0.13645  0.28775  1.0000
  S   S422      1.0  0.69526  0.46570  0.20388  1.0000
  H   H1911     1.0  0.69075  0.42696  0.13024  1.0000
  C   C1566     1.0  0.68336  0.40887  0.20336  1.0000
  Fe  Fe211     1.0  0.54505  0.32791  0.30369  1.0000
  H   H1912     1.0  0.70722  0.47527  0.23886  1.0000
  H   H1913     1.0  0.51498  0.21171  0.14338  1.0000
  H   H1914     1.0  0.64653  0.31814  0.99998  1.0000
  C   C1567     1.0  0.73985  0.38399  0.13785  1.0000
  Fe  Fe212     1.0  0.72991  0.15761  0.28842  1.0000
  N   N106      1.0  0.70448  0.27580  0.97989  1.0000
  H   H1915     1.0  0.54761  0.28388  0.11017  1.0000
  Fe  Fe213     1.0  0.54685  0.36710  0.30875  1.0000
  C   C1568     1.0  0.61315  0.00927  0.25439  1.0000
  C   C1569     1.0  0.50286  0.30997  0.27279  1.0000
  H   H1916     1.0  0.50116  0.29534  0.14327  1.0000
  C   C1570     1.0  0.58137  0.41587  0.29881  1.0000
  S   S423      1.0  0.73924  0.28594  0.09943  1.0000
  C   C1571     1.0  0.69204  0.05654  0.27769  1.0000
  C   C1572     1.0  0.51533  0.22679  0.13766  1.0000
  C   C1573     1.0  0.65837  0.20232  0.27477  1.0000
  H   H1917     1.0  0.72216  0.43673  0.15758  1.0000
  S   S424      1.0  0.72896  0.36588  0.13692  1.0000
  H   H1918     1.0  0.70530  0.02679  0.28488  1.0000
  H   H1919     1.0  0.67116  0.45842  0.16542  1.0000
  H   H1920     1.0  0.67806  0.46512  0.14010  1.0000
  H   H1921     1.0  0.50349  0.34589  0.24205  1.0000
  C   C1574     1.0  0.62074  0.24413  0.97746  1.0000
  C   C1575     1.0  0.56909  0.40310  0.30772  1.0000
  N   N107      1.0  0.49607  0.37062  0.25505  1.0000
  C   C1576     1.0  0.65528  0.32089  0.00816  1.0000
  H   H1922     1.0  0.49562  0.35174  0.28273  1.0000
  C   C1577     1.0  0.50248  0.40787  0.27861  1.0000
  S   S425      1.0  0.73417  0.17582  0.30617  1.0000
  H   H1923     1.0  0.73252  0.13745  0.23537  1.0000
  S   S426      1.0  0.73873  0.31988  0.99202  1.0000
  C   C1578     1.0  0.73894  0.04952  0.24985  1.0000
  C   C1579     1.0  0.73128  0.12274  0.23523  1.0000
  H   H1924     1.0  0.71921  0.06223  0.23122  1.0000
  C   C1580     1.0  0.66581  0.33525  0.00044  1.0000
  H   H1925     1.0  0.72083  0.09506  0.22936  1.0000
  C   C1581     1.0  0.72956  0.08384  0.23794  1.0000
  C   C1582     1.0  0.72847  0.06494  0.23886  1.0000
  H   H1926     1.0  0.73576  0.12124  0.22014  1.0000
  H   H1927     1.0  0.73788  0.03490  0.25072  1.0000
  C   C1583     1.0  0.50014  0.24090  0.14378  1.0000
  N   N108      1.0  0.68872  0.37421  0.39055  1.0000
  Fe  Fe214     1.0  0.59685  0.35703  0.43032  1.0000
  S   S427      1.0  0.62414  0.36480  0.41246  1.0000
  S   S428      1.0  0.57147  0.37016  0.41641  1.0000
  Fe  Fe215     1.0  0.61482  0.33651  0.46474  1.0000
  S   S429      1.0  0.64350  0.34200  0.44927  1.0000
  S   S430      1.0  0.61280  0.32246  0.49591  1.0000
  Fe  Fe216     1.0  0.62777  0.37159  0.43871  1.0000
  S   S431      1.0  0.64034  0.39492  0.44140  1.0000
  Fe  Fe217     1.0  0.63736  0.33452  0.42462  1.0000
  S   S432      1.0  0.66145  0.31907  0.40526  1.0000
  S   S433      1.0  0.59927  0.36678  0.45560  1.0000
  S   S434      1.0  0.60981  0.32596  0.44088  1.0000
  Fe  Fe218     1.0  0.64547  0.33180  0.60308  1.0000
  S   S435      1.0  0.62509  0.35988  0.59752  1.0000
  C   C1584     1.0  0.69742  0.19683  0.42626  1.0000
  Fe  Fe219     1.0  0.67917  0.34820  0.57986  1.0000
  S   S436      1.0  0.66192  0.37802  0.57234  1.0000
  S   S437      1.0  0.70955  0.33869  0.56612  1.0000
  Fe  Fe220     1.0  0.64707  0.37236  0.60306  1.0000
  S   S438      1.0  0.63490  0.39526  0.62045  1.0000
  Fe  Fe221     1.0  0.64138  0.36323  0.56749  1.0000
  S   S439      1.0  0.62777  0.37615  0.54195  1.0000
  S   S440      1.0  0.66623  0.34366  0.61120  1.0000
  S   S441      1.0  0.65981  0.33393  0.57249  1.0000
  H   H1928     1.0  0.49583  0.30597  0.36190  1.0000
  S   S442      1.0  0.64165  0.42789  0.33664  1.0000
  S   S443      1.0  0.66215  0.46380  0.31317  1.0000
  H   H1929     1.0  0.64004  0.33843  0.35378  1.0000
  Fe  Fe222     1.0  0.50923  0.35336  0.32082  1.0000
  H   H1930     1.0  0.50570  0.33977  0.37298  1.0000
  Fe  Fe223     1.0  0.64698  0.45387  0.34286  1.0000
  S   S444      1.0  0.65905  0.45629  0.36649  1.0000
  H   H1931     1.0  0.71830  0.36108  0.38338  1.0000
  H   H1932     1.0  0.72380  0.26761  0.48895  1.0000
  H   H1933     1.0  0.56145  0.44474  0.37619  1.0000
  H   H1934     1.0  0.70616  0.47158  0.61816  1.0000
  C   C1585     1.0  0.68687  0.39416  0.35701  1.0000
  H   H1935     1.0  0.65166  0.30609  0.52658  1.0000
  H   H1936     1.0  0.71542  0.21777  0.57314  1.0000
  Fe  Fe224     1.0  0.54054  0.33531  0.34315  1.0000
  S   S445      1.0  0.69340  0.23697  0.45198  1.0000
  S   S446      1.0  0.56390  0.33736  0.31710  1.0000
  C   C1586     1.0  0.63068  0.38173  0.32982  1.0000
  C   C1587     1.0  0.73150  0.15488  0.40701  1.0000
  H   H1937     1.0  0.68150  0.34764  0.37498  1.0000
  H   H1938     1.0  0.69201  0.18395  0.39850  1.0000
  C   C1588     1.0  0.59964  0.29909  0.63289  1.0000
  N   N109      1.0  0.61354  0.35907  0.35611  1.0000
  C   C1589     1.0  0.69797  0.27645  0.47837  1.0000
  H   H1939     1.0  0.72326  0.10157  0.35870  1.0000
  H   H1940     1.0  0.73146  0.25049  0.35754  1.0000
  C   C1590     1.0  0.67994  0.19501  0.40385  1.0000
  H   H1941     1.0  0.70533  0.39587  0.38493  1.0000
  C   C1591     1.0  0.72240  0.32156  0.58203  1.0000
  C   C1592     1.0  0.71790  0.32176  0.60146  1.0000
  C   C1593     1.0  0.71318  0.23299  0.57284  1.0000
  H   H1942     1.0  0.70726  0.33333  0.60662  1.0000
  C   C1594     1.0  0.67498  0.43831  0.61069  1.0000
  C   C1595     1.0  0.67057  0.29628  0.41813  1.0000
  C   C1596     1.0  0.65903  0.28736  0.43425  1.0000
  C   C1597     1.0  0.66617  0.26907  0.44442  1.0000
  C   C1598     1.0  0.68504  0.25987  0.43888  1.0000
  C   C1599     1.0  0.69676  0.26887  0.42292  1.0000
  C   C1600     1.0  0.68943  0.28698  0.41238  1.0000
  H   H1943     1.0  0.64449  0.29443  0.43879  1.0000
  H   H1944     1.0  0.65709  0.26216  0.45679  1.0000
  H   H1945     1.0  0.71137  0.26180  0.41859  1.0000
  H   H1946     1.0  0.69844  0.29388  0.39998  1.0000
  C   C1601     1.0  0.61647  0.33743  0.50898  1.0000
  C   C1602     1.0  0.61670  0.33079  0.52846  1.0000
  C   C1603     1.0  0.62053  0.34237  0.53873  1.0000
  C   C1604     1.0  0.62359  0.36086  0.52963  1.0000
  C   C1605     1.0  0.62300  0.36759  0.51029  1.0000
  C   C1606     1.0  0.61974  0.35584  0.49995  1.0000
  H   H1947     1.0  0.61410  0.31658  0.53554  1.0000
  H   H1948     1.0  0.62085  0.33710  0.55370  1.0000
  H   H1949     1.0  0.62537  0.38187  0.50316  1.0000
  H   H1950     1.0  0.61988  0.36107  0.48493  1.0000
  C   C1607     1.0  0.64367  0.41306  0.42106  1.0000
  C   C1608     1.0  0.65502  0.42573  0.42029  1.0000
  C   C1609     1.0  0.65925  0.43940  0.40359  1.0000
  C   C1610     1.0  0.65206  0.44043  0.38769  1.0000
  C   C1611     1.0  0.64003  0.42832  0.38869  1.0000
  C   C1612     1.0  0.63581  0.41461  0.40543  1.0000
  H   H1951     1.0  0.66097  0.42462  0.43246  1.0000
  H   H1952     1.0  0.66852  0.44880  0.40284  1.0000
  H   H1953     1.0  0.63411  0.42940  0.37656  1.0000
  H   H1954     1.0  0.62658  0.40520  0.40622  1.0000
  H   H1955     1.0  0.55335  0.39000  0.33450  1.0000
  H   H1956     1.0  0.59949  0.35741  0.32479  1.0000
  S   S447      1.0  0.73621  0.19445  0.45695  1.0000
  C   C1613     1.0  0.68034  0.36312  0.34658  1.0000
  S   S448      1.0  0.72175  0.02909  0.31710  1.0000
  H   H1957     1.0  0.60012  0.36698  0.38302  1.0000
  C   C1614     1.0  0.72730  0.30700  0.61423  1.0000
  N   N110      1.0  0.69069  0.26675  0.60714  1.0000
  S   S449      1.0  0.58881  0.43327  0.34329  1.0000
  H   H1958     1.0  0.67240  0.36860  0.41937  1.0000
  H   H1959     1.0  0.64081  0.47964  0.63307  1.0000
  C   C1615     1.0  0.72690  0.06489  0.31505  1.0000
  C   C1616     1.0  0.55385  0.33486  0.38425  1.0000
  C   C1617     1.0  0.56362  0.32552  0.39907  1.0000
  C   C1618     1.0  0.56938  0.33620  0.40884  1.0000
  C   C1619     1.0  0.56493  0.35630  0.40416  1.0000
  C   C1620     1.0  0.55507  0.36565  0.38940  1.0000
  C   C1621     1.0  0.54974  0.35497  0.37932  1.0000
  H   H1960     1.0  0.56680  0.30997  0.40299  1.0000
  H   H1961     1.0  0.57687  0.32888  0.42028  1.0000
  H   H1962     1.0  0.55158  0.38120  0.38570  1.0000
  H   H1963     1.0  0.54220  0.36232  0.36796  1.0000
  H   H1964     1.0  0.69877  0.30300  0.53580  1.0000
  C   C1622     1.0  0.70054  0.25982  0.58943  1.0000
  H   H1965     1.0  0.67997  0.40406  0.39222  1.0000
  S   S450      1.0  0.61856  0.47203  0.33909  1.0000
  H   H1966     1.0  0.70859  0.04378  0.36940  1.0000
  C   C1623     1.0  0.65589  0.44341  0.60952  1.0000
  H   H1967     1.0  0.68409  0.42619  0.60496  1.0000
  C   C1624     1.0  0.68479  0.39575  0.33847  1.0000
  H   H1968     1.0  0.57966  0.41070  0.38182  1.0000
  C   C1625     1.0  0.70524  0.35836  0.39412  1.0000
  H   H1969     1.0  0.65026  0.43529  0.60286  1.0000
  H   H1970     1.0  0.65869  0.38012  0.40136  1.0000
  C   C1626     1.0  0.67029  0.33487  0.50767  1.0000
  S   S451      1.0  0.63600  0.30459  0.61930  1.0000
  N   N111      1.0  0.57389  0.42998  0.40079  1.0000
  C   C1627     1.0  0.55564  0.42395  0.41067  1.0000
  C   C1628     1.0  0.56951  0.44731  0.38566  1.0000
  C   C1629     1.0  0.58333  0.43328  0.41453  1.0000
  C   C1630     1.0  0.59181  0.44944  0.41082  1.0000
  C   C1631     1.0  0.58541  0.41944  0.43167  1.0000
  H   H1971     1.0  0.68565  0.40913  0.32800  1.0000
  H   H1972     1.0  0.59658  0.41097  0.45737  1.0000
  H   H1973     1.0  0.67993  0.38178  0.31880  1.0000
  H   H1974     1.0  0.54633  0.43436  0.41932  1.0000
  H   H1975     1.0  0.54768  0.42273  0.40041  1.0000
  H   H1976     1.0  0.55766  0.40946  0.42019  1.0000
  H   H1977     1.0  0.56082  0.45980  0.39183  1.0000
  H   H1978     1.0  0.58034  0.40624  0.43500  1.0000
  C   C1632     1.0  0.72851  0.15589  0.37495  1.0000
  C   C1633     1.0  0.72575  0.22226  0.37046  1.0000
  H   H1979     1.0  0.59853  0.33752  0.37502  1.0000
  C   C1634     1.0  0.73047  0.18156  0.63761  1.0000
  C   C1635     1.0  0.70637  0.25133  0.37977  1.0000
  H   H1980     1.0  0.71763  0.19606  0.38596  1.0000
  C   C1636     1.0  0.72714  0.06232  0.36838  1.0000
  C   C1637     1.0  0.67048  0.46380  0.62800  1.0000
  H   H1981     1.0  0.66911  0.29282  0.54044  1.0000
  H   H1982     1.0  0.58262  0.45137  0.37592  1.0000
  C   C1638     1.0  0.58143  0.42173  0.32938  1.0000
  C   C1639     1.0  0.69409  0.48278  0.62327  1.0000
  H   H1983     1.0  0.67898  0.29291  0.61782  1.0000
  H   H1984     1.0  0.62828  0.34002  0.37783  1.0000
  H   H1985     1.0  0.65741  0.33551  0.50247  1.0000
  C   C1640     1.0  0.70254  0.25801  0.62173  1.0000
  C   C1641     1.0  0.70298  0.24016  0.58897  1.0000
  Fe  Fe225     1.0  0.73337  0.99987  0.30954  1.0000
  H   H1986     1.0  0.72369  0.30707  0.62926  1.0000
  C   C1642     1.0  0.68716  0.28797  0.60455  1.0000
  H   H1987     1.0  0.71050  0.14365  0.40055  1.0000
  H   H1988     1.0  0.67878  0.29542  0.59332  1.0000
  H   H1989     1.0  0.70887  0.28667  0.57202  1.0000
  H   H1990     1.0  0.71389  0.28951  0.51060  1.0000
  H   H1991     1.0  0.66992  0.18681  0.41472  1.0000
  C   C1643     1.0  0.68152  0.38031  0.33325  1.0000
  H   H1992     1.0  0.67277  0.20303  0.39179  1.0000
  N   N112      1.0  0.57015  0.36657  0.59030  1.0000
  C   C1644     1.0  0.58127  0.36848  0.57043  1.0000
  C   C1645     1.0  0.57451  0.34592  0.59977  1.0000
  C   C1646     1.0  0.54970  0.37225  0.58956  1.0000
  C   C1647     1.0  0.57440  0.37851  0.60123  1.0000
  C   C1648     1.0  0.56647  0.37675  0.62100  1.0000
  C   C1649     1.0  0.58632  0.39209  0.59281  1.0000
  H   H1993     1.0  0.66305  0.26652  0.60342  1.0000
  C   C1650     1.0  0.59087  0.40227  0.60385  1.0000
  C   C1651     1.0  0.58343  0.39961  0.62334  1.0000
  H   H1994     1.0  0.59680  0.36440  0.57020  1.0000
  H   H1995     1.0  0.57831  0.35895  0.56267  1.0000
  H   H1996     1.0  0.57799  0.38337  0.56187  1.0000
  H   H1997     1.0  0.58921  0.34157  0.60254  1.0000
  H   H1998     1.0  0.57331  0.33632  0.59105  1.0000
  H   H1999     1.0  0.56461  0.34247  0.61360  1.0000
  H   H2000     1.0  0.54578  0.38777  0.58288  1.0000
  H   H2001     1.0  0.54595  0.36379  0.58122  1.0000
  H   H2002     1.0  0.54049  0.36984  0.60403  1.0000
  C   C1652     1.0  0.64866  0.39936  0.63435  1.0000
  H   H2003     1.0  0.59303  0.39454  0.57789  1.0000
  H   H2004     1.0  0.70812  0.35657  0.40853  1.0000
  H   H2005     1.0  0.60077  0.41181  0.59738  1.0000
  C   C1653     1.0  0.70994  0.27718  0.48967  1.0000
  H   H2006     1.0  0.66927  0.35500  0.40435  1.0000
  C   C1654     1.0  0.60979  0.36634  0.32162  1.0000
  C   C1655     1.0  0.72151  0.24503  0.55681  1.0000
  C   C1656     1.0  0.71387  0.21146  0.38444  1.0000
  C   C1657     1.0  0.67158  0.36924  0.40446  1.0000
  H   H2007     1.0  0.65951  0.22907  0.41168  1.0000
  C   C1658     1.0  0.65097  0.46845  0.62683  1.0000
  C   C1659     1.0  0.64390  0.45834  0.61768  1.0000
  C   C1660     1.0  0.60124  0.45175  0.42381  1.0000
  H   H2008     1.0  0.66373  0.26726  0.62706  1.0000
  C   C1661     1.0  0.68249  0.36130  0.36515  1.0000
  C   C1662     1.0  0.69781  0.22027  0.39659  1.0000
  H   H2009     1.0  0.61173  0.38469  0.36601  1.0000
  C   C1663     1.0  0.68221  0.44827  0.61982  1.0000
  C   C1664     1.0  0.69332  0.31683  0.52649  1.0000
  Fe  Fe226     1.0  0.72452  0.22493  0.44342  1.0000
  H   H2010     1.0  0.49789  0.32141  0.40523  1.0000
  H   H2011     1.0  0.69700  0.44342  0.62077  1.0000
  H   H2012     1.0  0.70204  0.20633  0.43277  1.0000
  C   C1665     1.0  0.60340  0.37368  0.36760  1.0000
  H   H2013     1.0  0.63702  0.38487  0.33986  1.0000
  H   H2014     1.0  0.68771  0.32741  0.53592  1.0000
  C   C1666     1.0  0.68571  0.30230  0.50354  1.0000
  H   H2015     1.0  0.65943  0.30934  0.49273  1.0000
  H   H2016     1.0  0.71157  0.06861  0.31898  1.0000
  C   C1667     1.0  0.69438  0.24063  0.39382  1.0000
  C   C1668     1.0  0.69211  0.39171  0.39431  1.0000
  H   H2017     1.0  0.67056  0.28758  0.47092  1.0000
  C   C1669     1.0  0.66344  0.30741  0.53246  1.0000
  H   H2018     1.0  0.70250  0.26643  0.46891  1.0000
  C   C1670     1.0  0.61233  0.31083  0.63090  1.0000
  H   H2019     1.0  0.59175  0.46026  0.39779  1.0000
  S   S452      1.0  0.71704  0.14998  0.36005  1.0000
  S   S453      1.0  0.72578  0.13276  0.31299  1.0000
  H   H2020     1.0  0.56354  0.40705  0.35349  1.0000
  H   H2021     1.0  0.68912  0.40685  0.36002  1.0000
  C   C1671     1.0  0.63128  0.34858  0.36297  1.0000
  H   H2022     1.0  0.59998  0.41892  0.38287  1.0000
  Fe  Fe227     1.0  0.61429  0.44695  0.32997  1.0000
  C   C1672     1.0  0.58040  0.30478  0.64096  1.0000
  C   C1673     1.0  0.73769  0.03175  0.35874  1.0000
  C   C1674     1.0  0.73759  0.07881  0.31243  1.0000
  S   S454      1.0  0.52341  0.32274  0.33057  1.0000
  C   C1675     1.0  0.56880  0.40930  0.33827  1.0000
  C   C1676     1.0  0.60131  0.34493  0.35975  1.0000
  H   H2023     1.0  0.72811  0.08593  0.39114  1.0000
  C   C1677     1.0  0.67998  0.28835  0.47951  1.0000
  H   H2024     1.0  0.59061  0.40113  0.40208  1.0000
  H   H2025     1.0  0.70533  0.24201  0.62493  1.0000
  C   C1678     1.0  0.59473  0.42197  0.44459  1.0000
  H   H2026     1.0  0.60802  0.33354  0.35139  1.0000
  N   N113      1.0  0.68602  0.20831  0.41186  1.0000
  C   C1679     1.0  0.70922  0.27176  0.57279  1.0000
  H   H2027     1.0  0.73039  0.09313  0.31415  1.0000
  C   C1680     1.0  0.61806  0.36881  0.33581  1.0000
  H   H2028     1.0  0.67458  0.38081  0.62359  1.0000
  C   C1681     1.0  0.57110  0.38705  0.63184  1.0000
  C   C1682     1.0  0.56291  0.39972  0.32752  1.0000
  N   N114      1.0  0.67864  0.47436  0.63723  1.0000
  C   C1683     1.0  0.72312  0.04571  0.36601  1.0000
  H   H2029     1.0  0.51211  0.30686  0.37563  1.0000
  C   C1684     1.0  0.68600  0.37671  0.37092  1.0000
  C   C1685     1.0  0.67195  0.26113  0.61445  1.0000
  H   H2030     1.0  0.65698  0.31690  0.54283  1.0000
  S   S455      1.0  0.54667  0.32106  0.37240  1.0000
  H   H2031     1.0  0.73574  0.00625  0.62765  1.0000
  H   H2032     1.0  0.70063  0.29316  0.60087  1.0000
  H   H2033     1.0  0.58970  0.38145  0.36330  1.0000
  C   C1686     1.0  0.73589  0.04617  0.31276  1.0000
  H   H2034     1.0  0.70291  0.34422  0.39358  1.0000
  C   C1687     1.0  0.71964  0.26432  0.55682  1.0000
  H   H2035     1.0  0.49475  0.29257  0.38596  1.0000
  H   H2036     1.0  0.67318  0.24533  0.61920  1.0000
  H   H2037     1.0  0.68274  0.24865  0.40253  1.0000
  C   C1688     1.0  0.72204  0.24217  0.36816  1.0000
  H   H2038     1.0  0.58741  0.40715  0.63192  1.0000
  H   H2039     1.0  0.58709  0.35201  0.35627  1.0000
  H   H2040     1.0  0.70364  0.26681  0.37816  1.0000
  S   S456      1.0  0.52450  0.36574  0.33564  1.0000
  H   H2041     1.0  0.62894  0.46184  0.61720  1.0000
  H   H2042     1.0  0.66559  0.34508  0.51749  1.0000
  H   H2043     1.0  0.69359  0.38960  0.40930  1.0000
  H   H2044     1.0  0.70544  0.32188  0.51572  1.0000
  C   C1689     1.0  0.60260  0.43810  0.44069  1.0000
  H   H2045     1.0  0.68926  0.18744  0.43805  1.0000
  H   H2046     1.0  0.67198  0.22896  0.42958  1.0000
  H   H2047     1.0  0.68077  0.34071  0.49527  1.0000
  C   C1690     1.0  0.58659  0.41450  0.39151  1.0000
  H   H2048     1.0  0.70460  0.17565  0.63487  1.0000
  C   C1691     1.0  0.67382  0.30097  0.49196  1.0000
  H   H2049     1.0  0.64013  0.35842  0.36333  1.0000
  H   H2050     1.0  0.73445  0.01917  0.35636  1.0000
  H   H2051     1.0  0.71056  0.18743  0.42003  1.0000
  C   C1692     1.0  0.70400  0.28988  0.50210  1.0000
  H   H2052     1.0  0.69785  0.22990  0.60139  1.0000
  Fe  Fe228     1.0  0.73326  0.14983  0.32994  1.0000
  H   H2053     1.0  0.61565  0.33704  0.63607  1.0000
  N   N115      1.0  0.67850  0.31513  0.51729  1.0000
  C   C1693     1.0  0.66855  0.21975  0.42182  1.0000
  H   H2054     1.0  0.71665  0.26220  0.61683  1.0000
  H   H2055     1.0  0.61043  0.43956  0.45047  1.0000
  H   H2056     1.0  0.65973  0.21039  0.43287  1.0000
  H   H2057     1.0  0.72715  0.27329  0.54473  1.0000
  H   H2058     1.0  0.69572  0.26275  0.63536  1.0000
  H   H2059     1.0  0.71531  0.07280  0.37390  1.0000
  H   H2060     1.0  0.73011  0.23919  0.54467  1.0000
  C   C1694     1.0  0.73889  0.10030  0.35412  1.0000
  C   C1695     1.0  0.72223  0.15099  0.39471  1.0000
  S   S457      1.0  0.73540  0.19360  0.61370  1.0000
  C   C1696     1.0  0.60589  0.32794  0.63753  1.0000
  H   H2061     1.0  0.55695  0.36706  0.62834  1.0000
  C   C1697     1.0  0.49707  0.30648  0.37634  1.0000
  C   C1698     1.0  0.73662  0.30689  0.57533  1.0000
  H   H2062     1.0  0.67789  0.35108  0.34245  1.0000
  H   H2063     1.0  0.73809  0.21504  0.36164  1.0000
  H   H2064     1.0  0.60799  0.46390  0.42054  1.0000
  C   C1699     1.0  0.66785  0.39049  0.63320  1.0000
  H   H2065     1.0  0.60455  0.28592  0.62767  1.0000
  H   H2066     1.0  0.72714  0.15022  0.42227  1.0000
  H   H2067     1.0  0.71850  0.98676  0.61976  1.0000
  H   H2068     1.0  0.64376  0.48417  0.39145  1.0000
  H   H2069     1.0  0.74025  0.30674  0.56031  1.0000
  S   S458      1.0  0.73933  0.22185  0.41372  1.0000
  C   C1700     1.0  0.63494  0.39136  0.31082  1.0000
  C   C1701     1.0  0.58776  0.42493  0.30963  1.0000
  C   C1702     1.0  0.49082  0.34080  0.37178  1.0000
  H   H2070     1.0  0.49087  0.34307  0.35637  1.0000
  H   H2071     1.0  0.57046  0.29600  0.64195  1.0000
  S   S459      1.0  0.52547  0.33823  0.70631  1.0000
  Fe  Fe229     1.0  0.54942  0.38214  0.68825  1.0000
  S   S460      1.0  0.56630  0.35201  0.69006  1.0000
  S   S461      1.0  0.56498  0.40642  0.67574  1.0000
  Fe  Fe230     1.0  0.54380  0.34733  0.67793  1.0000
  H   H2072     1.0  0.69247  0.29986  0.95984  1.0000
  Fe  Fe231     1.0  0.54655  0.34588  0.71813  1.0000
  C   C1703     1.0  0.64776  0.22749  0.84401  1.0000
  S   S462      1.0  0.52844  0.37815  0.67347  1.0000
  Fe  Fe232     1.0  0.66775  0.43208  0.73321  1.0000
  S   S463      1.0  0.68142  0.44576  0.70394  1.0000
  S   S464      1.0  0.68115  0.42238  0.75911  1.0000
  Fe  Fe233     1.0  0.63046  0.43623  0.72134  1.0000
  S   S465      1.0  0.64086  0.45098  0.69128  1.0000
  S   S466      1.0  0.60187  0.42810  0.73259  1.0000
  Fe  Fe234     1.0  0.66740  0.42820  0.69343  1.0000
  S   S467      1.0  0.68353  0.41219  0.67012  1.0000
  Fe  Fe235     1.0  0.65379  0.46724  0.70447  1.0000
  C   C1704     1.0  0.64790  0.03110  0.75928  1.0000
  S   S468      1.0  0.65624  0.41240  0.72276  1.0000
  S   S469      1.0  0.64084  0.45467  0.73449  1.0000
  Fe  Fe236     1.0  0.52279  0.23266  0.81780  1.0000
  S   S470      1.0  0.55034  0.21969  0.80046  1.0000
  S   S471      1.0  0.69804  0.38065  0.91991  1.0000
  S   S472      1.0  0.52357  0.26024  0.82451  1.0000
  Fe  Fe237     1.0  0.61800  0.25467  0.89183  1.0000
  S   S473      1.0  0.64817  0.25777  0.87951  1.0000
  S   S474      1.0  0.60203  0.25987  0.86824  1.0000
  Fe  Fe238     1.0  0.65580  0.22934  0.89901  1.0000
  S   S475      1.0  0.67833  0.20689  0.88594  1.0000
  Fe  Fe239     1.0  0.64583  0.27072  0.90419  1.0000
  S   S476      1.0  0.65505  0.29808  0.90218  1.0000
  Fe  Fe240     1.0  0.61561  0.13275  0.83857  1.0000
  S   S477      1.0  0.63138  0.10821  0.85749  1.0000
  S   S478      1.0  0.58430  0.13603  0.84152  1.0000
  Fe  Fe241     1.0  0.65084  0.14876  0.81849  1.0000
  S   S479      1.0  0.66963  0.12553  0.83557  1.0000
  S   S480      1.0  0.66286  0.17118  0.79496  1.0000
  Fe  Fe242     1.0  0.65366  0.10584  0.83090  1.0000
  S   S481      1.0  0.66959  0.07806  0.82207  1.0000
  Fe  Fe243     1.0  0.64554  0.13046  0.86024  1.0000
  S   S482      1.0  0.64790  0.13348  0.88872  1.0000
  S   S483      1.0  0.63674  0.12875  0.81170  1.0000
  S   S484      1.0  0.62783  0.15527  0.84348  1.0000
  H   H2073     1.0  0.66845  0.46165  0.81638  1.0000
  S   S485      1.0  0.61633  0.03447  0.80309  1.0000
  C   C1705     1.0  0.68387  0.40784  0.89166  1.0000
  H   H2074     1.0  0.63097  0.25460  0.82101  1.0000
  C   C1706     1.0  0.71808  0.40148  0.88769  1.0000
  S   S486      1.0  0.71710  0.33117  0.94741  1.0000
  H   H2075     1.0  0.57590  0.40358  0.73871  1.0000
  H   H2076     1.0  0.67018  0.40512  0.89985  1.0000
  H   H2077     1.0  0.56178  0.39438  0.71663  1.0000
  C   C1707     1.0  0.61421  0.37062  0.69924  1.0000
  S   S487      1.0  0.61434  0.23179  0.96360  1.0000
  H   H2078     1.0  0.53784  0.25505  0.90618  1.0000
  C   C1708     1.0  0.68770  0.16432  0.78937  1.0000
  C   C1709     1.0  0.69707  0.16546  0.77032  1.0000
  H   H2079     1.0  0.62323  0.01306  0.89271  1.0000
  C   C1710     1.0  0.69726  0.07001  0.76815  1.0000
  H   H2080     1.0  0.67819  0.13500  0.72387  1.0000
  C   C1711     1.0  0.69815  0.15687  0.80383  1.0000
  H   H2081     1.0  0.68905  0.17132  0.75910  1.0000
  C   C1712     1.0  0.65429  0.12128  0.75569  1.0000
  C   C1713     1.0  0.50414  0.32629  0.77452  1.0000
  H   H2082     1.0  0.69104  0.15640  0.81854  1.0000
  C   C1714     1.0  0.65495  0.06607  0.81641  1.0000
  C   C1715     1.0  0.66200  0.04724  0.81356  1.0000
  C   C1716     1.0  0.65034  0.03746  0.80924  1.0000
  C   C1717     1.0  0.63167  0.04658  0.80753  1.0000
  C   C1718     1.0  0.62496  0.06567  0.80955  1.0000
  C   C1719     1.0  0.63641  0.07528  0.81434  1.0000
  H   H2083     1.0  0.67639  0.04010  0.81496  1.0000
  H   H2084     1.0  0.65586  0.02297  0.80705  1.0000
  H   H2085     1.0  0.61069  0.07293  0.80783  1.0000
  H   H2086     1.0  0.63079  0.08977  0.81652  1.0000
  C   C1720     1.0  0.67706  0.29478  0.90830  1.0000
  C   C1721     1.0  0.69175  0.27919  0.90441  1.0000
  C   C1722     1.0  0.70990  0.27805  0.90742  1.0000
  C   C1723     1.0  0.71330  0.29225  0.91467  1.0000
  C   C1724     1.0  0.69846  0.30755  0.91900  1.0000
  C   C1725     1.0  0.68039  0.30882  0.91579  1.0000
  H   H2087     1.0  0.68927  0.26838  0.89848  1.0000
  H   H2088     1.0  0.66538  0.14311  0.77265  1.0000
  H   H2089     1.0  0.70096  0.31874  0.92424  1.0000
  H   H2090     1.0  0.66902  0.32087  0.91882  1.0000
  C   C1726     1.0  0.67013  0.18629  0.88693  1.0000
  C   C1727     1.0  0.65767  0.17873  0.90310  1.0000
  C   C1728     1.0  0.65134  0.16219  0.90373  1.0000
  C   C1729     1.0  0.65668  0.15370  0.88786  1.0000
  C   C1730     1.0  0.66894  0.16141  0.87158  1.0000
  C   C1731     1.0  0.67603  0.17739  0.87131  1.0000
  C   C1732     1.0  0.68717  0.10401  0.75318  1.0000
  H   H2091     1.0  0.67333  0.15476  0.85939  1.0000
  H   H2092     1.0  0.68588  0.18305  0.85889  1.0000
  C   C1733     1.0  0.54112  0.25230  0.87730  1.0000
  C   C1734     1.0  0.54750  0.25465  0.89257  1.0000
  C   C1735     1.0  0.56634  0.25658  0.89025  1.0000
  C   C1736     1.0  0.57874  0.25632  0.87258  1.0000
  C   C1737     1.0  0.57237  0.25379  0.85748  1.0000
  C   C1738     1.0  0.55372  0.25166  0.85985  1.0000
  C   C1739     1.0  0.71610  0.39134  0.83173  1.0000
  H   H2093     1.0  0.57115  0.25859  0.90198  1.0000
  H   H2094     1.0  0.58195  0.25342  0.84389  1.0000
  H   H2095     1.0  0.54919  0.24934  0.84819  1.0000
  C   C1740     1.0  0.55934  0.19557  0.81010  1.0000
  C   C1741     1.0  0.57896  0.18830  0.80610  1.0000
  C   C1742     1.0  0.58668  0.16985  0.81551  1.0000
  C   C1743     1.0  0.57470  0.15833  0.82833  1.0000
  C   C1744     1.0  0.55499  0.16512  0.83143  1.0000
  C   C1745     1.0  0.54731  0.18385  0.82252  1.0000
  H   H2096     1.0  0.58827  0.19711  0.79606  1.0000
  H   H2097     1.0  0.60189  0.16457  0.81283  1.0000
  H   H2098     1.0  0.54568  0.15607  0.84108  1.0000
  H   H2099     1.0  0.53210  0.18923  0.82527  1.0000
  C   C1746     1.0  0.70167  0.43062  0.75781  1.0000
  C   C1747     1.0  0.70730  0.42933  0.77473  1.0000
  C   C1748     1.0  0.71196  0.43913  0.74045  1.0000
  H   H2100     1.0  0.69934  0.42281  0.78818  1.0000
  H   H2101     1.0  0.70788  0.44001  0.72731  1.0000
  H   H2102     1.0  0.51954  0.34709  0.75505  1.0000
  S   S488      1.0  0.72773  0.47435  0.80078  1.0000
  C   C1749     1.0  0.68488  0.42130  0.87436  1.0000
  Fe  Fe244     1.0  0.51172  0.36941  0.70295  1.0000
  H   H2103     1.0  0.64424  0.13546  0.75571  1.0000
  H   H2104     1.0  0.67492  0.46272  0.76572  1.0000
  C   C1750     1.0  0.60040  0.06541  0.86692  1.0000
  H   H2105     1.0  0.59723  0.37265  0.67048  1.0000
  H   H2106     1.0  0.60825  0.06475  0.87747  1.0000
  H   H2107     1.0  0.66851  0.15239  0.73850  1.0000
  S   S489      1.0  0.65657  0.24251  0.92268  1.0000
  H   H2108     1.0  0.61877  0.36836  0.65327  1.0000
  C   C1751     1.0  0.67925  0.19553  0.95527  1.0000
  H   H2109     1.0  0.63240  0.30361  0.66364  1.0000
  N   N116      1.0  0.62234  0.36162  0.68246  1.0000
  H   H2110     1.0  0.58784  0.03975  0.84173  1.0000
  C   C1752     1.0  0.52167  0.29332  0.77955  1.0000
  C   C1753     1.0  0.53787  0.29919  0.76739  1.0000
  H   H2111     1.0  0.52214  0.27824  0.78581  1.0000
  H   H2112     1.0  0.55083  0.28865  0.76445  1.0000
  C   C1754     1.0  0.61252  0.37329  0.66687  1.0000
  S   S490      1.0  0.53116  0.37648  0.71750  1.0000
  H   H2113     1.0  0.52815  0.43362  0.67038  1.0000
  H   H2114     1.0  0.73087  0.39393  0.89296  1.0000
  H   H2115     1.0  0.68547  0.99844  0.72481  1.0000
  C   C1755     1.0  0.67769  0.47588  0.76824  1.0000
  C   C1756     1.0  0.66182  0.05915  0.74907  1.0000
  H   H2116     1.0  0.64419  0.46753  0.78865  1.0000
  C   C1757     1.0  0.57622  0.41130  0.69143  1.0000
  C   C1758     1.0  0.58929  0.42339  0.68433  1.0000
  C   C1759     1.0  0.59773  0.42815  0.69681  1.0000
  C   C1760     1.0  0.59275  0.42120  0.71647  1.0000
  C   C1761     1.0  0.57974  0.40903  0.72352  1.0000
  C   C1762     1.0  0.57171  0.40385  0.71102  1.0000
  H   H2117     1.0  0.59282  0.42921  0.66919  1.0000
  H   H2118     1.0  0.60761  0.43767  0.69126  1.0000
  H   H2119     1.0  0.63413  0.02942  0.84948  1.0000
  C   C1763     1.0  0.62619  0.20650  0.85982  1.0000
  C   C1764     1.0  0.73221  0.06757  0.79861  1.0000
  H   H2120     1.0  0.50055  0.45987  0.72743  1.0000
  H   H2121     1.0  0.62085  0.36242  0.71160  1.0000
  H   H2122     1.0  0.72138  0.26629  0.90386  1.0000
  C   C1765     1.0  0.60856  0.25643  0.80759  1.0000
  H   H2123     1.0  0.70909  0.99922  0.71226  1.0000
  H   H2124     1.0  0.71854  0.09945  0.82849  1.0000
  C   C1766     1.0  0.68404  0.24511  0.95981  1.0000
  H   H2125     1.0  0.61534  0.21741  0.86690  1.0000
  C   C1767     1.0  0.64278  0.36256  0.67662  1.0000
  H   H2126     1.0  0.58559  0.25477  0.79577  1.0000
  C   C1768     1.0  0.65060  0.41566  0.65804  1.0000
  H   H2127     1.0  0.70700  0.00574  0.76119  1.0000
  C   C1769     1.0  0.57410  0.18644  0.88714  1.0000
  H   H2128     1.0  0.67112  0.11856  0.78466  1.0000
  C   C1770     1.0  0.69048  0.29399  0.97549  1.0000
  C   C1771     1.0  0.70889  0.37955  0.84879  1.0000
  H   H2129     1.0  0.61372  0.18624  0.91318  1.0000
  H   H2130     1.0  0.64499  0.37716  0.67571  1.0000
  H   H2131     1.0  0.57236  0.07194  0.82760  1.0000
  H   H2132     1.0  0.60884  0.27118  0.80018  1.0000
  H   H2133     1.0  0.66652  0.36124  0.86429  1.0000
  H   H2134     1.0  0.54492  0.16836  0.87030  1.0000
  C   C1772     1.0  0.67545  0.46105  0.80133  1.0000
  H   H2135     1.0  0.54328  0.44276  0.68984  1.0000
  H   H2136     1.0  0.70931  0.18988  0.95370  1.0000
  H   H2137     1.0  0.63635  0.19908  0.86946  1.0000
  H   H2138     1.0  0.54544  0.33778  0.81096  1.0000
  C   C1773     1.0  0.71696  0.24308  0.94429  1.0000
  H   H2139     1.0  0.58458  0.22155  0.81293  1.0000
  H   H2140     1.0  0.56158  0.27657  0.81985  1.0000
  H   H2141     1.0  0.67252  0.08849  0.77995  1.0000
  S   S491      1.0  0.55723  0.32593  0.74329  1.0000
  H   H2142     1.0  0.53080  0.45101  0.71101  1.0000
  H   H2143     1.0  0.56387  0.21308  0.85742  1.0000
  C   C1774     1.0  0.64637  0.05054  0.75832  1.0000
  H   H2144     1.0  0.67258  0.44802  0.79864  1.0000
  H   H2145     1.0  0.71921  0.99104  0.74416  1.0000
  H   H2146     1.0  0.70506  0.08316  0.82844  1.0000
  C   C1775     1.0  0.59910  0.04872  0.86160  1.0000
  H   H2147     1.0  0.63317  0.05885  0.76491  1.0000
  C   C1776     1.0  0.58879  0.05166  0.84710  1.0000
  C   C1777     1.0  0.68663  0.46092  0.65332  1.0000
  C   C1778     1.0  0.69941  0.23866  0.94619  1.0000
  C   C1779     1.0  0.58134  0.08611  0.84446  1.0000
  H   H2148     1.0  0.53586  0.42587  0.71111  1.0000
  C   C1780     1.0  0.72259  0.16068  0.67524  1.0000
  H   H2149     1.0  0.57521  0.29289  0.83607  1.0000
  H   H2150     1.0  0.71115  0.03857  0.71263  1.0000
  C   C1781     1.0  0.50492  0.30691  0.78341  1.0000
  H   H2151     1.0  0.57472  0.10044  0.83783  1.0000
  C   C1782     1.0  0.59155  0.08377  0.85845  1.0000
  H   H2152     1.0  0.59950  0.00229  0.88579  1.0000
  H   H2153     1.0  0.58340  0.30883  0.81469  1.0000
  Fe  Fe245     1.0  0.73037  0.45037  0.82625  1.0000
  H   H2154     1.0  0.69337  0.38779  0.64320  1.0000
  H   H2155     1.0  0.63029  0.00568  0.86167  1.0000
  S   S492      1.0  0.70275  0.44183  0.84181  1.0000
  C   C1783     1.0  0.61443  0.30368  0.69135  1.0000
  C   C1784     1.0  0.66986  0.40708  0.65672  1.0000
  C   C1785     1.0  0.70040  0.39780  0.89834  1.0000
  N   N117      1.0  0.66845  0.47879  0.78777  1.0000
  H   H2156     1.0  0.63884  0.23929  0.85113  1.0000
  H   H2157     1.0  0.64215  0.15606  0.91648  1.0000
  H   H2158     1.0  0.64099  0.19082  0.82873  1.0000
  C   C1786     1.0  0.71468  0.02678  0.72490  1.0000
  H   H2159     1.0  0.65674  0.23374  0.83052  1.0000
  H   H2160     1.0  0.73582  0.45271  0.72657  1.0000
  N   N118      1.0  0.69899  0.01623  0.73383  1.0000
  H   H2161     1.0  0.72795  0.01726  0.71899  1.0000
  S   S493      1.0  0.61481  0.27033  0.91498  1.0000
  H   H2162     1.0  0.73257  0.41864  0.86238  1.0000
  H   H2163     1.0  0.64891  0.11152  0.76912  1.0000
  H   H2164     1.0  0.65628  0.20713  0.81661  1.0000
  H   H2165     1.0  0.65777  0.21871  0.85346  1.0000
  C   C1787     1.0  0.72283  0.43689  0.77439  1.0000
  H   H2166     1.0  0.55481  0.15813  0.89124  1.0000
  Fe  Fe246     1.0  0.72350  0.35845  0.92740  1.0000
  S   S494      1.0  0.62587  0.22538  0.91006  1.0000
  N   N119      1.0  0.55404  0.30696  0.81882  1.0000
  C   C1788     1.0  0.55899  0.29046  0.80941  1.0000
  C   C1789     1.0  0.55075  0.32506  0.80425  1.0000
  C   C1790     1.0  0.57075  0.30684  0.82631  1.0000
  C   C1791     1.0  0.53663  0.30540  0.83377  1.0000
  C   C1792     1.0  0.51902  0.30727  0.82870  1.0000
  C   C1793     1.0  0.53671  0.30099  0.85357  1.0000
  H   H2167     1.0  0.62529  0.41899  0.64758  1.0000
  C   C1794     1.0  0.52014  0.29865  0.86725  1.0000
  C   C1795     1.0  0.64009  0.41196  0.64676  1.0000
  C   C1796     1.0  0.71184  0.37046  0.81388  1.0000
  C   C1797     1.0  0.72782  0.44628  0.74005  1.0000
  C   C1798     1.0  0.62311  0.02055  0.85569  1.0000
  H   H2168     1.0  0.50399  0.43084  0.67777  1.0000
  H   H2169     1.0  0.58193  0.34652  0.65125  1.0000
  C   C1799     1.0  0.50725  0.46251  0.68666  1.0000
  H   H2170     1.0  0.72851  0.08213  0.72707  1.0000
  C   C1800     1.0  0.70540  0.00023  0.74927  1.0000
  C   C1801     1.0  0.71982  0.08563  0.82435  1.0000
  H   H2171     1.0  0.51789  0.31002  0.81401  1.0000
  H   H2172     1.0  0.54946  0.29866  0.85895  1.0000
  H   H2173     1.0  0.72321  0.33158  0.86906  1.0000
  H   H2174     1.0  0.52063  0.29460  0.88227  1.0000
  H   H2175     1.0  0.52226  0.41452  0.68963  1.0000
  C   C1802     1.0  0.49868  0.43760  0.71406  1.0000
  H   H2176     1.0  0.63585  0.02444  0.76659  1.0000
  N   N120      1.0  0.67411  0.12287  0.75417  1.0000
  H   H2177     1.0  0.61182  0.28947  0.69308  1.0000
  H   H2178     1.0  0.54029  0.32518  0.79590  1.0000
  C   C1803     1.0  0.66490  0.02013  0.75119  1.0000
  Fe  Fe247     1.0  0.62249  0.00217  0.81302  1.0000
  C   C1804     1.0  0.71905  0.41541  0.87044  1.0000
  H   H2179     1.0  0.67042  0.33798  0.88001  1.0000
  H   H2180     1.0  0.69493  0.05787  0.77987  1.0000
  C   C1805     1.0  0.59500  0.22841  0.81473  1.0000
  H   H2181     1.0  0.56987  0.16042  0.86776  1.0000
  H   H2182     1.0  0.72026  0.40431  0.83196  1.0000
  H   H2183     1.0  0.63238  0.26447  0.95347  1.0000
  H   H2184     1.0  0.72329  0.39593  0.80117  1.0000
  C   C1806     1.0  0.70461  0.35855  0.83085  1.0000
  C   C1807     1.0  0.71602  0.08365  0.73842  1.0000
  H   H2185     1.0  0.68971  0.13058  0.77053  1.0000
  C   C1808     1.0  0.73903  0.16834  0.66857  1.0000
  C   C1809     1.0  0.70239  0.42521  0.86373  1.0000
  C   C1810     1.0  0.68443  0.08766  0.76803  1.0000
  C   C1811     1.0  0.67510  0.12898  0.77125  1.0000
  H   H2186     1.0  0.70037  0.34603  0.82973  1.0000
  H   H2187     1.0  0.72755  0.28759  0.96018  1.0000
  H   H2188     1.0  0.72594  0.14467  0.81046  1.0000
  C   C1812     1.0  0.64768  0.48077  0.79023  1.0000
  H   H2189     1.0  0.71074  0.11462  0.79585  1.0000
  H   H2190     1.0  0.60644  0.03430  0.89789  1.0000
  H   H2191     1.0  0.71974  0.10138  0.77713  1.0000
  H   H2192     1.0  0.56771  0.31863  0.83410  1.0000
  H   H2193     1.0  0.69111  0.45849  0.80007  1.0000
  H   H2194     1.0  0.68532  0.48358  0.81572  1.0000
  H   H2195     1.0  0.73281  0.25827  0.95248  1.0000
  H   H2196     1.0  0.66051  0.07428  0.74835  1.0000
  H   H2197     1.0  0.72337  0.05455  0.75375  1.0000
  C   C1813     1.0  0.71767  0.38675  0.81434  1.0000
  H   H2198     1.0  0.67567  0.45348  0.66345  1.0000
  C   C1814     1.0  0.61701  0.02817  0.88629  1.0000
  H   H2199     1.0  0.59272  0.09636  0.86263  1.0000
  H   H2200     1.0  0.69025  0.05592  0.73378  1.0000
  H   H2201     1.0  0.64311  0.28031  0.97299  1.0000
  H   H2202     1.0  0.71060  0.32402  0.85571  1.0000
  C   C1815     1.0  0.71419  0.09999  0.79273  1.0000
  H   H2203     1.0  0.64381  0.42536  0.66754  1.0000
  N   N121      1.0  0.51330  0.44241  0.69681  1.0000
  H   H2204     1.0  0.69764  0.23049  0.93686  1.0000
  H   H2205     1.0  0.56537  0.38504  0.64701  1.0000
  C   C1816     1.0  0.50260  0.30476  0.84249  1.0000
  C   C1817     1.0  0.52018  0.33209  0.76193  1.0000
  C   C1818     1.0  0.69579  0.00809  0.71900  1.0000
  H   H2206     1.0  0.67690  0.33979  0.85505  1.0000
  Fe  Fe248     1.0  0.50893  0.24818  0.85387  1.0000
  H   H2207     1.0  0.54735  0.29001  0.80287  1.0000
  H   H2208     1.0  0.69301  0.14124  0.73608  1.0000
  N   N122      1.0  0.69571  0.34958  0.86663  1.0000
  C   C1819     1.0  0.70890  0.33053  0.86806  1.0000
  C   C1820     1.0  0.69392  0.35649  0.88418  1.0000
  H   H2209     1.0  0.69869  0.44945  0.64871  1.0000
  C   C1821     1.0  0.70293  0.36271  0.84887  1.0000
  S   S495      1.0  0.71753  0.14733  0.69860  1.0000
  H   H2210     1.0  0.65106  0.35229  0.68697  1.0000
  C   C1822     1.0  0.71316  0.06808  0.75347  1.0000
  C   C1823     1.0  0.68603  0.25654  0.97114  1.0000
  H   H2211     1.0  0.68818  0.34654  0.89727  1.0000
  H   H2212     1.0  0.58815  0.01426  0.86643  1.0000
  H   H2213     1.0  0.70366  0.31999  0.88081  1.0000
  H   H2214     1.0  0.69337  0.47423  0.76581  1.0000
  H   H2215     1.0  0.68400  0.37072  0.88415  1.0000
  H   H2216     1.0  0.70787  0.35768  0.88609  1.0000
  C   C1824     1.0  0.59545  0.24730  0.80514  1.0000
  H   H2217     1.0  0.62894  0.03596  0.88136  1.0000
  C   C1825     1.0  0.68101  0.02836  0.74182  1.0000
  H   H2218     1.0  0.61645  0.38561  0.69615  1.0000
  H   H2219     1.0  0.56393  0.32724  0.79344  1.0000
  H   H2220     1.0  0.59857  0.37177  0.70355  1.0000
  H   H2221     1.0  0.69533  0.99034  0.75539  1.0000
  N   N123      1.0  0.60807  0.02900  0.87033  1.0000
  C   C1826     1.0  0.57994  0.07008  0.83881  1.0000
  S   S496      1.0  0.50993  0.21970  0.84778  1.0000
  S   S497      1.0  0.51757  0.24983  0.88031  1.0000
  C   C1827     1.0  0.67662  0.34710  0.86640  1.0000
  C   C1828     1.0  0.55706  0.16759  0.87680  1.0000
  H   H2222     1.0  0.63721  0.33617  0.65868  1.0000
  C   C1829     1.0  0.58970  0.20319  0.90118  1.0000
  H   H2223     1.0  0.58861  0.15616  0.88803  1.0000
  H   H2224     1.0  0.61321  0.38872  0.66391  1.0000
  H   H2225     1.0  0.70651  0.11286  0.72611  1.0000
  H   H2226     1.0  0.61260  0.15654  0.90435  1.0000
  H   H2227     1.0  0.65332  0.18532  0.91533  1.0000
  C   C1830     1.0  0.53714  0.31858  0.75865  1.0000
  H   H2228     1.0  0.67199  0.42882  0.86926  1.0000
  C   C1831     1.0  0.62602  0.31166  0.67479  1.0000
  C   C1832     1.0  0.60288  0.18633  0.90583  1.0000
  H   H2229     1.0  0.49119  0.33684  0.77747  1.0000
  Fe  Fe249     1.0  0.62569  0.24126  0.93216  1.0000
  N   N124      1.0  0.55873  0.18696  0.87765  1.0000
  C   C1833     1.0  0.58814  0.16960  0.89155  1.0000
  H   H2230     1.0  0.53750  0.18914  0.90336  1.0000
  H   H2231     1.0  0.57577  0.19131  0.84929  1.0000
  H   H2232     1.0  0.55073  0.20000  0.85053  1.0000
  C   C1834     1.0  0.71790  0.15034  0.79924  1.0000
  C   C1835     1.0  0.54005  0.19612  0.88795  1.0000
  C   C1836     1.0  0.56246  0.19834  0.85790  1.0000
  H   H2233     1.0  0.52802  0.19535  0.88206  1.0000
  C   C1837     1.0  0.60219  0.16962  0.90088  1.0000
  H   H2234     1.0  0.53880  0.21168  0.88683  1.0000
  N   N125      1.0  0.63586  0.21579  0.84079  1.0000
  C   C1838     1.0  0.67867  0.13844  0.73741  1.0000
  H   H2235     1.0  0.72872  0.07408  0.83331  1.0000
  C   C1839     1.0  0.57567  0.20334  0.89179  1.0000
  H   H2236     1.0  0.59033  0.21629  0.90481  1.0000
  C   C1840     1.0  0.62165  0.22709  0.82912  1.0000
  H   H2237     1.0  0.56602  0.21683  0.88823  1.0000
  C   C1841     1.0  0.64873  0.20073  0.83098  1.0000
  C   C1842     1.0  0.62139  0.24661  0.81952  1.0000
  H   H2238     1.0  0.61910  0.19527  0.85918  1.0000
  H   H2239     1.0  0.60768  0.20337  0.83269  1.0000
  H   H2240     1.0  0.65312  0.11584  0.74354  1.0000
  Fe  Fe250     1.0  0.49463  0.27061  0.81755  1.0000
  C   C1843     1.0  0.59360  0.01684  0.87789  1.0000
  C   C1844     1.0  0.60806  0.21829  0.82629  1.0000
  H   H2241     1.0  0.65966  0.19172  0.83918  1.0000
  C   C1845     1.0  0.57398  0.32183  0.64771  1.0000
  C   C1846     1.0  0.70323  0.10136  0.73813  1.0000
  C   C1847     1.0  0.49379  0.44818  0.72865  1.0000
  H   H2242     1.0  0.51770  0.46637  0.67327  1.0000
  H   H2243     1.0  0.49365  0.36720  0.67475  1.0000
  H   H2244     1.0  0.69741  0.15762  0.66822  1.0000
  H   H2245     1.0  0.58125  0.02356  0.88778  1.0000
  H   H2246     1.0  0.61737  0.01958  0.84369  1.0000
  H   H2247     1.0  0.71279  0.36715  0.80026  1.0000
  S   S498      1.0  0.49501  0.24415  0.80812  1.0000
  H   H2248     1.0  0.70067  0.09485  0.79625  1.0000
  C   C1848     1.0  0.71671  0.15829  0.76578  1.0000
  H   H2249     1.0  0.69027  0.01964  0.70749  1.0000
  H   H2250     1.0  0.70796  0.38407  0.86169  1.0000
  H   H2251     1.0  0.72676  0.43617  0.78758  1.0000
  C   C1849     1.0  0.60871  0.33274  0.70310  1.0000
  C   C1850     1.0  0.62876  0.33033  0.67212  1.0000
  H   H2252     1.0  0.59646  0.30810  0.71821  1.0000
  H   H2253     1.0  0.49181  0.41342  0.70690  1.0000
  C   C1851     1.0  0.67846  0.39446  0.64429  1.0000
  H   H2254     1.0  0.57181  0.29116  0.79777  1.0000
  C   C1852     1.0  0.67892  0.04833  0.74082  1.0000
  C   C1853     1.0  0.58681  0.33325  0.64627  1.0000
  C   C1854     1.0  0.60584  0.31417  0.70549  1.0000
  C   C1855     1.0  0.62992  0.25949  0.96878  1.0000
  H   H2255     1.0  0.60125  0.34011  0.71449  1.0000
  H   H2256     1.0  0.72372  0.15870  0.75107  1.0000
  H   H2257     1.0  0.66535  0.00505  0.75248  1.0000
  C   C1856     1.0  0.70340  0.26217  0.96894  1.0000
  H   H2258     1.0  0.69186  0.46846  0.66145  1.0000
  H   H2259     1.0  0.71839  0.03275  0.73536  1.0000
  C   C1857     1.0  0.62014  0.34149  0.68617  1.0000
  H   H2260     1.0  0.64931  0.35943  0.66225  1.0000
  H   H2261     1.0  0.70905  0.05621  0.81986  1.0000
  S   S499      1.0  0.54963  0.32965  0.65606  1.0000
  C   C1858     1.0  0.71902  0.25471  0.95540  1.0000
  H   H2262     1.0  0.64012  0.48348  0.80457  1.0000
  H   H2263     1.0  0.64877  0.20225  0.96065  1.0000
  C   C1859     1.0  0.53152  0.44051  0.70244  1.0000
  C   C1860     1.0  0.51695  0.42981  0.68310  1.0000
  C   C1861     1.0  0.72349  0.28071  0.97550  1.0000
  C   C1862     1.0  0.71009  0.16356  0.66313  1.0000
  C   C1863     1.0  0.72106  0.05356  0.80841  1.0000
  N   N126      1.0  0.72806  0.08657  0.80371  1.0000
  S   S500      1.0  0.73631  0.29107  0.91754  1.0000
  H   H2264     1.0  0.67036  0.24169  0.96122  1.0000
  C   C1864     1.0  0.72714  0.15075  0.78023  1.0000
  C   C1865     1.0  0.73316  0.44535  0.75704  1.0000
  H   H2265     1.0  0.68066  0.19460  0.94062  1.0000
  S   S501      1.0  0.60087  0.98927  0.83652  1.0000
  H   H2266     1.0  0.72885  0.23826  0.93348  1.0000
  H   H2267     1.0  0.50588  0.47312  0.69534  1.0000
  C   C1866     1.0  0.71414  0.17378  0.64429  1.0000
  H   H2268     1.0  0.71650  0.02512  0.81141  1.0000
  C   C1867     1.0  0.66129  0.19978  0.96658  1.0000
  C   C1868     1.0  0.69534  0.19285  0.96269  1.0000
  H   H2269     1.0  0.49324  0.46464  0.68280  1.0000
  H   H2270     1.0  0.49390  0.30803  0.74336  1.0000
  C   C1869     1.0  0.72505  0.03567  0.80351  1.0000
  H   H2271     1.0  0.65306  0.48488  0.65638  1.0000
  C   C1870     1.0  0.50318  0.30036  0.86174  1.0000
  Fe  Fe251     1.0  0.73961  0.31664  0.92645  1.0000
  S   S502      1.0  0.64691  0.98630  0.82719  1.0000
  C   C1871     1.0  0.73996  0.03130  0.78854  1.0000
  Fe  Fe252     1.0  0.64640  0.89094  0.08695  1.0000
  S   S503      1.0  0.63503  0.86942  0.11180  1.0000
  S   S504      1.0  0.64373  0.92103  0.09061  1.0000
  Fe  Fe253     1.0  0.65582  0.86401  0.05963  1.0000
  S   S505      1.0  0.64505  0.84021  0.08213  1.0000
  S   S506      1.0  0.66899  0.85995  0.02959  1.0000
  Fe  Fe254     1.0  0.62096  0.86332  0.09152  1.0000
  S   S507      1.0  0.59191  0.85674  0.10301  1.0000
  Fe  Fe255     1.0  0.65988  0.84786  0.10075  1.0000
  S   S508      1.0  0.67197  0.82250  0.12179  1.0000
  S   S509      1.0  0.63011  0.88673  0.06727  1.0000
  S   S510      1.0  0.67301  0.86995  0.07746  1.0000
  H   H2272     1.0  0.54059  0.81764  0.28690  1.0000
  C   C1872     1.0  0.68201  0.50390  0.26969  1.0000
  H   H2273     1.0  0.59398  0.96666  0.23576  1.0000
  H   H2274     1.0  0.71884  0.65932  0.11741  1.0000
  H   H2275     1.0  0.66843  0.57841  0.28772  1.0000
  H   H2276     1.0  0.55484  0.96522  0.26238  1.0000
  H   H2277     1.0  0.56554  0.83048  0.19343  1.0000
  C   C1873     1.0  0.67462  0.50192  0.24095  1.0000
  Fe  Fe256     1.0  0.53403  0.89432  0.19041  1.0000
  C   C1874     1.0  0.54670  0.82952  0.30805  1.0000
  S   S511      1.0  0.55276  0.90767  0.16396  1.0000
  Fe  Fe257     1.0  0.52930  0.85964  0.22295  1.0000
  H   H2278     1.0  0.56248  0.79375  0.29949  1.0000
  Fe  Fe258     1.0  0.52443  0.89935  0.23080  1.0000
  S   S512      1.0  0.53200  0.91530  0.24875  1.0000
  S   S513      1.0  0.51719  0.87136  0.19653  1.0000
  S   S514      1.0  0.54848  0.88061  0.21500  1.0000
  Fe  Fe259     1.0  0.64563  0.95399  0.18134  1.0000
  S   S515      1.0  0.62670  0.94855  0.21025  1.0000
  S   S516      1.0  0.65758  0.92725  0.16910  1.0000
  H   H2279     1.0  0.59216  0.88030  0.01947  1.0000
  H   H2280     1.0  0.71429  0.66367  0.09412  1.0000
  S   S517      1.0  0.64878  0.96067  0.24765  1.0000
  H   H2281     1.0  0.57118  0.95522  0.28757  1.0000
  C   C1875     1.0  0.66206  0.78780  0.00518  1.0000
  H   H2282     1.0  0.58710  0.94755  0.25497  1.0000
  C   C1876     1.0  0.52536  0.78830  0.27874  1.0000
  H   H2283     1.0  0.59950  0.94407  0.15817  1.0000
  C   C1877     1.0  0.66927  0.96782  0.24864  1.0000
  C   C1878     1.0  0.60145  0.81005  0.13258  1.0000
  C   C1879     1.0  0.58418  0.80395  0.20302  1.0000
  H   H2284     1.0  0.66221  0.91667  0.98277  1.0000
  C   C1880     1.0  0.54155  0.83044  0.29071  1.0000
  H   H2285     1.0  0.61813  0.88748  0.02963  1.0000
  H   H2286     1.0  0.71026  0.60090  0.23129  1.0000
  C   C1881     1.0  0.73030  0.53521  0.21594  1.0000
  H   H2287     1.0  0.70656  0.50361  0.21213  1.0000
  H   H2288     1.0  0.61291  0.98011  0.26796  1.0000
  C   C1882     1.0  0.54458  0.93303  0.23472  1.0000
  C   C1883     1.0  0.53471  0.95176  0.22882  1.0000
  H   H2289     1.0  0.67253  0.89140  0.98383  1.0000
  C   C1884     1.0  0.56455  0.96233  0.21478  1.0000
  C   C1885     1.0  0.57448  0.94353  0.22046  1.0000
  C   C1886     1.0  0.56450  0.92889  0.23048  1.0000
  H   H2290     1.0  0.51933  0.95504  0.23220  1.0000
  C   C1887     1.0  0.72368  0.52393  0.20783  1.0000
  H   H2291     1.0  0.58980  0.94022  0.21726  1.0000
  H   H2292     1.0  0.57217  0.91443  0.23516  1.0000
  S   S518      1.0  0.72321  0.98497  0.25112  1.0000
  H   H2293     1.0  0.62237  0.78081  0.17591  1.0000
  C   C1888     1.0  0.58433  0.94538  0.16556  1.0000
  C   C1889     1.0  0.72242  0.78424  0.03425  1.0000
  H   H2294     1.0  0.60692  0.94810  0.09556  1.0000
  C   C1890     1.0  0.54466  0.96636  0.21888  1.0000
  C   C1891     1.0  0.69534  0.81224  0.11208  1.0000
  C   C1892     1.0  0.70660  0.82347  0.09778  1.0000
  C   C1893     1.0  0.72088  0.78410  0.10967  1.0000
  C   C1894     1.0  0.70258  0.79260  0.11823  1.0000
  H   H2295     1.0  0.70124  0.83868  0.09324  1.0000
  H   H2296     1.0  0.58341  0.94877  0.17953  1.0000
  H   H2297     1.0  0.69391  0.78386  0.12929  1.0000
  C   C1895     1.0  0.57967  0.87149  0.11913  1.0000
  C   C1896     1.0  0.56502  0.86581  0.13405  1.0000
  C   C1897     1.0  0.55655  0.87683  0.14798  1.0000
  C   C1898     1.0  0.56245  0.89374  0.14666  1.0000
  C   C1899     1.0  0.57674  0.89957  0.13148  1.0000
  C   C1900     1.0  0.58544  0.88843  0.11782  1.0000
  H   H2298     1.0  0.56043  0.85277  0.13501  1.0000
  H   H2299     1.0  0.54541  0.87232  0.15961  1.0000
  H   H2300     1.0  0.58149  0.91248  0.13051  1.0000
  H   H2301     1.0  0.59660  0.89301  0.10622  1.0000
  C   C1901     1.0  0.64851  0.92297  0.11192  1.0000
  C   C1902     1.0  0.65809  0.90709  0.12339  1.0000
  C   C1903     1.0  0.66126  0.90883  0.14060  1.0000
  C   C1904     1.0  0.65447  0.92628  0.14670  1.0000
  C   C1905     1.0  0.64508  0.94224  0.13513  1.0000
  C   C1906     1.0  0.64242  0.94064  0.11762  1.0000
  H   H2302     1.0  0.66324  0.89353  0.11887  1.0000
  H   H2303     1.0  0.66899  0.89659  0.14927  1.0000
  H   H2304     1.0  0.64017  0.95585  0.13952  1.0000
  H   H2305     1.0  0.63561  0.95312  0.10844  1.0000
  C   C1907     1.0  0.65568  0.85054  0.01924  1.0000
  C   C1908     1.0  0.63890  0.84470  0.02971  1.0000
  C   C1909     1.0  0.62791  0.83837  0.02081  1.0000
  C   C1910     1.0  0.63347  0.83818  0.00135  1.0000
  C   C1911     1.0  0.65052  0.84352  0.99101  1.0000
  C   C1912     1.0  0.66172  0.84946  0.00001  1.0000
  H   H2306     1.0  0.63410  0.84550  0.04454  1.0000
  H   H2307     1.0  0.61479  0.83412  0.02890  1.0000
  H   H2308     1.0  0.57976  0.94175  0.08668  1.0000
  H   H2309     1.0  0.67488  0.85364  0.99199  1.0000
  S   S519      1.0  0.72849  0.62469  0.19032  1.0000
  C   C1913     1.0  0.72740  0.64743  0.17497  1.0000
  H   H2310     1.0  0.57422  0.98398  0.16463  1.0000
  C   C1914     1.0  0.68314  0.60828  0.26758  1.0000
  H   H2311     1.0  0.69585  0.92793  0.28932  1.0000
  C   C1915     1.0  0.56919  0.68593  0.30303  1.0000
  H   H2312     1.0  0.73754  0.71314  0.19120  1.0000
  C   C1916     1.0  0.53794  0.86501  0.28213  1.0000
  H   H2313     1.0  0.69048  0.56064  0.28774  1.0000
  C   C1917     1.0  0.68399  0.75693  0.00723  1.0000
  H   H2314     1.0  0.70736  0.67140  0.29234  1.0000
  C   C1918     1.0  0.73344  0.71286  0.03371  1.0000
  Fe  Fe260     1.0  0.64202  0.96667  0.21839  1.0000
  H   H2315     1.0  0.50304  0.83926  0.25355  1.0000
  H   H2316     1.0  0.56965  0.67895  0.27657  1.0000
  S   S520      1.0  0.72188  0.70787  0.13741  1.0000
  C   C1919     1.0  0.57785  0.94580  0.10014  1.0000
  S   S521      1.0  0.50640  0.87713  0.24135  1.0000
  H   H2317     1.0  0.58855  0.82180  0.13339  1.0000
  C   C1920     1.0  0.72502  0.63125  0.26670  1.0000
  H   H2318     1.0  0.72022  0.59656  0.25814  1.0000
  C   C1921     1.0  0.63429  0.54418  0.30590  1.0000
  C   C1922     1.0  0.63395  0.89531  0.00107  1.0000
  C   C1923     1.0  0.57297  0.67351  0.29060  1.0000
  H   H2319     1.0  0.72356  0.76499  0.99650  1.0000
  H   H2320     1.0  0.53451  0.87852  0.27224  1.0000
  S   S522      1.0  0.54114  0.82794  0.23189  1.0000
  C   C1924     1.0  0.74032  0.70775  0.01592  1.0000
  H   H2321     1.0  0.53371  0.84821  0.26468  1.0000
  C   C1925     1.0  0.72224  0.92715  0.26867  1.0000
  C   C1926     1.0  0.61155  0.70096  0.30368  1.0000
  C   C1927     1.0  0.50801  0.79814  0.28762  1.0000
  H   H2322     1.0  0.73540  0.80569  0.05110  1.0000
  C   C1928     1.0  0.56027  0.94691  0.11266  1.0000
  H   H2323     1.0  0.69900  0.65171  0.26254  1.0000
  C   C1929     1.0  0.53741  0.84791  0.27792  1.0000
  H   H2324     1.0  0.66462  0.76661  0.05128  1.0000
  H   H2325     1.0  0.54854  0.94356  0.10894  1.0000
  H   H2326     1.0  0.65505  0.84306  0.97610  1.0000
  H   H2327     1.0  0.69702  0.65264  0.17839  1.0000
  Fe  Fe261     1.0  0.60817  0.97630  0.19900  1.0000
  C   C1930     1.0  0.56040  0.97874  0.25781  1.0000
  H   H2328     1.0  0.72898  0.52363  0.19285  1.0000
  H   H2329     1.0  0.72159  0.57130  0.26792  1.0000
  C   C1931     1.0  0.63509  0.89740  0.98125  1.0000
  C   C1932     1.0  0.72020  0.66938  0.29759  1.0000
  H   H2330     1.0  0.73660  0.68565  0.10889  1.0000
  H   H2331     1.0  0.70403  0.78950  0.01377  1.0000
  H   H2332     1.0  0.69398  0.74535  0.00138  1.0000
  C   C1933     1.0  0.63195  0.79582  0.14080  1.0000
  S   S523      1.0  0.72443  0.71044  0.00107  1.0000
  C   C1934     1.0  0.71070  0.51263  0.21901  1.0000
  H   H2333     1.0  0.71772  0.78130  0.07218  1.0000
  C   C1935     1.0  0.54276  0.86472  0.29909  1.0000
  C   C1936     1.0  0.67484  0.77368  0.99567  1.0000
  H   H2334     1.0  0.60772  0.84192  0.13832  1.0000
  H   H2335     1.0  0.60318  0.95662  0.12603  1.0000
  C   C1937     1.0  0.73206  0.79535  0.09524  1.0000
  C   C1938     1.0  0.65846  0.78527  0.02498  1.0000
  H   H2336     1.0  0.66375  0.49369  0.25022  1.0000
  H   H2337     1.0  0.58259  0.83447  0.16035  1.0000
  H   H2338     1.0  0.71460  0.82431  0.05214  1.0000
  C   C1939     1.0  0.62004  0.82960  0.13792  1.0000
  C   C1940     1.0  0.59314  0.94933  0.10519  1.0000
  C   C1941     1.0  0.49984  0.81641  0.27830  1.0000
  C   C1942     1.0  0.59089  0.95408  0.12273  1.0000
  S   S524      1.0  0.61918  0.83061  0.99049  1.0000
  S   S525      1.0  0.51070  0.91424  0.20586  1.0000
  H   H2339     1.0  0.74050  0.54383  0.20725  1.0000
  C   C1943     1.0  0.58807  0.82204  0.17046  1.0000
  C   C1944     1.0  0.71686  0.78125  0.01852  1.0000
  C   C1945     1.0  0.72501  0.81507  0.08953  1.0000
  H   H2340     1.0  0.70698  0.52446  0.26151  1.0000
  H   H2341     1.0  0.59660  0.79618  0.13711  1.0000
  H   H2342     1.0  0.72954  0.54381  0.24149  1.0000
  H   H2343     1.0  0.73514  0.95101  0.23408  1.0000
  C   C1946     1.0  0.69748  0.63712  0.29197  1.0000
  H   H2344     1.0  0.73170  0.63401  0.25180  1.0000
  C   C1947     1.0  0.60014  0.79009  0.19784  1.0000
  H   H2345     1.0  0.69445  0.68530  0.15780  1.0000
  C   C1948     1.0  0.49903  0.69077  0.29216  1.0000
  H   H2346     1.0  0.62882  0.78120  0.14414  1.0000
  H   H2347     1.0  0.60708  0.95712  0.25442  1.0000
  H   H2348     1.0  0.59299  0.88428  0.98522  1.0000
  C   C1949     1.0  0.60444  0.80825  0.16465  1.0000
  H   H2349     1.0  0.65457  0.80087  0.99734  1.0000
  H   H2350     1.0  0.71442  0.58832  0.28306  1.0000
  C   C1950     1.0  0.60431  0.88768  0.98961  1.0000
  C   C1951     1.0  0.57817  0.81989  0.18936  1.0000
  H   H2351     1.0  0.64504  0.89752  0.00665  1.0000
  H   H2352     1.0  0.60840  0.81194  0.11720  1.0000
  C   C1952     1.0  0.70971  0.65829  0.17154  1.0000
  H   H2353     1.0  0.56054  0.98353  0.24230  1.0000
  H   H2354     1.0  0.71470  0.93584  0.25767  1.0000
  H   H2355     1.0  0.55095  0.96556  0.17993  1.0000
  C   C1953     1.0  0.71112  0.92264  0.28689  1.0000
  H   H2356     1.0  0.68275  0.61295  0.28073  1.0000
  C   C1954     1.0  0.71958  0.91184  0.30211  1.0000
  N   N127      1.0  0.69300  0.58791  0.26837  1.0000
  H   H2357     1.0  0.58058  0.93108  0.16845  1.0000
  C   C1955     1.0  0.69192  0.58225  0.25110  1.0000
  C   C1956     1.0  0.68038  0.56943  0.25156  1.0000
  C   C1957     1.0  0.70183  0.59042  0.23294  1.0000
  C   C1958     1.0  0.67927  0.56488  0.23483  1.0000
  C   C1959     1.0  0.70078  0.58559  0.21637  1.0000
  C   C1960     1.0  0.68956  0.57283  0.21730  1.0000
  H   H2358     1.0  0.59197  0.97866  0.14459  1.0000
  H   H2359     1.0  0.66814  0.61057  0.26617  1.0000
  H   H2360     1.0  0.64836  0.79623  0.03181  1.0000
  S   S526      1.0  0.66278  0.96964  0.19050  1.0000
  C   C1961     1.0  0.72283  0.81267  0.04447  1.0000
  H   H2361     1.0  0.67033  0.55517  0.23546  1.0000
  H   H2362     1.0  0.70860  0.59203  0.20269  1.0000
  H   H2363     1.0  0.68876  0.56921  0.20438  1.0000
  H   H2364     1.0  0.69274  0.50041  0.27873  1.0000
  C   C1962     1.0  0.73963  0.77238  0.03909  1.0000
  C   C1963     1.0  0.70653  0.64124  0.27278  1.0000
  H   H2365     1.0  0.67927  0.49622  0.22771  1.0000
  H   H2366     1.0  0.52539  0.68569  0.30066  1.0000
  C   C1964     1.0  0.51109  0.68303  0.30516  1.0000
  C   C1965     1.0  0.72588  0.61404  0.29918  1.0000
  H   H2367     1.0  0.72816  0.81961  0.02946  1.0000
  H   H2368     1.0  0.71843  0.71834  0.03820  1.0000
  H   H2369     1.0  0.62789  0.83155  0.12289  1.0000
  H   H2370     1.0  0.57625  0.80224  0.21762  1.0000
  H   H2371     1.0  0.62955  0.83096  0.14657  1.0000
  H   H2372     1.0  0.60460  0.77761  0.20853  1.0000
  H   H2373     1.0  0.67128  0.49500  0.27766  1.0000
  N   N128      1.0  0.61440  0.81071  0.14444  1.0000
  C   C1966     1.0  0.69356  0.81017  0.03860  1.0000
  C   C1967     1.0  0.67386  0.96573  0.26633  1.0000
  C   C1968     1.0  0.70375  0.51247  0.23872  1.0000
  S   S527      1.0  0.55779  0.70989  0.29605  1.0000
  C   C1969     1.0  0.50946  0.82521  0.26062  1.0000
  H   H2374     1.0  0.53688  0.98086  0.21454  1.0000
  N   N129      1.0  0.61386  0.88149  0.17428  1.0000
  C   C1970     1.0  0.62250  0.89290  0.18210  1.0000
  C   C1971     1.0  0.61259  0.89115  0.15429  1.0000
  C   C1972     1.0  0.59412  0.88167  0.18537  1.0000
  C   C1973     1.0  0.62587  0.86192  0.17494  1.0000
  C   C1974     1.0  0.64455  0.85925  0.16367  1.0000
  C   C1975     1.0  0.61976  0.84512  0.18684  1.0000
  C   C1976     1.0  0.65630  0.84100  0.16415  1.0000
  C   C1977     1.0  0.63174  0.82693  0.18736  1.0000
  C   C1978     1.0  0.64994  0.82487  0.17600  1.0000
  H   H2375     1.0  0.63710  0.89415  0.17402  1.0000
  H   H2376     1.0  0.61412  0.90787  0.18163  1.0000
  H   H2377     1.0  0.62366  0.88618  0.19715  1.0000
  H   H2378     1.0  0.62629  0.89443  0.14545  1.0000
  H   H2379     1.0  0.60231  0.90519  0.15329  1.0000
  H   H2380     1.0  0.60798  0.88200  0.14736  1.0000
  H   H2381     1.0  0.59374  0.87575  0.20084  1.0000
  H   H2382     1.0  0.58530  0.89651  0.18425  1.0000
  H   H2383     1.0  0.58671  0.87349  0.18002  1.0000
  H   H2384     1.0  0.65027  0.87129  0.15438  1.0000
  H   H2385     1.0  0.60582  0.84562  0.19593  1.0000
  H   H2386     1.0  0.67042  0.83935  0.15515  1.0000
  H   H2387     1.0  0.62688  0.81436  0.19666  1.0000
  H   H2388     1.0  0.65918  0.81077  0.17625  1.0000
  N   N130      1.0  0.71112  0.79885  0.04540  1.0000
  H   H2389     1.0  0.72821  0.69132  0.08707  1.0000
  C   C1979     1.0  0.55792  0.95148  0.13034  1.0000
  C   C1980     1.0  0.70532  0.78922  0.06558  1.0000
  C   C1981     1.0  0.57828  0.96773  0.28257  1.0000
  C   C1982     1.0  0.68035  0.75456  0.02704  1.0000
  C   C1983     1.0  0.69766  0.98058  0.23298  1.0000
  H   H2390     1.0  0.69683  0.81862  0.02375  1.0000
  H   H2391     1.0  0.54306  0.87816  0.30224  1.0000
  H   H2392     1.0  0.68576  0.58036  0.29912  1.0000
  H   H2393     1.0  0.68373  0.80086  0.03937  1.0000
  H   H2394     1.0  0.58268  0.64415  0.28719  1.0000
  C   C1984     1.0  0.60379  0.88546  0.00889  1.0000
  H   H2395     1.0  0.63642  0.67824  0.30143  1.0000
  C   C1985     1.0  0.71105  0.52394  0.24661  1.0000
  C   C1986     1.0  0.73920  0.90521  0.29913  1.0000
  C   C1987     1.0  0.72796  0.76725  0.00839  1.0000
  H   H2396     1.0  0.69693  0.79976  0.07453  1.0000
  H   H2397     1.0  0.69660  0.77861  0.06691  1.0000
  N   N131      1.0  0.69057  0.49982  0.25042  1.0000
  C   C1988     1.0  0.57667  0.97912  0.15109  1.0000
  C   C1989     1.0  0.71313  0.58590  0.26934  1.0000
  H   H2398     1.0  0.72621  0.76883  0.11407  1.0000
  H   H2399     1.0  0.66474  0.95984  0.27928  1.0000
  H   H2400     1.0  0.69020  0.61822  0.25539  1.0000
  C   C1990     1.0  0.70722  0.62360  0.30516  1.0000
  C   C1991     1.0  0.61844  0.88952  0.01458  1.0000
  C   C1992     1.0  0.68112  0.97549  0.23201  1.0000
  S   S528      1.0  0.67378  0.64832  0.29912  1.0000
  H   H2401     1.0  0.54888  0.78983  0.25471  1.0000
  N   N132      1.0  0.57965  0.97564  0.26182  1.0000
  C   C1993     1.0  0.72457  0.68418  0.15094  1.0000
  H   H2402     1.0  0.73371  0.82384  0.07852  1.0000
  H   H2403     1.0  0.63935  0.79855  0.12554  1.0000
  H   H2404     1.0  0.68544  0.82088  0.04745  1.0000
  N   N133      1.0  0.57139  0.96026  0.15438  1.0000
  C   C1994     1.0  0.72409  0.53514  0.23529  1.0000
  C   C1995     1.0  0.66757  0.76865  0.03591  1.0000
  H   H2405     1.0  0.67190  0.56291  0.26462  1.0000
  Fe  Fe262     1.0  0.49496  0.88996  0.21455  1.0000
  C   C1996     1.0  0.61021  0.79212  0.17895  1.0000
  C   C1997     1.0  0.59250  0.96107  0.25138  1.0000
  H   H2406     1.0  0.68744  0.74159  0.03551  1.0000
  C   C1998     1.0  0.64184  0.52476  0.30530  1.0000
  H   H2407     1.0  0.50422  0.69891  0.27815  1.0000
  H   H2408     1.0  0.64247  0.79583  0.14906  1.0000
  H   H2409     1.0  0.54136  0.97273  0.15886  1.0000
  H   H2410     1.0  0.69381  0.96933  0.28102  1.0000
  C   C1999     1.0  0.70827  0.67673  0.15984  1.0000
  H   H2411     1.0  0.53136  0.77385  0.28536  1.0000
  C   C2000     1.0  0.57323  0.95530  0.13587  1.0000
  C   C2001     1.0  0.53516  0.79725  0.26122  1.0000
  H   H2412     1.0  0.54412  0.95135  0.13960  1.0000
  C   C2002     1.0  0.52747  0.81597  0.25239  1.0000
  C   C2003     1.0  0.69031  0.97109  0.26734  1.0000
  H   H2413     1.0  0.67442  0.51918  0.26888  1.0000
  H   H2414     1.0  0.73466  0.92835  0.22931  1.0000
  H   H2415     1.0  0.62165  0.55156  0.30028  1.0000
  H   H2416     1.0  0.59246  0.96237  0.28651  1.0000
  H   H2417     1.0  0.67768  0.97733  0.21833  1.0000
  H   H2418     1.0  0.66728  0.51724  0.23736  1.0000
  H   H2419     1.0  0.54736  0.94752  0.17020  1.0000
  C   C2004     1.0  0.58032  0.65387  0.29659  1.0000
  S   S529      1.0  0.63111  0.51245  0.29499  1.0000
  H   H2420     1.0  0.73839  0.66625  0.06648  1.0000
  H   H2421     1.0  0.60873  0.70118  0.29003  1.0000
  S   S530      1.0  0.57632  0.98133  0.20285  1.0000
  H   H2422     1.0  0.57945  0.80409  0.30458  1.0000
  C   C2005     1.0  0.73466  0.61757  0.27991  1.0000
  C   C2006     1.0  0.55188  0.96158  0.16626  1.0000
  C   C2007     1.0  0.68404  0.57624  0.28638  1.0000
  S   S531      1.0  0.62618  0.98101  0.16954  1.0000
  C   C2008     1.0  0.70232  0.97837  0.25062  1.0000
  Fe  Fe263     1.0  0.73101  0.98001  0.27970  1.0000
  H   H2423     1.0  0.72665  0.64030  0.10411  1.0000
  C   C2009     1.0  0.72505  0.65597  0.10303  1.0000
  C   C2010     1.0  0.73800  0.66636  0.28546  1.0000
  H   H2424     1.0  0.73831  0.66587  0.27099  1.0000
  H   H2425     1.0  0.57005  0.97885  0.29087  1.0000
  C   C2011     1.0  0.74011  0.68290  0.09426  1.0000
  H   H2426     1.0  0.74065  0.71571  0.05896  1.0000
  C   C2012     1.0  0.61953  0.89387  0.97596  1.0000
  Fe  Fe264     1.0  0.65648  0.71480  0.45590  1.0000
  S   S532      1.0  0.67982  0.71603  0.42981  1.0000
  S   S533      1.0  0.66555  0.70318  0.48438  1.0000
  Fe  Fe265     1.0  0.62590  0.73048  0.43236  1.0000
  S   S534      1.0  0.64677  0.73379  0.40454  1.0000
  S   S535      1.0  0.59425  0.73438  0.43498  1.0000
  Fe  Fe266     1.0  0.66217  0.70450  0.41695  1.0000
  S   S536      1.0  0.67546  0.68436  0.39661  1.0000
  Fe  Fe267     1.0  0.66273  0.74516  0.41952  1.0000
  S   S537      1.0  0.68057  0.76742  0.40421  1.0000
  S   S538      1.0  0.64041  0.70034  0.44404  1.0000
  S   S539      1.0  0.64029  0.74475  0.44644  1.0000
  S   S540      1.0  0.62865  0.74150  0.55617  1.0000
  N   N134      1.0  0.55119  0.81073  0.32120  1.0000
  Fe  Fe268     1.0  0.64019  0.61457  0.36254  1.0000
  S   S541      1.0  0.62990  0.63865  0.33951  1.0000
  S   S542      1.0  0.63527  0.62025  0.39196  1.0000
  Fe  Fe269     1.0  0.65458  0.58590  0.33651  1.0000
  H   H2427     1.0  0.67074  0.51837  0.35874  1.0000
  S   S543      1.0  0.66927  0.55560  0.33351  1.0000
  H   H2428     1.0  0.53466  0.67338  0.35094  1.0000
  C   C2013     1.0  0.65729  0.79184  0.49950  1.0000
  Fe  Fe270     1.0  0.61923  0.61650  0.33207  1.0000
  C   C2014     1.0  0.73928  0.92504  0.38695  1.0000
  S   S544      1.0  0.66879  0.60506  0.34471  1.0000
  S   S545      1.0  0.62694  0.59311  0.35671  1.0000
  H   H2429     1.0  0.64861  0.49549  0.40781  1.0000
  H   H2430     1.0  0.51273  0.68958  0.34685  1.0000
  H   H2431     1.0  0.64246  0.77006  0.51755  1.0000
  N   N135      1.0  0.70135  0.74699  0.46534  1.0000
  C   C2015     1.0  0.70033  0.79567  0.61654  1.0000
  H   H2432     1.0  0.57129  0.78364  0.32076  1.0000
  C   C2016     1.0  0.53412  0.80210  0.32804  1.0000
  S   S546      1.0  0.69532  0.68947  0.61287  1.0000
  S   S547      1.0  0.74007  0.90619  0.61236  1.0000
  Fe  Fe271     1.0  0.64163  0.74463  0.61893  1.0000
  H   H2433     1.0  0.69786  0.82425  0.49014  1.0000
  Fe  Fe272     1.0  0.71676  0.83515  0.44195  1.0000
  S   S548      1.0  0.68787  0.82866  0.44607  1.0000
  H   H2434     1.0  0.54520  0.64355  0.33766  1.0000
  S   S549      1.0  0.71692  0.85864  0.45571  1.0000
  C   C2017     1.0  0.62398  0.53925  0.39746  1.0000
  H   H2435     1.0  0.56089  0.79763  0.34763  1.0000
  H   H2436     1.0  0.52965  0.79888  0.31629  1.0000
  H   H2437     1.0  0.67976  0.51797  0.32565  1.0000
  C   C2018     1.0  0.53478  0.65022  0.32815  1.0000
  C   C2019     1.0  0.73278  0.93366  0.36989  1.0000
  C   C2020     1.0  0.72265  0.92428  0.36312  1.0000
  C   C2021     1.0  0.72544  0.89771  0.39062  1.0000
  C   C2022     1.0  0.65936  0.80023  0.53323  1.0000
  H   H2438     1.0  0.64231  0.67668  0.33252  1.0000
  H   H2439     1.0  0.72231  0.88398  0.39865  1.0000
  H   H2440     1.0  0.68464  0.74353  0.53081  1.0000
  C   C2023     1.0  0.71237  0.75697  0.44753  1.0000
  H   H2441     1.0  0.66651  0.85550  0.52187  1.0000
  Fe  Fe273     1.0  0.67242  0.75945  0.58605  1.0000
  C   C2024     1.0  0.70171  0.75330  0.48253  1.0000
  H   H2442     1.0  0.65322  0.83808  0.53688  1.0000
  C   C2025     1.0  0.73522  0.66654  0.32354  1.0000
  C   C2026     1.0  0.55734  0.81205  0.33820  1.0000
  Fe  Fe274     1.0  0.64530  0.73928  0.57860  1.0000
  H   H2443     1.0  0.69743  0.83245  0.52736  1.0000
  C   C2027     1.0  0.65666  0.54241  0.38462  1.0000
  N   N136      1.0  0.67613  0.82730  0.51537  1.0000
  Fe  Fe275     1.0  0.67483  0.71625  0.60206  1.0000
  Fe  Fe276     1.0  0.51457  0.76176  0.32536  1.0000
  H   H2444     1.0  0.60241  0.70063  0.46864  1.0000
  H   H2445     1.0  0.70086  0.80821  0.52481  1.0000
  C   C2028     1.0  0.63033  0.68729  0.32802  1.0000
  S   S550      1.0  0.64587  0.60782  0.31139  1.0000
  H   H2446     1.0  0.70067  0.71718  0.47913  1.0000
  H   H2447     1.0  0.66369  0.56752  0.38856  1.0000
  C   C2029     1.0  0.69254  0.74445  0.50072  1.0000
  H   H2448     1.0  0.67090  0.53835  0.37669  1.0000
  C   C2030     1.0  0.68141  0.75089  0.46309  1.0000
  H   H2449     1.0  0.61865  0.51969  0.37235  1.0000
  C   C2031     1.0  0.50493  0.67198  0.32354  1.0000
  S   S551      1.0  0.71476  0.93436  0.34155  1.0000
  C   C2032     1.0  0.70959  0.77467  0.49837  1.0000
  C   C2033     1.0  0.71024  0.81058  0.60801  1.0000
  H   H2450     1.0  0.53281  0.68723  0.32768  1.0000
  C   C2034     1.0  0.62024  0.55615  0.40417  1.0000
  C   C2035     1.0  0.69669  0.79371  0.58565  1.0000
  H   H2451     1.0  0.61226  0.53230  0.39973  1.0000
  H   H2452     1.0  0.57036  0.81816  0.33409  1.0000
  H   H2453     1.0  0.68542  0.73298  0.50230  1.0000
  C   C2036     1.0  0.64944  0.78138  0.51698  1.0000
  Fe  Fe277     1.0  0.74061  0.86585  0.43136  1.0000
  H   H2454     1.0  0.58460  0.65382  0.34103  1.0000
  H   H2455     1.0  0.60606  0.56180  0.41142  1.0000
  C   C2037     1.0  0.63410  0.51722  0.36610  1.0000
  H   H2456     1.0  0.73897  0.87246  0.48074  1.0000
  C   C2038     1.0  0.65896  0.54445  0.32172  1.0000
  H   H2457     1.0  0.68049  0.74787  0.44950  1.0000
  S   S552      1.0  0.71973  0.81951  0.62252  1.0000
  C   C2039     1.0  0.50961  0.65248  0.35547  1.0000
  H   H2458     1.0  0.72762  0.75443  0.44812  1.0000
  H   H2459     1.0  0.71095  0.90897  0.31634  1.0000
  H   H2460     1.0  0.73520  0.88875  0.45883  1.0000
  C   C2040     1.0  0.68642  0.83546  0.49615  1.0000
  H   H2461     1.0  0.63161  0.57944  0.40605  1.0000
  C   C2041     1.0  0.68190  0.78516  0.41533  1.0000
  C   C2042     1.0  0.69796  0.79351  0.40930  1.0000
  C   C2043     1.0  0.69993  0.80695  0.41859  1.0000
  C   C2044     1.0  0.68562  0.81241  0.43367  1.0000
  C   C2045     1.0  0.66930  0.80453  0.43930  1.0000
  C   C2046     1.0  0.66748  0.79085  0.43022  1.0000
  H   H2462     1.0  0.70907  0.78927  0.39766  1.0000
  H   H2463     1.0  0.71249  0.81308  0.41409  1.0000
  H   H2464     1.0  0.65807  0.80896  0.45077  1.0000
  H   H2465     1.0  0.65490  0.78476  0.43467  1.0000
  C   C2047     1.0  0.57432  0.75080  0.37833  1.0000
  C   C2048     1.0  0.59007  0.75694  0.37983  1.0000
  C   C2049     1.0  0.59638  0.75169  0.39707  1.0000
  C   C2050     1.0  0.58669  0.74067  0.41312  1.0000
  C   C2051     1.0  0.57066  0.73485  0.41177  1.0000
  C   C2052     1.0  0.56460  0.73971  0.39434  1.0000
  H   H2466     1.0  0.59764  0.76555  0.36752  1.0000
  H   H2467     1.0  0.60852  0.75654  0.39803  1.0000
  H   H2468     1.0  0.56304  0.72638  0.42417  1.0000
  H   H2469     1.0  0.55242  0.73493  0.39331  1.0000
  C   C2053     1.0  0.66432  0.66625  0.39598  1.0000
  C   C2054     1.0  0.64931  0.66076  0.41047  1.0000
  C   C2055     1.0  0.64078  0.64625  0.40939  1.0000
  C   C2056     1.0  0.64686  0.63758  0.39358  1.0000
  C   C2057     1.0  0.66173  0.64324  0.37901  1.0000
  C   C2058     1.0  0.67059  0.65732  0.38035  1.0000
  H   H2470     1.0  0.64444  0.66750  0.42259  1.0000
  H   H2471     1.0  0.62927  0.64194  0.42069  1.0000
  H   H2472     1.0  0.66653  0.63663  0.36678  1.0000
  H   H2473     1.0  0.68224  0.66145  0.36914  1.0000
  C   C2059     1.0  0.65511  0.71403  0.50417  1.0000
  C   C2060     1.0  0.66308  0.70740  0.52050  1.0000
  C   C2061     1.0  0.65538  0.71597  0.53638  1.0000
  C   C2062     1.0  0.63926  0.73084  0.53625  1.0000
  C   C2063     1.0  0.63109  0.73724  0.52003  1.0000
  C   C2064     1.0  0.63921  0.72914  0.50390  1.0000
  H   H2474     1.0  0.67538  0.69568  0.52082  1.0000
  H   H2475     1.0  0.66170  0.71081  0.54885  1.0000
  H   H2476     1.0  0.61855  0.74866  0.51989  1.0000
  H   H2477     1.0  0.63302  0.73438  0.49139  1.0000
  S   S553      1.0  0.64057  0.76553  0.59079  1.0000
  H   H2478     1.0  0.71087  0.89913  0.36857  1.0000
  H   H2479     1.0  0.58611  0.73966  0.47388  1.0000
  N   N137      1.0  0.58934  0.71238  0.49388  1.0000
  C   C2065     1.0  0.56951  0.71709  0.50465  1.0000
  C   C2066     1.0  0.59561  0.73054  0.48370  1.0000
  C   C2067     1.0  0.58896  0.70191  0.47947  1.0000
  C   C2068     1.0  0.60247  0.70124  0.50678  1.0000
  C   C2069     1.0  0.61808  0.68645  0.50150  1.0000
  C   C2070     1.0  0.60096  0.70609  0.52445  1.0000
  C   C2071     1.0  0.63075  0.67662  0.51356  1.0000
  C   C2072     1.0  0.61368  0.69611  0.53643  1.0000
  C   C2073     1.0  0.62849  0.68135  0.53103  1.0000
  H   H2480     1.0  0.56756  0.72794  0.51324  1.0000
  H   H2481     1.0  0.55924  0.72362  0.49497  1.0000
  H   H2482     1.0  0.56504  0.70395  0.51430  1.0000
  H   H2483     1.0  0.59600  0.73920  0.49372  1.0000
  C   C2074     1.0  0.71291  0.81742  0.58826  1.0000
  H   H2484     1.0  0.61017  0.72760  0.47488  1.0000
  H   H2485     1.0  0.58614  0.68727  0.48628  1.0000
  C   C2075     1.0  0.66600  0.50744  0.37139  1.0000
  H   H2486     1.0  0.62117  0.68257  0.48785  1.0000
  H   H2487     1.0  0.59046  0.71807  0.52893  1.0000
  H   H2488     1.0  0.64291  0.66583  0.50896  1.0000
  H   H2489     1.0  0.61258  0.70042  0.54960  1.0000
  H   H2490     1.0  0.63874  0.67413  0.54003  1.0000
  S   S554      1.0  0.56798  0.75680  0.35592  1.0000
  H   H2491     1.0  0.72815  0.83483  0.54052  1.0000
  S   S555      1.0  0.51099  0.73265  0.32526  1.0000
  Fe  Fe278     1.0  0.51273  0.72579  0.35598  1.0000
  H   H2492     1.0  0.65949  0.80304  0.54673  1.0000
  S   S556      1.0  0.67712  0.73442  0.57233  1.0000
  C   C2076     1.0  0.70932  0.72604  0.46729  1.0000
  Fe  Fe279     1.0  0.54541  0.74588  0.34906  1.0000
  C   C2077     1.0  0.64262  0.55393  0.31441  1.0000
  H   H2493     1.0  0.71595  0.78661  0.49743  1.0000
  H   H2494     1.0  0.73825  0.76981  0.57253  1.0000
  C   C2078     1.0  0.65273  0.55933  0.39136  1.0000
  S   S557      1.0  0.59168  0.62203  0.32287  1.0000
  S   S558      1.0  0.73314  0.83385  0.50152  1.0000
  H   H2495     1.0  0.62521  0.50060  0.40287  1.0000
  C   C2079     1.0  0.66661  0.66932  0.62662  1.0000
  H   H2496     1.0  0.50475  0.64012  0.35375  1.0000
  H   H2497     1.0  0.72570  0.77277  0.54467  1.0000
  H   H2498     1.0  0.70970  0.72109  0.45426  1.0000
  H   H2499     1.0  0.59751  0.76678  0.62901  1.0000
  C   C2080     1.0  0.73875  0.77755  0.54288  1.0000
  Fe  Fe280     1.0  0.65754  0.62774  0.32114  1.0000
  H   H2500     1.0  0.63653  0.53014  0.35473  1.0000
  H   H2501     1.0  0.68879  0.49242  0.61059  1.0000
  C   C2081     1.0  0.73653  0.88796  0.47359  1.0000
  H   H2502     1.0  0.63624  0.56867  0.31551  1.0000
  C   C2082     1.0  0.59936  0.71329  0.31500  1.0000
  H   H2503     1.0  0.73500  0.92545  0.47138  1.0000
  H   H2504     1.0  0.72252  0.89546  0.48060  1.0000
  H   H2505     1.0  0.65637  0.78860  0.48643  1.0000
  H   H2506     1.0  0.57953  0.71389  0.63474  1.0000
  H   H2507     1.0  0.68296  0.81726  0.54351  1.0000
  H   H2508     1.0  0.56307  0.77890  0.64082  1.0000
  C   C2083     1.0  0.62705  0.68804  0.31015  1.0000
  C   C2084     1.0  0.68988  0.82096  0.52828  1.0000
  C   C2085     1.0  0.70634  0.80884  0.57711  1.0000
  N   N138      1.0  0.62125  0.69752  0.35940  1.0000
  C   C2086     1.0  0.61823  0.67845  0.37107  1.0000
  C   C2087     1.0  0.64099  0.69906  0.35839  1.0000
  C   C2088     1.0  0.60829  0.71238  0.36948  1.0000
  C   C2089     1.0  0.61808  0.69946  0.34006  1.0000
  H   H2509     1.0  0.73335  0.60353  0.30945  1.0000
  C   C2090     1.0  0.60244  0.71259  0.33296  1.0000
  C   C2091     1.0  0.57359  0.67888  0.32113  1.0000
  Fe  Fe281     1.0  0.54275  0.72478  0.32005  1.0000
  H   H2510     1.0  0.69979  0.77025  0.52887  1.0000
  H   H2511     1.0  0.62848  0.66644  0.36523  1.0000
  H   H2512     1.0  0.61997  0.67654  0.38592  1.0000
  H   H2513     1.0  0.60373  0.67649  0.37178  1.0000
  H   H2514     1.0  0.64423  0.71267  0.34867  1.0000
  H   H2515     1.0  0.65179  0.68691  0.35338  1.0000
  H   H2516     1.0  0.64344  0.69883  0.37262  1.0000
  H   H2517     1.0  0.61143  0.71105  0.38369  1.0000
  H   H2518     1.0  0.60966  0.72710  0.36117  1.0000
  H   H2519     1.0  0.59318  0.71119  0.37223  1.0000
  H   H2520     1.0  0.54588  0.82081  0.34719  1.0000
  H   H2521     1.0  0.59221  0.72233  0.34107  1.0000
  C   C2092     1.0  0.71019  0.76876  0.48180  1.0000
  H   H2522     1.0  0.67444  0.76616  0.46315  1.0000
  C   C2093     1.0  0.58437  0.64676  0.31481  1.0000
  C   C2094     1.0  0.66763  0.81117  0.51566  1.0000
  H   H2523     1.0  0.73541  0.88187  0.54063  1.0000
  N   N139      1.0  0.64585  0.51391  0.38046  1.0000
  H   H2524     1.0  0.70048  0.62068  0.32004  1.0000
  H   H2525     1.0  0.73402  0.66643  0.33841  1.0000
  C   C2095     1.0  0.69202  0.75044  0.51717  1.0000
  C   C2096     1.0  0.64237  0.53173  0.38762  1.0000
  C   C2097     1.0  0.66695  0.52532  0.32035  1.0000
  H   H2526     1.0  0.66820  0.49400  0.36619  1.0000
  H   H2527     1.0  0.67674  0.84222  0.48591  1.0000
  H   H2528     1.0  0.70498  0.67128  0.32605  1.0000
  S   S559      1.0  0.54625  0.75450  0.31761  1.0000
  H   H2529     1.0  0.69807  0.79042  0.63181  1.0000
  H   H2530     1.0  0.53669  0.78827  0.33860  1.0000
  H   H2531     1.0  0.71720  0.77668  0.46859  1.0000
  H   H2532     1.0  0.67561  0.50443  0.38153  1.0000
  H   H2533     1.0  0.63745  0.50477  0.35908  1.0000
  H   H2534     1.0  0.49740  0.66181  0.36310  1.0000
  H   H2535     1.0  0.73031  0.88280  0.50958  1.0000
  C   C2098     1.0  0.56675  0.79756  0.31104  1.0000
  C   C2099     1.0  0.52489  0.67907  0.34072  1.0000
  N   N140      1.0  0.51818  0.66353  0.33684  1.0000
  H   H2536     1.0  0.65816  0.50127  0.63358  1.0000
  H   H2537     1.0  0.70888  0.81382  0.56183  1.0000
  H   H2538     1.0  0.57791  0.70972  0.47091  1.0000
  Fe  Fe282     1.0  0.72762  0.95862  0.32139  1.0000
  C   C2100     1.0  0.64059  0.49791  0.39637  1.0000
  H   H2539     1.0  0.68599  0.77580  0.61219  1.0000
  H   H2540     1.0  0.53036  0.63839  0.32482  1.0000
  C   C2101     1.0  0.65784  0.65480  0.63921  1.0000
  C   C2102     1.0  0.71881  0.66933  0.31661  1.0000
  C   C2103     1.0  0.71889  0.90636  0.37362  1.0000
  H   H2541     1.0  0.70650  0.77270  0.44468  1.0000
  H   H2542     1.0  0.72026  0.82912  0.58160  1.0000
  H   H2543     1.0  0.72402  0.72231  0.46993  1.0000
  S   S560      1.0  0.64328  0.71897  0.60738  1.0000
  H   H2544     1.0  0.52178  0.81193  0.33496  1.0000
  S   S561      1.0  0.49398  0.70789  0.37836  1.0000
  H   H2545     1.0  0.64435  0.77727  0.54735  1.0000
  C   C2104     1.0  0.68452  0.67080  0.62796  1.0000
  C   C2105     1.0  0.66623  0.80655  0.49874  1.0000
  H   H2546     1.0  0.67188  0.81410  0.48470  1.0000
  S   S562      1.0  0.51371  0.75580  0.35674  1.0000
  H   H2547     1.0  0.65005  0.84796  0.51283  1.0000
  H   H2548     1.0  0.69338  0.84696  0.49652  1.0000
  C   C2106     1.0  0.69354  0.78730  0.60542  1.0000
  H   H2549     1.0  0.57106  0.68844  0.33064  1.0000
  H   H2550     1.0  0.51997  0.64645  0.36509  1.0000
  C   C2107     1.0  0.65820  0.51542  0.31258  1.0000
  C   C2108     1.0  0.66081  0.84291  0.52203  1.0000
  H   H2551     1.0  0.58715  0.72309  0.30998  1.0000
  C   C2109     1.0  0.58140  0.65931  0.32695  1.0000
  S   S563      1.0  0.68909  0.78285  0.57124  1.0000
  C   C2110     1.0  0.65052  0.78550  0.53379  1.0000
  H   H2552     1.0  0.65978  0.67896  0.61550  1.0000
  H   H2553     1.0  0.67274  0.74195  0.47473  1.0000
  S   S564      1.0  0.54454  0.71523  0.35089  1.0000
  C   C2111     1.0  0.70054  0.76551  0.51604  1.0000
  H   H2554     1.0  0.71173  0.75204  0.43482  1.0000
  S   S565      1.0  0.67315  0.74084  0.61503  1.0000
  C   C2112     1.0  0.63461  0.56612  0.40118  1.0000
  H   H2555     1.0  0.55071  0.84811  0.32480  1.0000
  H   H2556     1.0  0.66437  0.50062  0.31204  1.0000
  Fe  Fe283     1.0  0.73942  0.83731  0.46963  1.0000
  C   C2113     1.0  0.73570  0.90701  0.39729  1.0000
  S   S566      1.0  0.49664  0.78822  0.31059  1.0000
  C   C2114     1.0  0.54712  0.84727  0.31194  1.0000
  H   H2557     1.0  0.72913  0.93152  0.63841  1.0000
  H   H2558     1.0  0.73547  0.94760  0.36209  1.0000
  S   S567      1.0  0.73792  0.81329  0.45726  1.0000
  S   S568      1.0  0.73841  0.84441  0.41597  1.0000
  H   H2559     1.0  0.54275  0.65763  0.31467  1.0000
  H   H2560     1.0  0.73539  0.96132  0.60183  1.0000
  H   H2561     1.0  0.64419  0.65343  0.63781  1.0000
  H   H2562     1.0  0.60107  0.69680  0.63797  1.0000
  H   H2563     1.0  0.70012  0.49137  0.62960  1.0000
  C   C2115     1.0  0.69363  0.65763  0.64195  1.0000
  C   C2116     1.0  0.73381  0.98452  0.61504  1.0000
  H   H2564     1.0  0.69132  0.51311  0.81898  1.0000
  Fe  Fe284     1.0  0.52594  0.71537  0.72534  1.0000
  S   S569      1.0  0.54106  0.73704  0.72766  1.0000
  S   S570      1.0  0.54074  0.68545  0.72141  1.0000
  Fe  Fe285     1.0  0.51412  0.74683  0.74794  1.0000
  Fe  Fe286     1.0  0.52601  0.75622  0.70472  1.0000
  S   S571      1.0  0.53979  0.77529  0.67855  1.0000
  S   S572      1.0  0.51224  0.73408  0.70122  1.0000
  Fe  Fe287     1.0  0.63852  0.62590  0.73673  1.0000
  S   S573      1.0  0.63132  0.61005  0.71870  1.0000
  S   S574      1.0  0.61767  0.64895  0.75074  1.0000
  Fe  Fe288     1.0  0.67939  0.60387  0.73218  1.0000
  S   S575      1.0  0.67558  0.58657  0.71314  1.0000
  S   S576      1.0  0.70750  0.59689  0.74131  1.0000
  Fe  Fe289     1.0  0.65896  0.61458  0.69924  1.0000
  S   S577      1.0  0.65529  0.62393  0.66885  1.0000
  Fe  Fe290     1.0  0.64830  0.58358  0.73406  1.0000
  S   S578      1.0  0.63734  0.55612  0.74653  1.0000
  S   S579      1.0  0.66523  0.63232  0.71626  1.0000
  S   S580      1.0  0.65320  0.59891  0.75410  1.0000
  C   C2117     1.0  0.73765  0.70408  0.86258  1.0000
  H   H2565     1.0  0.55277  0.65635  0.77867  1.0000
  H   H2566     1.0  0.65802  0.96094  0.76936  1.0000
  Fe  Fe291     1.0  0.52021  0.85646  0.81364  1.0000
  S   S581      1.0  0.62583  0.98071  0.79517  1.0000
  S   S582      1.0  0.61636  0.86760  0.94129  1.0000
  C   C2118     1.0  0.68452  0.64354  0.65505  1.0000
  H   H2567     1.0  0.59658  0.71950  0.64453  1.0000
  H   H2568     1.0  0.65650  0.92723  0.94304  1.0000
  H   H2569     1.0  0.60414  0.69882  0.71680  1.0000
  H   H2570     1.0  0.68997  0.79670  0.95014  1.0000
  C   C2119     1.0  0.58975  0.70774  0.64448  1.0000
  Fe  Fe292     1.0  0.60634  0.96610  0.82027  1.0000
  S   S583      1.0  0.62970  0.94756  0.83483  1.0000
  S   S584      1.0  0.58008  0.95487  0.82288  1.0000
  Fe  Fe293     1.0  0.62560  0.97166  0.84924  1.0000
  S   S585      1.0  0.62307  0.96637  0.88077  1.0000
  Fe  Fe294     1.0  0.64891  0.96376  0.81123  1.0000
  S   S586      1.0  0.67872  0.94910  0.80005  1.0000
  C   C2120     1.0  0.68699  0.79394  0.96598  1.0000
  Fe  Fe295     1.0  0.64468  0.86032  0.92229  1.0000
  S   S587      1.0  0.66447  0.88060  0.90831  1.0000
  S   S588      1.0  0.58078  0.86927  0.91032  1.0000
  S   S589      1.0  0.63380  0.84850  0.90348  1.0000
  Fe  Fe296     1.0  0.56005  0.86488  0.80225  1.0000
  S   S590      1.0  0.53740  0.86620  0.82873  1.0000
  S   S591      1.0  0.57944  0.88585  0.78775  1.0000
  Fe  Fe297     1.0  0.55358  0.82702  0.79861  1.0000
  S   S592      1.0  0.53060  0.82505  0.82493  1.0000
  S   S593      1.0  0.56522  0.80417  0.78120  1.0000
  Fe  Fe298     1.0  0.54971  0.83482  0.83772  1.0000
  S   S594      1.0  0.55586  0.81995  0.86684  1.0000
  S   S595      1.0  0.54188  0.85782  0.78619  1.0000
  S   S596      1.0  0.57362  0.83410  0.81235  1.0000
  Fe  Fe299     1.0  0.62440  0.83774  0.95842  1.0000
  H   H2571     1.0  0.59866  0.80139  0.86480  1.0000
  H   H2572     1.0  0.65855  0.68295  0.66608  1.0000
  C   C2121     1.0  0.49611  0.93204  0.79299  1.0000
  H   H2573     1.0  0.64548  0.70723  0.66455  1.0000
  C   C2122     1.0  0.65021  0.51425  0.70695  1.0000
  C   C2123     1.0  0.72361  0.54515  0.76750  1.0000
  H   H2574     1.0  0.73491  0.55840  0.80322  1.0000
  C   C2124     1.0  0.53554  0.63116  0.75737  1.0000
  H   H2575     1.0  0.52491  0.65855  0.76546  1.0000
  C   C2125     1.0  0.63804  0.52192  0.73824  1.0000
  Fe  Fe300     1.0  0.73473  0.69744  0.93469  1.0000
  H   H2576     1.0  0.60223  0.58391  0.73845  1.0000
  C   C2126     1.0  0.53634  0.64592  0.76534  1.0000
  H   H2577     1.0  0.58832  0.90595  0.87069  1.0000
  H   H2578     1.0  0.52326  0.63228  0.75157  1.0000
  H   H2579     1.0  0.73497  0.56877  0.87743  1.0000
  C   C2127     1.0  0.67307  0.95815  0.76335  1.0000
  C   C2128     1.0  0.61584  0.87464  0.86204  1.0000
  S   S597      1.0  0.50056  0.76806  0.72513  1.0000
  C   C2129     1.0  0.64117  0.90436  0.80612  1.0000
  C   C2130     1.0  0.57299  0.85570  0.89882  1.0000
  C   C2131     1.0  0.56776  0.86427  0.88119  1.0000
  C   C2132     1.0  0.56252  0.85340  0.87126  1.0000
  C   C2133     1.0  0.56183  0.83408  0.87922  1.0000
  C   C2134     1.0  0.56665  0.82563  0.89705  1.0000
  C   C2135     1.0  0.57244  0.83635  0.90674  1.0000
  H   H2580     1.0  0.56805  0.87927  0.87505  1.0000
  H   H2581     1.0  0.55899  0.86002  0.85749  1.0000
  H   H2582     1.0  0.56611  0.81069  0.90330  1.0000
  H   H2583     1.0  0.57633  0.82969  0.92041  1.0000
  C   C2136     1.0  0.68619  0.95198  0.77530  1.0000
  C   C2137     1.0  0.70568  0.94803  0.76745  1.0000
  C   C2138     1.0  0.71208  0.95056  0.74766  1.0000
  C   C2139     1.0  0.51845  0.77821  0.83510  1.0000
  H   H2584     1.0  0.71586  0.94317  0.77669  1.0000
  H   H2585     1.0  0.67168  0.89305  0.94279  1.0000
  C   C2140     1.0  0.58130  0.93463  0.81400  1.0000
  C   C2141     1.0  0.56757  0.92333  0.82251  1.0000
  C   C2142     1.0  0.56751  0.90767  0.81517  1.0000
  C   C2143     1.0  0.58063  0.90377  0.79876  1.0000
  C   C2144     1.0  0.59444  0.91498  0.79032  1.0000
  C   C2145     1.0  0.59495  0.93023  0.79807  1.0000
  H   H2586     1.0  0.55693  0.92676  0.83479  1.0000
  H   H2587     1.0  0.55699  0.89899  0.82187  1.0000
  H   H2588     1.0  0.60461  0.91204  0.77757  1.0000
  H   H2589     1.0  0.60547  0.93899  0.79135  1.0000
  C   C2146     1.0  0.63468  0.94267  0.88861  1.0000
  C   C2147     1.0  0.65221  0.93501  0.87810  1.0000
  C   C2148     1.0  0.66149  0.91605  0.88447  1.0000
  C   C2149     1.0  0.65288  0.90446  0.90089  1.0000
  C   C2150     1.0  0.63511  0.91198  0.91112  1.0000
  C   C2151     1.0  0.62620  0.93120  0.90521  1.0000
  H   H2590     1.0  0.65876  0.94380  0.86519  1.0000
  H   H2591     1.0  0.67521  0.91027  0.87647  1.0000
  H   H2592     1.0  0.62828  0.90312  0.92366  1.0000
  H   H2593     1.0  0.61250  0.93703  0.91319  1.0000
  C   C2152     1.0  0.66004  0.69821  0.66221  1.0000
  S   S598      1.0  0.50050  0.72311  0.74794  1.0000
  S   S599      1.0  0.50795  0.75744  0.77506  1.0000
  C   C2153     1.0  0.60699  0.78416  0.69546  1.0000
  H   H2594     1.0  0.63158  0.51779  0.75308  1.0000
  C   C2154     1.0  0.66349  0.83946  0.84765  1.0000
  C   C2155     1.0  0.70664  0.79437  0.91214  1.0000
  H   H2595     1.0  0.59849  0.60016  0.78118  1.0000
  C   C2156     1.0  0.70791  0.60604  0.76079  1.0000
  C   C2157     1.0  0.69188  0.61807  0.76920  1.0000
  C   C2158     1.0  0.69269  0.62551  0.78446  1.0000
  C   C2159     1.0  0.70951  0.62101  0.79139  1.0000
  H   H2596     1.0  0.68149  0.54384  0.72580  1.0000
  H   H2597     1.0  0.61479  0.89744  0.82198  1.0000
  H   H2598     1.0  0.67893  0.62185  0.76381  1.0000
  H   H2599     1.0  0.68031  0.63496  0.79078  1.0000
  H   H2600     1.0  0.59805  0.82584  0.85321  1.0000
  H   H2601     1.0  0.64598  0.79001  0.87588  1.0000
  H   H2602     1.0  0.52315  0.90888  0.82593  1.0000
  C   C2160     1.0  0.66458  0.49031  0.64492  1.0000
  C   C2161     1.0  0.68431  0.51352  0.80773  1.0000
  H   H2603     1.0  0.63918  0.49467  0.73200  1.0000
  H   H2604     1.0  0.71013  0.67409  0.88988  1.0000
  C   C2162     1.0  0.60301  0.75301  0.65702  1.0000
  C   C2163     1.0  0.53118  0.78440  0.86469  1.0000
  C   C2164     1.0  0.63242  0.83720  0.83446  1.0000
  H   H2605     1.0  0.71266  0.74676  0.91334  1.0000
  H   H2606     1.0  0.66617  0.54497  0.77111  1.0000
  C   C2165     1.0  0.64981  0.54585  0.71165  1.0000
  C   C2166     1.0  0.64198  0.54038  0.73100  1.0000
  H   H2607     1.0  0.65988  0.53716  0.68468  1.0000
  H   H2608     1.0  0.65271  0.56013  0.70586  1.0000
  C   C2167     1.0  0.52391  0.77049  0.77646  1.0000
  C   C2168     1.0  0.51693  0.78747  0.78331  1.0000
  C   C2169     1.0  0.52950  0.79784  0.78507  1.0000
  C   C2170     1.0  0.54911  0.79121  0.77990  1.0000
  C   C2171     1.0  0.55608  0.77425  0.77296  1.0000
  C   C2172     1.0  0.54350  0.76386  0.77129  1.0000
  H   H2609     1.0  0.52406  0.81102  0.79025  1.0000
  H   H2610     1.0  0.57125  0.76907  0.76902  1.0000
  H   H2611     1.0  0.54893  0.75061  0.76621  1.0000
  C   C2173     1.0  0.56213  0.67578  0.72952  1.0000
  C   C2174     1.0  0.56704  0.68359  0.74233  1.0000
  C   C2175     1.0  0.58401  0.67512  0.74899  1.0000
  C   C2176     1.0  0.59630  0.65913  0.74251  1.0000
  C   C2177     1.0  0.59140  0.65156  0.72954  1.0000
  C   C2178     1.0  0.57429  0.65971  0.72324  1.0000
  H   H2612     1.0  0.55761  0.69589  0.74740  1.0000
  H   H2613     1.0  0.58770  0.68105  0.75904  1.0000
  H   H2614     1.0  0.60081  0.63956  0.72420  1.0000
  H   H2615     1.0  0.57056  0.65363  0.71333  1.0000
  C   C2179     1.0  0.56408  0.76648  0.67035  1.0000
  C   C2180     1.0  0.57568  0.75569  0.68318  1.0000
  C   C2181     1.0  0.59509  0.74905  0.67653  1.0000
  H   H2616     1.0  0.73843  0.60519  0.78838  1.0000
  H   H2617     1.0  0.66598  0.70164  0.64663  1.0000
  H   H2618     1.0  0.73708  0.59197  0.76150  1.0000
  H   H2619     1.0  0.56985  0.75277  0.69826  1.0000
  H   H2620     1.0  0.60405  0.74100  0.68658  1.0000
  H   H2621     1.0  0.72371  0.64461  0.87684  1.0000
  C   C2182     1.0  0.72463  0.60128  0.76791  1.0000
  C   C2183     1.0  0.70581  0.57890  0.85680  1.0000
  C   C2184     1.0  0.65387  0.53282  0.69966  1.0000
  N   N141      1.0  0.62365  0.81161  0.86402  1.0000
  H   H2622     1.0  0.63108  0.67207  0.71001  1.0000
  H   H2623     1.0  0.67684  0.90860  0.82423  1.0000
  C   C2185     1.0  0.63509  0.79170  0.86742  1.0000
  H   H2624     1.0  0.67921  0.90902  0.96298  1.0000
  S   S600      1.0  0.65373  0.83155  0.94081  1.0000
  H   H2625     1.0  0.70074  0.68966  0.67825  1.0000
  C   C2186     1.0  0.67577  0.72138  0.66588  1.0000
  H   H2626     1.0  0.66852  0.91170  0.79343  1.0000
  C   C2187     1.0  0.58880  0.59482  0.74101  1.0000
  H   H2627     1.0  0.52638  0.91211  0.77361  1.0000
  H   H2628     1.0  0.60684  0.83220  0.88066  1.0000
  H   H2629     1.0  0.66329  0.66822  0.73741  1.0000
  H   H2630     1.0  0.73592  0.70126  0.87837  1.0000
  C   C2188     1.0  0.62810  0.89990  0.82307  1.0000
  C   C2189     1.0  0.54769  0.96557  0.79047  1.0000
  C   C2190     1.0  0.69525  0.59062  0.84335  1.0000
  C   C2191     1.0  0.64467  0.92216  0.95429  1.0000
  H   H2631     1.0  0.50177  0.79270  0.78702  1.0000
  H   H2632     1.0  0.65281  0.76800  0.97527  1.0000
  H   H2633     1.0  0.59264  0.80351  0.65349  1.0000
  C   C2192     1.0  0.67035  0.53141  0.78073  1.0000
  H   H2634     1.0  0.54791  0.76652  0.82457  1.0000
  C   C2193     1.0  0.67946  0.96030  0.74358  1.0000
  H   H2635     1.0  0.73263  0.56237  0.73085  1.0000
  H   H2636     1.0  0.68044  0.81519  0.91025  1.0000
  H   H2637     1.0  0.72706  0.69746  0.85983  1.0000
  H   H2638     1.0  0.68142  0.54410  0.79727  1.0000
  C   C2194     1.0  0.69363  0.53394  0.73077  1.0000
  Fe  Fe301     1.0  0.73794  0.62396  0.82008  1.0000
  H   H2639     1.0  0.50616  0.95395  0.81619  1.0000
  H   H2640     1.0  0.56877  0.72782  0.67010  1.0000
  H   H2641     1.0  0.58317  0.67195  0.65738  1.0000
  H   H2642     1.0  0.61958  0.77611  0.70093  1.0000
  C   C2195     1.0  0.72176  0.52797  0.74461  1.0000
  C   C2196     1.0  0.60806  0.78974  0.67587  1.0000
  H   H2643     1.0  0.72715  0.94760  0.74169  1.0000
  C   C2197     1.0  0.66667  0.64203  0.65355  1.0000
  N   N142      1.0  0.51425  0.92292  0.79942  1.0000
  H   H2644     1.0  0.54943  0.92657  0.77415  1.0000
  C   C2198     1.0  0.70564  0.76166  0.91278  1.0000
  H   H2645     1.0  0.63809  0.93333  0.96293  1.0000
  C   C2199     1.0  0.52575  0.93762  0.79586  1.0000
  C   C2200     1.0  0.54326  0.93754  0.78241  1.0000
  C   C2201     1.0  0.72806  0.66601  0.91047  1.0000
  S   S601      1.0  0.73799  0.51796  0.80885  1.0000
  C   C2202     1.0  0.65956  0.88893  0.95426  1.0000
  H   H2646     1.0  0.70072  0.79195  0.97031  1.0000
  C   C2203     1.0  0.71295  0.50198  0.73600  1.0000
  C   C2204     1.0  0.65870  0.68081  0.72684  1.0000
  H   H2647     1.0  0.73344  0.71984  0.85709  1.0000
  H   H2648     1.0  0.67238  0.48787  0.75699  1.0000
  H   H2649     1.0  0.55914  0.77224  0.85072  1.0000
  H   H2650     1.0  0.70360  0.53328  0.88711  1.0000
  C   C2205     1.0  0.72544  0.60875  0.78315  1.0000
  H   H2651     1.0  0.71649  0.53499  0.77935  1.0000
  H   H2652     1.0  0.68804  0.50979  0.72372  1.0000
  C   C2206     1.0  0.72500  0.50836  0.74348  1.0000
  H   H2653     1.0  0.71441  0.80474  0.91248  1.0000
  C   C2207     1.0  0.69243  0.58324  0.82916  1.0000
  H   H2654     1.0  0.68476  0.59262  0.81843  1.0000
  C   C2208     1.0  0.52387  0.90698  0.78935  1.0000
  H   H2655     1.0  0.58953  0.78355  0.72308  1.0000
  H   H2656     1.0  0.68065  0.67160  0.70475  1.0000
  C   C2209     1.0  0.69136  0.76036  0.96700  1.0000
  N   N143      1.0  0.55469  0.80311  0.71487  1.0000
  C   C2210     1.0  0.54862  0.78477  0.72469  1.0000
  C   C2211     1.0  0.55697  0.81244  0.72932  1.0000
  C   C2212     1.0  0.53906  0.81595  0.70566  1.0000
  C   C2213     1.0  0.57293  0.79904  0.70127  1.0000
  H   H2657     1.0  0.56102  0.68808  0.65502  1.0000
  C   C2214     1.0  0.57450  0.80433  0.68117  1.0000
  H   H2658     1.0  0.70247  0.55571  0.73810  1.0000
  C   C2215     1.0  0.59186  0.79978  0.66875  1.0000
  C   C2216     1.0  0.62269  0.89743  0.87580  1.0000
  H   H2659     1.0  0.55934  0.77451  0.73245  1.0000
  H   H2660     1.0  0.53499  0.78703  0.73523  1.0000
  H   H2661     1.0  0.54643  0.77758  0.71430  1.0000
  H   H2662     1.0  0.54327  0.81642  0.73927  1.0000
  H   H2663     1.0  0.56265  0.82573  0.72245  1.0000
  H   H2664     1.0  0.56670  0.80292  0.73865  1.0000
  H   H2665     1.0  0.53526  0.80905  0.69590  1.0000
  H   H2666     1.0  0.52576  0.81928  0.71633  1.0000
  H   H2667     1.0  0.54294  0.82987  0.69750  1.0000
  C   C2217     1.0  0.72899  0.64658  0.88828  1.0000
  H   H2668     1.0  0.56242  0.81147  0.67462  1.0000
  C   C2218     1.0  0.57199  0.77048  0.65080  1.0000
  C   C2219     1.0  0.71561  0.77497  0.91362  1.0000
  C   C2220     1.0  0.63596  0.82504  0.85212  1.0000
  H   H2669     1.0  0.61300  0.58756  0.76347  1.0000
  H   H2670     1.0  0.59083  0.60858  0.73080  1.0000
  S   S602      1.0  0.71013  0.63083  0.81037  1.0000
  S   S603      1.0  0.65256  0.79335  0.91261  1.0000
  H   H2671     1.0  0.57394  0.58105  0.78883  1.0000
  C   C2221     1.0  0.59887  0.90763  0.85696  1.0000
  Fe  Fe302     1.0  0.60592  0.85357  0.92379  1.0000
  H   H2672     1.0  0.63507  0.65850  0.68195  1.0000
  H   H2673     1.0  0.51518  0.89584  0.79275  1.0000
  C   C2222     1.0  0.65190  0.82656  0.85835  1.0000
  H   H2674     1.0  0.69342  0.76306  0.95123  1.0000
  Fe  Fe303     1.0  0.64002  0.82039  0.92367  1.0000
  H   H2675     1.0  0.69800  0.55832  0.81727  1.0000
  C   C2223     1.0  0.66711  0.51448  0.77827  1.0000
  H   H2676     1.0  0.64920  0.88718  0.94685  1.0000
  S   S604      1.0  0.70674  0.96059  0.71094  1.0000
  C   C2224     1.0  0.67889  0.53094  0.79545  1.0000
  C   C2225     1.0  0.55396  0.95137  0.77982  1.0000
  C   C2226     1.0  0.72131  0.66325  0.89568  1.0000
  H   H2677     1.0  0.62609  0.78114  0.87572  1.0000
  H   H2678     1.0  0.59240  0.90455  0.84657  1.0000
  N   N144      1.0  0.72640  0.54670  0.86941  1.0000
  C   C2227     1.0  0.58971  0.78862  0.70802  1.0000
  C   C2228     1.0  0.59143  0.76357  0.64409  1.0000
  C   C2229     1.0  0.68737  0.80024  0.91109  1.0000
  C   C2230     1.0  0.65959  0.85122  0.83047  1.0000
  H   H2679     1.0  0.64260  0.78732  0.85375  1.0000
  H   H2680     1.0  0.66039  0.51571  0.76664  1.0000
  H   H2681     1.0  0.62462  0.91236  0.87383  1.0000
  H   H2682     1.0  0.50250  0.79685  0.87520  1.0000
  H   H2683     1.0  0.56763  0.95059  0.77005  1.0000
  H   H2684     1.0  0.71408  0.56094  0.89298  1.0000
  H   H2685     1.0  0.70582  0.75758  0.97008  1.0000
  N   N145      1.0  0.58025  0.69960  0.66404  1.0000
  C   C2231     1.0  0.71860  0.52928  0.87958  1.0000
  S   S605      1.0  0.71973  0.72194  0.94916  1.0000
  Fe  Fe304     1.0  0.73736  0.96279  0.70171  1.0000
  C   C2232     1.0  0.59432  0.69270  0.67651  1.0000
  C   C2233     1.0  0.59268  0.70040  0.69259  1.0000
  C   C2234     1.0  0.61028  0.67768  0.67275  1.0000
  C   C2235     1.0  0.60605  0.69321  0.70424  1.0000
  C   C2236     1.0  0.62337  0.67041  0.68471  1.0000
  C   C2237     1.0  0.62125  0.67814  0.70043  1.0000
  H   H2686     1.0  0.64158  0.49280  0.77946  1.0000
  C   C2238     1.0  0.50994  0.91424  0.82011  1.0000
  C   C2239     1.0  0.57226  0.68331  0.66363  1.0000
  H   H2687     1.0  0.68939  0.67284  0.67378  1.0000
  C   C2240     1.0  0.69896  0.95665  0.73572  1.0000
  H   H2688     1.0  0.71663  0.53749  0.84026  1.0000
  C   C2241     1.0  0.51186  0.79001  0.86406  1.0000
  H   H2689     1.0  0.49674  0.84017  0.79533  1.0000
  C   C2242     1.0  0.66854  0.68293  0.70788  1.0000
  H   H2690     1.0  0.58098  0.71167  0.69678  1.0000
  H   H2691     1.0  0.70772  0.58578  0.86708  1.0000
  H   H2692     1.0  0.66250  0.73233  0.66420  1.0000
  C   C2243     1.0  0.64413  0.85006  0.82388  1.0000
  H   H2693     1.0  0.64115  0.85923  0.81046  1.0000
  H   H2694     1.0  0.73686  0.49764  0.74808  1.0000
  H   H2695     1.0  0.67858  0.75707  0.91168  1.0000
  C   C2244     1.0  0.69094  0.68808  0.67001  1.0000
  C   C2245     1.0  0.53042  0.96632  0.80345  1.0000
  H   H2696     1.0  0.65544  0.81785  0.87170  1.0000
  C   C2246     1.0  0.56398  0.71472  0.67035  1.0000
  H   H2697     1.0  0.68278  0.72536  0.67535  1.0000
  H   H2698     1.0  0.66855  0.86129  0.82225  1.0000
  C   C2247     1.0  0.55064  0.61526  0.75644  1.0000
  C   C2248     1.0  0.70570  0.54055  0.73798  1.0000
  H   H2699     1.0  0.61306  0.80687  0.84155  1.0000
  H   H2700     1.0  0.49872  0.93885  0.77753  1.0000
  H   H2701     1.0  0.65481  0.90066  0.85395  1.0000
  H   H2702     1.0  0.56575  0.57642  0.77017  1.0000
  C   C2249     1.0  0.51946  0.95273  0.80598  1.0000
  H   H2703     1.0  0.69806  0.69066  0.65465  1.0000
  C   C2250     1.0  0.55209  0.64468  0.77272  1.0000
  H   H2704     1.0  0.62406  0.72117  0.72289  1.0000
  C   C2251     1.0  0.61515  0.81715  0.88261  1.0000
  H   H2705     1.0  0.55348  0.71943  0.66090  1.0000
  C   C2252     1.0  0.66331  0.90578  0.82400  1.0000
  C   C2253     1.0  0.71058  0.55215  0.84181  1.0000
  N   N146      1.0  0.67835  0.77684  0.97466  1.0000
  H   H2706     1.0  0.64023  0.72486  0.68947  1.0000
  C   C2254     1.0  0.64232  0.50882  0.72630  1.0000
  H   H2707     1.0  0.63756  0.90572  0.79254  1.0000
  H   H2708     1.0  0.67552  0.84039  0.85281  1.0000
  H   H2709     1.0  0.62599  0.81616  0.89079  1.0000
  H   H2710     1.0  0.57942  0.62945  0.77696  1.0000
  H   H2711     1.0  0.61909  0.89568  0.96120  1.0000
  H   H2712     1.0  0.72697  0.51991  0.89030  1.0000
  C   C2255     1.0  0.57803  0.57969  0.77369  1.0000
  H   H2713     1.0  0.62067  0.83713  0.82850  1.0000
  C   C2256     1.0  0.65035  0.90137  0.84104  1.0000
  H   H2714     1.0  0.62974  0.86463  0.86300  1.0000
  H   H2715     1.0  0.61048  0.87211  0.85048  1.0000
  C   C2257     1.0  0.64609  0.71267  0.69962  1.0000
  C   C2258     1.0  0.63659  0.71058  0.71868  1.0000
  H   H2716     1.0  0.57796  0.58962  0.73706  1.0000
  H   H2717     1.0  0.59997  0.92304  0.85243  1.0000
  C   C2259     1.0  0.54412  0.77600  0.85048  1.0000
  C   C2260     1.0  0.60778  0.81147  0.85541  1.0000
  H   H2718     1.0  0.63508  0.69264  0.74691  1.0000
  C   C2261     1.0  0.65864  0.90755  0.80658  1.0000
  H   H2719     1.0  0.60576  0.87059  0.87554  1.0000
  H   H2720     1.0  0.63585  0.88716  0.87921  1.0000
  N   N147      1.0  0.67227  0.70153  0.67336  1.0000
  C   C2262     1.0  0.64278  0.69459  0.73223  1.0000
  C   C2263     1.0  0.67714  0.78672  0.91136  1.0000
  C   C2264     1.0  0.66255  0.69904  0.69366  1.0000
  H   H2721     1.0  0.71261  0.55785  0.76302  1.0000
  N   N148      1.0  0.58352  0.59744  0.76098  1.0000
  C   C2265     1.0  0.68640  0.76754  0.91166  1.0000
  C   C2266     1.0  0.63202  0.89895  0.84102  1.0000
  C   C2267     1.0  0.60078  0.59974  0.76591  1.0000
  H   H2722     1.0  0.58998  0.56695  0.77253  1.0000
  H   H2723     1.0  0.60540  0.61311  0.75707  1.0000
  H   H2724     1.0  0.60554  0.80759  0.89196  1.0000
  H   H2725     1.0  0.52575  0.97728  0.81185  1.0000
  N   N149      1.0  0.61769  0.89481  0.85871  1.0000
  H   H2726     1.0  0.61139  0.89484  0.88881  1.0000
  S   S606      1.0  0.61114  0.82422  0.94269  1.0000
  H   H2727     1.0  0.54928  0.60416  0.75021  1.0000
  H   H2728     1.0  0.62135  0.78583  0.66613  1.0000
  C   C2268     1.0  0.69729  0.51473  0.72966  1.0000
  C   C2269     1.0  0.69989  0.56398  0.82853  1.0000
  H   H2729     1.0  0.55607  0.70952  0.68498  1.0000
  C   C2270     1.0  0.56731  0.61395  0.76302  1.0000
  C   C2271     1.0  0.56742  0.62901  0.77159  1.0000
  H   H2730     1.0  0.61266  0.67119  0.66069  1.0000
  H   H2731     1.0  0.68972  0.60576  0.84351  1.0000
  C   C2272     1.0  0.71412  0.55929  0.85621  1.0000
  H   H2732     1.0  0.53776  0.89961  0.79347  1.0000
  H   H2733     1.0  0.68506  0.72298  0.65142  1.0000
  C   C2273     1.0  0.72817  0.55613  0.88403  1.0000
  H   H2734     1.0  0.69154  0.63348  0.66589  1.0000
  S   S607      1.0  0.71837  0.68736  0.91891  1.0000
  C   C2274     1.0  0.53776  0.77281  0.83579  1.0000
  H   H2735     1.0  0.53625  0.78715  0.87594  1.0000
  H   H2736     1.0  0.67119  0.49805  0.65161  1.0000
  N   N150      1.0  0.73458  0.53550  0.75171  1.0000
  H   H2737     1.0  0.66239  0.78185  0.95267  1.0000
  H   H2738     1.0  0.66929  0.96493  0.73434  1.0000
  N   N151      1.0  0.65134  0.90330  0.96646  1.0000
  H   H2739     1.0  0.73293  0.55063  0.77342  1.0000
  H   H2740     1.0  0.56574  0.67647  0.67834  1.0000
  H   H2741     1.0  0.66482  0.87454  0.96275  1.0000
  S   S608      1.0  0.65542  0.49829  0.69148  1.0000
  S   S609      1.0  0.62756  0.74516  0.64964  1.0000
  H   H2742     1.0  0.50284  0.90187  0.82310  1.0000
  H   H2743     1.0  0.71886  0.52011  0.86978  1.0000
  C   C2275     1.0  0.50493  0.78743  0.84904  1.0000
  H   H2744     1.0  0.65010  0.79354  0.97174  1.0000
  S   S610      1.0  0.73861  0.76727  0.91824  1.0000
  Fe  Fe305     1.0  0.73826  0.70821  0.97061  1.0000
  H   H2745     1.0  0.63387  0.92153  0.94672  1.0000
  H   H2746     1.0  0.73728  0.54624  0.89387  1.0000
  H   H2747     1.0  0.50017  0.92452  0.82860  1.0000
  C   C2276     1.0  0.66015  0.78022  0.96838  1.0000
  C   C2277     1.0  0.66696  0.90518  0.97441  1.0000
  H   H2748     1.0  0.55649  0.97569  0.78904  1.0000
  H   H2749     1.0  0.68568  0.74695  0.97279  1.0000
  C   C2278     1.0  0.68091  0.49652  0.80554  1.0000
  H   H2750     1.0  0.51462  0.77534  0.82327  1.0000
  H   H2751     1.0  0.67756  0.80726  0.97004  1.0000
  C   C2279     1.0  0.67233  0.49646  0.79056  1.0000
  H   H2752     1.0  0.71596  0.48705  0.73494  1.0000
  H   H2753     1.0  0.70765  0.65849  0.64279  1.0000
  H   H2754     1.0  0.88517  0.34785  0.23611  1.0000
  C   C2280     1.0  0.89849  0.30986  0.24130  1.0000
  S   S611      1.0  0.77785  0.43172  0.22992  1.0000
  C   C2281     1.0  0.79915  0.31876  0.00004  1.0000
  S   S612      1.0  0.77077  0.42871  0.14100  1.0000
  H   H2755     1.0  0.82817  0.39803  0.15159  1.0000
  H   H2756     1.0  0.80039  0.35697  0.14049  1.0000
  H   H2757     1.0  0.89243  0.35126  0.25580  1.0000
  H   H2758     1.0  0.81105  0.46506  0.24144  1.0000
  Fe  Fe306     1.0  0.76058  0.44369  0.16554  1.0000
  C   C2282     1.0  0.94754  0.22769  0.30709  1.0000
  Fe  Fe307     1.0  0.88579  0.32199  0.18067  1.0000
  S   S613      1.0  0.89745  0.33852  0.15175  1.0000
  S   S614      1.0  0.89444  0.29020  0.19209  1.0000
  Fe  Fe308     1.0  0.86500  0.35796  0.19534  1.0000
  S   S615      1.0  0.87462  0.37781  0.16798  1.0000
  S   S616      1.0  0.85088  0.36555  0.22352  1.0000
  Fe  Fe309     1.0  0.86801  0.35705  0.15443  1.0000
  S   S617      1.0  0.85203  0.36947  0.13052  1.0000
  Fe  Fe310     1.0  0.90314  0.35773  0.16770  1.0000
  S   S618      1.0  0.93023  0.36896  0.16034  1.0000
  S   S619      1.0  0.85580  0.33894  0.18207  1.0000
  S   S620      1.0  0.89395  0.33966  0.19608  1.0000
  S   S621      1.0  0.74619  0.43118  0.19494  1.0000
  Fe  Fe311     1.0  0.76074  0.34778  0.07249  1.0000
  S   S622      1.0  0.77598  0.31702  0.07912  1.0000
  H   H2759     1.0  0.78705  0.38053  0.15755  1.0000
  Fe  Fe312     1.0  0.78390  0.32504  0.10265  1.0000
  S   S623      1.0  0.81173  0.31265  0.11259  1.0000
  S   S624      1.0  0.77138  0.35640  0.09406  1.0000
  C   C2283     1.0  0.90659  0.29442  0.28111  1.0000
  H   H2760     1.0  0.88451  0.42258  0.17212  1.0000
  S   S625      1.0  0.85416  0.27113  0.27868  1.0000
  S   S626      1.0  0.88623  0.21849  0.28726  1.0000
  C   C2284     1.0  0.75831  0.41188  0.14004  1.0000
  H   H2761     1.0  0.77241  0.10013  0.25019  1.0000
  C   C2285     1.0  0.77847  0.34620  0.19824  1.0000
  H   H2762     1.0  0.74648  0.10268  0.27653  1.0000
  S   S627      1.0  0.77128  0.09139  0.30403  1.0000
  H   H2763     1.0  0.76092  0.07361  0.26742  1.0000
  S   S628      1.0  0.78382  0.18480  0.28837  1.0000
  H   H2764     1.0  0.79299  0.30584  0.03003  1.0000
  H   H2765     1.0  0.75170  0.39023  0.10780  1.0000
  H   H2766     1.0  0.77686  0.33148  0.20380  1.0000
  C   C2286     1.0  0.95315  0.27059  0.25321  1.0000
  Fe  Fe313     1.0  0.75731  0.12251  0.30495  1.0000
  Fe  Fe314     1.0  0.76521  0.16277  0.29837  1.0000
  H   H2767     1.0  0.77732  0.38508  0.21527  1.0000
  C   C2287     1.0  0.82476  0.47340  0.14871  1.0000
  N   N152      1.0  0.82469  0.46522  0.21190  1.0000
  H   H2768     1.0  0.81256  0.35840  0.01612  1.0000
  S   S629      1.0  0.78118  0.45467  0.17514  1.0000
  C   C2288     1.0  0.88279  0.28404  0.21590  1.0000
  C   C2289     1.0  0.89087  0.26774  0.22820  1.0000
  C   C2290     1.0  0.88222  0.26360  0.24758  1.0000
  C   C2291     1.0  0.86532  0.27558  0.25457  1.0000
  C   C2292     1.0  0.85708  0.29160  0.24219  1.0000
  C   C2293     1.0  0.86581  0.29584  0.22293  1.0000
  H   H2769     1.0  0.90407  0.25861  0.22283  1.0000
  H   H2770     1.0  0.88882  0.25136  0.25708  1.0000
  H   H2771     1.0  0.84402  0.30093  0.24753  1.0000
  H   H2772     1.0  0.85944  0.30838  0.21360  1.0000
  C   C2294     1.0  0.84237  0.35327  0.12415  1.0000
  C   C2295     1.0  0.84562  0.33374  0.13286  1.0000
  C   C2296     1.0  0.83682  0.32125  0.12848  1.0000
  C   C2297     1.0  0.82442  0.32828  0.11571  1.0000
  C   C2298     1.0  0.82161  0.34772  0.10655  1.0000
  C   C2299     1.0  0.83066  0.36017  0.11070  1.0000
  H   H2773     1.0  0.85484  0.32826  0.14305  1.0000
  H   H2774     1.0  0.83923  0.30618  0.13540  1.0000
  H   H2775     1.0  0.81228  0.35320  0.09648  1.0000
  H   H2776     1.0  0.82822  0.37524  0.10380  1.0000
  C   C2300     1.0  0.80555  0.33413  0.98577  1.0000
  C   C2301     1.0  0.97781  0.29557  0.23411  1.0000
  H   H2777     1.0  0.87102  0.30733  0.27190  1.0000
  C   C2302     1.0  0.78419  0.37336  0.17237  1.0000
  C   C2303     1.0  0.96967  0.35336  0.20285  1.0000
  C   C2304     1.0  0.95276  0.34655  0.20800  1.0000
  C   C2305     1.0  0.94051  0.35127  0.19516  1.0000
  C   C2306     1.0  0.94485  0.36319  0.17721  1.0000
  C   C2307     1.0  0.96157  0.37033  0.17227  1.0000
  C   C2308     1.0  0.81317  0.16370  0.30643  1.0000
  H   H2778     1.0  0.94924  0.33743  0.22188  1.0000
  H   H2779     1.0  0.92778  0.34564  0.19916  1.0000
  H   H2780     1.0  0.88143  0.45786  0.16589  1.0000
  N   N153      1.0  0.89420  0.32157  0.25581  1.0000
  C   C2309     1.0  0.79757  0.41282  0.22746  1.0000
  C   C2310     1.0  0.80567  0.40363  0.24334  1.0000
  C   C2311     1.0  0.82191  0.38901  0.24188  1.0000
  C   C2312     1.0  0.83015  0.38345  0.22454  1.0000
  C   C2313     1.0  0.82206  0.39252  0.20853  1.0000
  C   C2314     1.0  0.80573  0.40734  0.20998  1.0000
  H   H2781     1.0  0.79939  0.40786  0.25684  1.0000
  H   H2782     1.0  0.82813  0.38200  0.25426  1.0000
  H   H2783     1.0  0.82841  0.38812  0.19513  1.0000
  H   H2784     1.0  0.79951  0.41455  0.19767  1.0000
  H   H2785     1.0  0.79658  0.31517  0.18118  1.0000
  C   C2315     1.0  0.78197  0.35392  0.17832  1.0000
  H   H2786     1.0  0.89794  0.29455  0.24777  1.0000
  C   C2316     1.0  0.96314  0.29473  0.22600  1.0000
  C   C2317     1.0  0.83128  0.45424  0.14689  1.0000
  H   H2787     1.0  0.96124  0.30393  0.21227  1.0000
  C   C2318     1.0  0.78664  0.35223  0.14456  1.0000
  H   H2788     1.0  0.80194  0.33102  0.04003  1.0000
  C   C2319     1.0  0.84319  0.43368  0.20350  1.0000
  C   C2320     1.0  0.78237  0.38441  0.18561  1.0000
  N   N154      1.0  0.83062  0.42608  0.13406  1.0000
  C   C2321     1.0  0.82447  0.42165  0.11849  1.0000
  C   C2322     1.0  0.85175  0.42115  0.13009  1.0000
  C   C2323     1.0  0.82332  0.41353  0.15222  1.0000
  C   C2324     1.0  0.82353  0.44641  0.13582  1.0000
  C   C2325     1.0  0.80405  0.18181  0.29772  1.0000
  C   C2326     1.0  0.80814  0.45864  0.12764  1.0000
  C   C2327     1.0  0.97401  0.36532  0.18497  1.0000
  H   H2789     1.0  0.75428  0.37586  0.00404  1.0000
  C   C2328     1.0  0.82200  0.45582  0.23249  1.0000
  H   H2790     1.0  0.80892  0.42232  0.12159  1.0000
  H   H2791     1.0  0.82841  0.43158  0.10465  1.0000
  H   H2792     1.0  0.83106  0.40672  0.11648  1.0000
  H   H2793     1.0  0.85780  0.43174  0.11780  1.0000
  H   H2794     1.0  0.85745  0.40670  0.12654  1.0000
  H   H2795     1.0  0.85775  0.42034  0.14253  1.0000
  H   H2796     1.0  0.91281  0.31031  0.23211  1.0000
  H   H2797     1.0  0.83417  0.20855  0.30003  1.0000
  H   H2798     1.0  0.82811  0.41552  0.16439  1.0000
  H   H2799     1.0  0.84226  0.44558  0.15443  1.0000
  H   H2800     1.0  0.80061  0.45370  0.11988  1.0000
  C   C2329     1.0  0.91884  0.28588  0.29382  1.0000
  C   C2330     1.0  0.82834  0.19606  0.30188  1.0000
  C   C2331     1.0  0.79830  0.31747  0.01932  1.0000
  C   C2332     1.0  0.75264  0.36112  0.00956  1.0000
  C   C2333     1.0  0.84117  0.45387  0.20077  1.0000
  H   H2801     1.0  0.74695  0.30830  0.02938  1.0000
  H   H2802     1.0  0.89644  0.28641  0.28076  1.0000
  H   H2803     1.0  0.88795  0.31510  0.23192  1.0000
  S   S630      1.0  0.76105  0.14625  0.27893  1.0000
  H   H2804     1.0  0.93571  0.29381  0.17888  1.0000
  H   H2805     1.0  0.80555  0.45179  0.20510  1.0000
  Fe  Fe315     1.0  0.76481  0.44475  0.20437  1.0000
  H   H2806     1.0  0.78356  0.39935  0.18073  1.0000
  H   H2807     1.0  0.90977  0.34242  0.23626  1.0000
  C   C2334     1.0  0.87240  0.43129  0.17982  1.0000
  H   H2808     1.0  0.76210  0.32591  0.18294  1.0000
  C   C2335     1.0  0.76510  0.33528  0.16860  1.0000
  C   C2336     1.0  0.96713  0.22673  0.30120  1.0000
  H   H2809     1.0  0.76856  0.41420  0.10982  1.0000
  C   C2337     1.0  0.98406  0.31128  0.16263  1.0000
  N   N155      1.0  0.78315  0.34192  0.16478  1.0000
  C   C2338     1.0  0.89557  0.34162  0.24565  1.0000
  C   C2339     1.0  0.75503  0.35198  0.02815  1.0000
  H   H2810     1.0  0.80766  0.47497  0.19035  1.0000
  C   C2340     1.0  0.74145  0.08779  0.24802  1.0000
  H   H2811     1.0  0.96500  0.27188  0.18777  1.0000
  C   C2341     1.0  0.74837  0.32310  0.02381  1.0000
  H   H2812     1.0  0.78180  0.05157  0.30160  1.0000
  H   H2813     1.0  0.98682  0.37094  0.18097  1.0000
  H   H2814     1.0  0.77427  0.35113  0.22650  1.0000
  C   C2342     1.0  0.96560  0.28631  0.17945  1.0000
  H   H2815     1.0  0.76531  0.32680  0.15817  1.0000
  Fe  Fe316     1.0  0.75887  0.48185  0.17500  1.0000
  C   C2343     1.0  0.87421  0.32195  0.26621  1.0000
  S   S631      1.0  0.75785  0.31800  0.12385  1.0000
  H   H2816     1.0  0.75851  0.04087  0.26874  1.0000
  H   H2817     1.0  0.96882  0.26215  0.27523  1.0000
  H   H2818     1.0  0.97818  0.30294  0.27881  1.0000
  C   C2344     1.0  0.94979  0.31713  0.16382  1.0000
  C   C2345     1.0  0.98282  0.29254  0.17375  1.0000
  C   C2346     1.0  0.90738  0.31286  0.26913  1.0000
  H   H2819     1.0  0.93691  0.32677  0.16010  1.0000
  H   H2820     1.0  0.76437  0.12463  0.23960  1.0000
  C   C2347     1.0  0.96693  0.32346  0.15790  1.0000
  C   C2348     1.0  0.80735  0.46627  0.20512  1.0000
  C   C2349     1.0  0.75260  0.33304  0.03532  1.0000
  S   S632      1.0  0.98530  0.34617  0.21884  1.0000
  C   C2350     1.0  0.74775  0.35137  0.99824  1.0000
  C   C2351     1.0  0.94909  0.29861  0.17450  1.0000
  H   H2821     1.0  0.83547  0.45248  0.23769  1.0000
  H   H2822     1.0  0.79413  0.30793  0.99651  1.0000
  C   C2352     1.0  0.95093  0.28217  0.23545  1.0000
  H   H2823     1.0  0.86389  0.32974  0.25676  1.0000
  C   C2353     1.0  0.80931  0.34711  0.01146  1.0000
  C   C2354     1.0  0.79893  0.32489  0.16696  1.0000
  C   C2355     1.0  0.98061  0.28378  0.25213  1.0000
  H   H2824     1.0  0.81264  0.32937  0.16487  1.0000
  H   H2825     1.0  0.86001  0.40710  0.19607  1.0000
  H   H2826     1.0  0.94365  0.26080  0.26065  1.0000
  C   C2356     1.0  0.93369  0.31329  0.28317  1.0000
  H   H2827     1.0  0.78716  0.34300  0.13470  1.0000
  H   H2828     1.0  0.81671  0.44229  0.23567  1.0000
  C   C2357     1.0  0.77694  0.35732  0.21135  1.0000
  H   H2829     1.0  0.93977  0.28135  0.22899  1.0000
  H   H2830     1.0  0.98672  0.30561  0.22600  1.0000
  C   C2358     1.0  0.92154  0.32198  0.27034  1.0000
  C   C2359     1.0  0.75057  0.05291  0.25999  1.0000
  C   C2360     1.0  0.76646  0.05535  0.30534  1.0000
  S   S633      1.0  0.93660  0.21521  0.29731  1.0000
  H   H2831     1.0  0.80749  0.41673  0.15554  1.0000
  H   H2832     1.0  0.96496  0.37970  0.15849  1.0000
  C   C2361     1.0  0.81049  0.34842  0.99210  1.0000
  H   H2833     1.0  0.96625  0.33807  0.14978  1.0000
  Fe  Fe317     1.0  0.86780  0.24466  0.29746  1.0000
  C   C2362     1.0  0.80332  0.33165  0.02502  1.0000
  N   N156      1.0  0.84052  0.23228  0.24423  1.0000
  C   C2363     1.0  0.82371  0.24106  0.23528  1.0000
  C   C2364     1.0  0.83746  0.24040  0.26125  1.0000
  C   C2365     1.0  0.85733  0.23822  0.23031  1.0000
  C   C2366     1.0  0.84379  0.21102  0.25001  1.0000
  C   C2367     1.0  0.83097  0.20029  0.24878  1.0000
  C   C2368     1.0  0.85983  0.20046  0.25795  1.0000
  C   C2369     1.0  0.83414  0.18029  0.25518  1.0000
  C   C2370     1.0  0.86283  0.18048  0.26433  1.0000
  C   C2371     1.0  0.84998  0.17043  0.26298  1.0000
  H   H2834     1.0  0.81031  0.23830  0.24543  1.0000
  H   H2835     1.0  0.82195  0.25699  0.23067  1.0000
  H   H2836     1.0  0.82508  0.23548  0.22236  1.0000
  H   H2837     1.0  0.82534  0.23580  0.27235  1.0000
  H   H2838     1.0  0.83436  0.25642  0.25769  1.0000
  H   H2839     1.0  0.85012  0.23584  0.26792  1.0000
  H   H2840     1.0  0.86066  0.23169  0.21765  1.0000
  H   H2841     1.0  0.85507  0.25415  0.22518  1.0000
  H   H2842     1.0  0.87027  0.23401  0.23648  1.0000
  H   H2843     1.0  0.81807  0.20694  0.24351  1.0000
  H   H2844     1.0  0.86992  0.20761  0.25984  1.0000
  H   H2845     1.0  0.82378  0.17250  0.25482  1.0000
  H   H2846     1.0  0.87477  0.17284  0.27107  1.0000
  H   H2847     1.0  0.85199  0.15504  0.26855  1.0000
  H   H2848     1.0  0.80083  0.31607  0.15625  1.0000
  H   H2849     1.0  0.76865  0.10628  0.22621  1.0000
  C   C2372     1.0  0.76294  0.10971  0.24058  1.0000
  C   C2373     1.0  0.75063  0.39343  0.12143  1.0000
  C   C2374     1.0  0.85863  0.42259  0.19329  1.0000
  H   H2850     1.0  0.77522  0.36500  0.14168  1.0000
  H   H2851     1.0  0.80445  0.21200  0.28904  1.0000
  H   H2852     1.0  0.83289  0.42623  0.21368  1.0000
  H   H2853     1.0  0.97531  0.21862  0.29052  1.0000
  C   C2375     1.0  0.76002  0.40716  0.12257  1.0000
  H   H2854     1.0  0.92347  0.33588  0.26163  1.0000
  H   H2855     1.0  0.76277  0.02695  0.30615  1.0000
  C   C2376     1.0  0.87065  0.45115  0.17639  1.0000
  C   C2377     1.0  0.85526  0.46237  0.18660  1.0000
  H   H2856     1.0  0.81492  0.36096  0.98246  1.0000
  H   H2857     1.0  0.87080  0.32924  0.27835  1.0000
  C   C2378     1.0  0.96769  0.27142  0.26147  1.0000
  S   S634      1.0  0.76108  0.36433  0.04222  1.0000
  C   C2379     1.0  0.80159  0.47770  0.12976  1.0000
  C   C2380     1.0  0.77875  0.37643  0.20505  1.0000
  C   C2381     1.0  0.81158  0.19797  0.29564  1.0000
  C   C2382     1.0  0.93232  0.29530  0.29493  1.0000
  Fe  Fe318     1.0  0.90473  0.21973  0.30629  1.0000
  H   H2858     1.0  0.94412  0.32067  0.28411  1.0000
  S   S635      1.0  0.75249  0.99544  0.28166  1.0000
  H   H2859     1.0  0.98071  0.27788  0.29024  1.0000
  C   C2383     1.0  0.75185  0.07172  0.25913  1.0000
  H   H2860     1.0  0.83103  0.47919  0.15698  1.0000
  Fe  Fe319     1.0  0.74862  0.31273  0.09957  1.0000
  H   H2861     1.0  0.91776  0.27190  0.30294  1.0000
  H   H2862     1.0  0.75284  0.34770  0.16746  1.0000
  C   C2384     1.0  0.74586  0.33225  0.00528  1.0000
  H   H2863     1.0  0.85479  0.47765  0.18326  1.0000
  C   C2385     1.0  0.74723  0.40272  0.15643  1.0000
  H   H2864     1.0  0.74517  0.35876  0.98423  1.0000
  H   H2865     1.0  0.79431  0.47277  0.21446  1.0000
  H   H2866     1.0  0.94166  0.28863  0.30498  1.0000
  H   H2867     1.0  0.75422  0.32590  0.04967  1.0000
  Fe  Fe320     1.0  0.74477  0.34910  0.11401  1.0000
  H   H2868     1.0  0.80747  0.15117  0.30801  1.0000
  S   S636      1.0  0.74422  0.47286  0.20519  1.0000
  H   H2869     1.0  0.74604  0.40602  0.17004  1.0000
  C   C2386     1.0  0.98828  0.28880  0.27999  1.0000
  C   C2387     1.0  0.75572  0.04141  0.30780  1.0000
  C   C2388     1.0  0.75742  0.07410  0.30765  1.0000
  N   N157      1.0  0.74290  0.10756  0.24763  1.0000
  C   C2389     1.0  0.80998  0.48511  0.14012  1.0000
  C   C2390     1.0  0.82665  0.48522  0.21019  1.0000
  H   H2870     1.0  0.83999  0.48539  0.21421  1.0000
  C   C2391     1.0  0.97623  0.23623  0.30907  1.0000
  Fe  Fe321     1.0  0.86988  0.20205  0.31353  1.0000
  H   H2871     1.0  0.75660  0.28061  0.58280  1.0000
  N   N158      1.0  0.77546  0.00412  0.61824  1.0000
  C   C2392     1.0  0.74107  0.29197  0.60757  1.0000
  H   H2872     1.0  0.75364  0.02985  0.62034  1.0000
  C   C2393     1.0  0.74597  0.06554  0.36331  1.0000
  C   C2394     1.0  0.81143  0.17018  0.36554  1.0000
  Fe  Fe322     1.0  0.75308  0.19241  0.42756  1.0000
  C   C2395     1.0  0.78644  0.01380  0.60024  1.0000
  S   S637      1.0  0.77759  0.20196  0.43181  1.0000
  S   S638      1.0  0.77286  0.19575  0.48592  1.0000
  Fe  Fe323     1.0  0.75825  0.21067  0.60533  1.0000
  S   S639      1.0  0.78500  0.20511  0.58347  1.0000
  H   H2873     1.0  0.79767  0.24045  0.49043  1.0000
  Fe  Fe324     1.0  0.76501  0.24867  0.60797  1.0000
  S   S640      1.0  0.79197  0.24694  0.58592  1.0000
  C   C2396     1.0  0.74581  0.29201  0.58810  1.0000
  Fe  Fe325     1.0  0.77638  0.23636  0.56982  1.0000
  S   S641      1.0  0.77315  0.24947  0.53932  1.0000
  Fe  Fe326     1.0  0.79813  0.21609  0.60158  1.0000
  S   S642      1.0  0.82514  0.20095  0.61229  1.0000
  H   H2874     1.0  0.92915  0.18908  0.36457  1.0000
  S   S643      1.0  0.77197  0.21866  0.62464  1.0000
  H   H2875     1.0  0.88081  0.25418  0.62713  1.0000
  C   C2397     1.0  0.74399  0.99562  0.61953  1.0000
  H   H2876     1.0  0.80032  0.26102  0.42214  1.0000
  Fe  Fe327     1.0  0.87156  0.22769  0.33840  1.0000
  S   S644      1.0  0.89046  0.20043  0.33143  1.0000
  S   S645      1.0  0.86484  0.22821  0.36933  1.0000
  H   H2877     1.0  0.81744  0.24046  0.51169  1.0000
  C   C2398     1.0  0.79426  0.20315  0.35316  1.0000
  H   H2878     1.0  0.82948  0.15873  0.61597  1.0000
  S   S646      1.0  0.76032  0.16604  0.41498  1.0000
  H   H2879     1.0  0.95302  0.16798  0.32295  1.0000
  Fe  Fe328     1.0  0.76257  0.23165  0.42016  1.0000
  H   H2880     1.0  0.76815  0.20147  0.32194  1.0000
  S   S647      1.0  0.84988  0.22817  0.32223  1.0000
  H   H2881     1.0  0.79074  0.23263  0.44447  1.0000
  C   C2399     1.0  0.78873  0.22329  0.35214  1.0000
  C   C2400     1.0  0.83951  0.25080  0.48915  1.0000
  C   C2401     1.0  0.78949  0.14010  0.63455  1.0000
  C   C2402     1.0  0.81079  0.24531  0.48408  1.0000
  H   H2882     1.0  0.79717  0.20779  0.38756  1.0000
  H   H2883     1.0  0.81453  0.22294  0.44863  1.0000
  C   C2403     1.0  0.76414  0.99259  0.61393  1.0000
  H   H2884     1.0  0.93488  0.20087  0.33980  1.0000
  C   C2404     1.0  0.94619  0.24788  0.32862  1.0000
  C   C2405     1.0  0.91372  0.25107  0.60233  1.0000
  H   H2885     1.0  0.84932  0.19009  0.63981  1.0000
  H   H2886     1.0  0.78996  0.18053  0.34145  1.0000
  H   H2887     1.0  0.96466  0.18747  0.31893  1.0000
  C   C2406     1.0  0.83212  0.24546  0.63034  1.0000
  C   C2407     1.0  0.74381  0.16522  0.36748  1.0000
  H   H2888     1.0  0.77517  0.05231  0.35110  1.0000
  H   H2889     1.0  0.77762  0.16445  0.61382  1.0000
  C   C2408     1.0  0.76051  0.05100  0.35588  1.0000
  C   C2409     1.0  0.74366  0.08491  0.38589  1.0000
  H   H2890     1.0  0.77683  0.02289  0.59053  1.0000
  S   S648      1.0  0.85971  0.17496  0.31641  1.0000
  H   H2891     1.0  0.83752  0.14764  0.31858  1.0000
  H   H2892     1.0  0.78975  0.17800  0.63187  1.0000
  H   H2893     1.0  0.94379  0.14942  0.35740  1.0000
  C   C2410     1.0  0.78894  0.99132  0.63011  1.0000
  C   C2411     1.0  0.83265  0.21466  0.62400  1.0000
  H   H2894     1.0  0.78773  0.18807  0.51950  1.0000
  C   C2412     1.0  0.82655  0.23466  0.62062  1.0000
  N   N159      1.0  0.80340  0.25232  0.45150  1.0000
  H   H2895     1.0  0.81762  0.24187  0.61041  1.0000
  C   C2413     1.0  0.80103  0.24618  0.38966  1.0000
  C   C2414     1.0  0.80993  0.25539  0.37184  1.0000
  C   C2415     1.0  0.82955  0.24971  0.36539  1.0000
  C   C2416     1.0  0.84037  0.23529  0.37707  1.0000
  C   C2417     1.0  0.83153  0.22624  0.39496  1.0000
  C   C2418     1.0  0.81184  0.23147  0.40110  1.0000
  H   H2896     1.0  0.80163  0.26681  0.36294  1.0000
  H   H2897     1.0  0.83639  0.25676  0.35155  1.0000
  H   H2898     1.0  0.83990  0.21499  0.40393  1.0000
  H   H2899     1.0  0.80515  0.22431  0.41482  1.0000
  H   H2900     1.0  0.83243  0.19596  0.34492  1.0000
  C   C2419     1.0  0.77636  0.15042  0.62268  1.0000
  H   H2901     1.0  0.81844  0.16756  0.35104  1.0000
  C   C2420     1.0  0.75776  0.12570  0.63432  1.0000
  C   C2421     1.0  0.82569  0.19724  0.35986  1.0000
  S   S649      1.0  0.77649  0.25347  0.39746  1.0000
  H   H2902     1.0  0.76752  0.02367  0.34760  1.0000
  H   H2903     1.0  0.97101  0.22463  0.36659  1.0000
  N   N160      1.0  0.80526  0.14855  0.63515  1.0000
  H   H2904     1.0  0.92538  0.26839  0.62295  1.0000
  H   H2905     1.0  0.88758  0.22496  0.61953  1.0000
  C   C2422     1.0  0.76088  0.22956  0.49908  1.0000
  C   C2423     1.0  0.76120  0.24137  0.51101  1.0000
  C   C2424     1.0  0.77104  0.23394  0.52602  1.0000
  C   C2425     1.0  0.78018  0.21458  0.52932  1.0000
  C   C2426     1.0  0.78012  0.20290  0.51722  1.0000
  C   C2427     1.0  0.93713  0.23809  0.32100  1.0000
  H   H2906     1.0  0.77247  0.25048  0.33998  1.0000
  H   H2907     1.0  0.78790  0.20878  0.54076  1.0000
  S   S650      1.0  0.74892  0.24102  0.59070  1.0000
  H   H2908     1.0  0.77720  0.25870  0.47184  1.0000
  H   H2909     1.0  0.80758  0.18326  0.39588  1.0000
  H   H2910     1.0  0.82414  0.21240  0.36072  1.0000
  H   H2911     1.0  0.90206  0.24806  0.59754  1.0000
  C   C2428     1.0  0.96580  0.24683  0.32278  1.0000
  H   H2912     1.0  0.74675  0.09805  0.38815  1.0000
  H   H2913     1.0  0.92607  0.17952  0.34607  1.0000
  C   C2429     1.0  0.75286  0.16943  0.37984  1.0000
  S   S651      1.0  0.74651  0.23750  0.44872  1.0000
  C   C2430     1.0  0.92643  0.21243  0.64009  1.0000
  N   N161      1.0  0.74975  0.08346  0.36561  1.0000
  C   C2431     1.0  0.80079  0.23264  0.45321  1.0000
  Fe  Fe329     1.0  0.75950  0.20678  0.46006  1.0000
  H   H2914     1.0  0.92736  0.24280  0.59539  1.0000
  C   C2432     1.0  0.76376  0.01926  0.62868  1.0000
  H   H2915     1.0  0.82412  0.25096  0.42522  1.0000
  C   C2433     1.0  0.77387  0.20755  0.33048  1.0000
  H   H2916     1.0  0.84832  0.25059  0.49877  1.0000
  H   H2917     1.0  0.81274  0.27508  0.42869  1.0000
  H   H2918     1.0  0.79400  0.23007  0.36035  1.0000
  H   H2919     1.0  0.79830  0.16420  0.37060  1.0000
  C   C2434     1.0  0.82219  0.24508  0.49640  1.0000
  H   H2920     1.0  0.85907  0.26101  0.46395  1.0000
  C   C2435     1.0  0.74679  0.16419  0.39962  1.0000
  C   C2436     1.0  0.95422  0.15582  0.36072  1.0000
  C   C2437     1.0  0.81618  0.25165  0.46407  1.0000
  C   C2438     1.0  0.91240  0.22491  0.63009  1.0000
  C   C2439     1.0  0.78649  0.19561  0.34186  1.0000
  H   H2921     1.0  0.77919  0.07285  0.36781  1.0000
  H   H2922     1.0  0.79703  0.00336  0.59243  1.0000
  C   C2440     1.0  0.77631  0.23513  0.34053  1.0000
  N   N162      1.0  0.91148  0.24588  0.62335  1.0000
  C   C2441     1.0  0.83407  0.25715  0.45708  1.0000
  C   C2442     1.0  0.89278  0.25652  0.63198  1.0000
  H   H2923     1.0  0.82735  0.26094  0.62753  1.0000
  H   H2924     1.0  0.78601  0.27934  0.45711  1.0000
  C   C2443     1.0  0.81710  0.15300  0.61579  1.0000
  S   S652      1.0  0.75153  0.27251  0.62361  1.0000
  C   C2444     1.0  0.81057  0.26020  0.43105  1.0000
  H   H2925     1.0  0.83595  0.18841  0.36898  1.0000
  H   H2926     1.0  0.75343  0.23536  0.48746  1.0000
  C   C2445     1.0  0.84549  0.25671  0.46954  1.0000
  C   C2446     1.0  0.93554  0.18670  0.34988  1.0000
  H   H2927     1.0  0.80917  0.16433  0.60579  1.0000
  C   C2447     1.0  0.78457  0.26464  0.45729  1.0000
  H   H2928     1.0  0.75104  0.07216  0.39514  1.0000
  H   H2929     1.0  0.83960  0.26183  0.44208  1.0000
  C   C2448     1.0  0.98703  0.17369  0.35547  1.0000
  H   H2930     1.0  0.77479  0.26605  0.44767  1.0000
  C   C2449     1.0  0.75633  0.03435  0.35379  1.0000
  N   N163      1.0  0.80730  0.19096  0.36577  1.0000
  S   S653      1.0  0.76466  0.13793  0.32363  1.0000
  H   H2931     1.0  0.82257  0.13999  0.60955  1.0000
  C   C2450     1.0  0.79880  0.19298  0.38567  1.0000
  H   H2932     1.0  0.79484  0.22587  0.46805  1.0000
  H   H2933     1.0  0.82133  0.16151  0.37510  1.0000
  C   C2451     1.0  0.96817  0.18384  0.35429  1.0000
  H   H2934     1.0  0.91363  0.26667  0.59666  1.0000
  C   C2452     1.0  0.96274  0.20253  0.35840  1.0000
  C   C2453     1.0  0.89938  0.19664  0.63297  1.0000
  C   C2454     1.0  0.97530  0.21020  0.36385  1.0000
  H   H2935     1.0  0.77241  0.09849  0.36115  1.0000
  H   H2936     1.0  0.94896  0.21165  0.35730  1.0000
  H   H2937     1.0  0.75074  0.15166  0.61367  1.0000
  H   H2938     1.0  0.78441  0.18955  0.39021  1.0000
  S   S654      1.0  0.88734  0.24709  0.31463  1.0000
  C   C2455     1.0  0.77072  0.21038  0.50193  1.0000
  H   H2939     1.0  0.94091  0.24547  0.62205  1.0000
  H   H2940     1.0  0.89187  0.27234  0.62837  1.0000
  N   N164      1.0  0.95530  0.17519  0.34847  1.0000
  H   H2941     1.0  0.75408  0.25634  0.50846  1.0000
  H   H2942     1.0  0.93805  0.25595  0.33935  1.0000
  H   H2943     1.0  0.94982  0.15655  0.37605  1.0000
  C   C2456     1.0  0.76891  0.22727  0.32968  1.0000
  H   H2944     1.0  0.92215  0.23840  0.32615  1.0000
  H   H2945     1.0  0.74285  0.09946  0.33886  1.0000
  C   C2457     1.0  0.89888  0.21638  0.62673  1.0000
  H   H2946     1.0  0.79455  0.02322  0.60289  1.0000
  H   H2947     1.0  0.96798  0.14536  0.35887  1.0000
  C   C2458     1.0  0.92636  0.25263  0.62828  1.0000
  H   H2948     1.0  0.77264  0.02753  0.63194  1.0000
  C   C2459     1.0  0.76081  0.14323  0.62254  1.0000
  H   H2949     1.0  0.97688  0.16332  0.32650  1.0000
  H   H2950     1.0  0.79714  0.99947  0.63449  1.0000
  S   S655      1.0  0.97696  0.25907  0.33254  1.0000
  C   C2460     1.0  0.84453  0.20557  0.63711  1.0000
  H   H2951     1.0  0.76476  0.17643  0.37410  1.0000
  C   C2461     1.0  0.83016  0.16174  0.31237  1.0000
  H   H2952     1.0  0.75937  0.23643  0.32058  1.0000
  H   H2953     1.0  0.74870  0.16912  0.35222  1.0000
  H   H2954     1.0  0.77537  0.08456  0.34397  1.0000
  C   C2462     1.0  0.96281  0.17331  0.32841  1.0000
  H   H2955     1.0  0.74537  0.12048  0.63454  1.0000
  C   C2463     1.0  0.77009  0.08478  0.35939  1.0000
  H   H2956     1.0  0.88868  0.19055  0.63052  1.0000
  C   C2464     1.0  0.83788  0.17789  0.30990  1.0000
  C   C2465     1.0  0.79724  0.16664  0.64212  1.0000
  H   H2957     1.0  0.74169  0.11403  0.35517  1.0000
  H   H2958     1.0  0.87596  0.35146  0.75766  1.0000
  H   H2959     1.0  0.75543  0.18495  0.64470  1.0000
  H   H2960     1.0  0.86336  0.37174  0.71978  1.0000
  Fe  Fe330     1.0  0.77277  0.44673  0.81912  1.0000
  H   H2961     1.0  0.78754  0.29825  0.85317  1.0000
  S   S656      1.0  0.79769  0.42958  0.83232  1.0000
  C   C2466     1.0  0.79746  0.24339  0.71591  1.0000
  H   H2962     1.0  0.77379  0.20819  0.77508  1.0000
  S   S657      1.0  0.74823  0.46343  0.83715  1.0000
  H   H2963     1.0  0.97578  0.26584  0.81513  1.0000
  C   C2467     1.0  0.81500  0.35094  0.95217  1.0000
  S   S658      1.0  0.77368  0.47059  0.79287  1.0000
  C   C2468     1.0  0.76398  0.24335  0.72439  1.0000
  H   H2964     1.0  0.86680  0.29848  0.71383  1.0000
  H   H2965     1.0  0.87578  0.31662  0.73154  1.0000
  H   H2966     1.0  0.81409  0.33901  0.71086  1.0000
  H   H2967     1.0  0.94210  0.21263  0.76768  1.0000
  Fe  Fe331     1.0  0.87742  0.35023  0.79891  1.0000
  S   S659      1.0  0.88133  0.34025  0.82931  1.0000
  S   S660      1.0  0.86343  0.37863  0.78277  1.0000
  Fe  Fe332     1.0  0.89417  0.31096  0.78940  1.0000
  S   S661      1.0  0.89887  0.29729  0.81887  1.0000
  S   S662      1.0  0.90573  0.29620  0.76466  1.0000
  Fe  Fe333     1.0  0.87022  0.31483  0.82894  1.0000
  S   S663      1.0  0.84832  0.30104  0.85167  1.0000
  Fe  Fe334     1.0  0.90978  0.32348  0.81702  1.0000
  S   S664      1.0  0.93738  0.31473  0.82735  1.0000
  S   S665      1.0  0.86438  0.32592  0.79947  1.0000
  S   S666      1.0  0.90702  0.33600  0.78669  1.0000
  C   C2469     1.0  0.83998  0.31766  0.71116  1.0000
  H   H2968     1.0  0.75099  0.24132  0.70308  1.0000
  S   S667      1.0  0.93290  0.23149  0.67957  1.0000
  H   H2969     1.0  0.97354  0.30881  0.83640  1.0000
  C   C2470     1.0  0.86223  0.32227  0.72734  1.0000
  Fe  Fe335     1.0  0.76572  0.34347  0.92210  1.0000
  S   S668      1.0  0.79395  0.35170  0.90875  1.0000
  H   H2970     1.0  0.81468  0.31301  0.83454  1.0000
  H   H2971     1.0  0.75332  0.06635  0.67521  1.0000
  H   H2972     1.0  0.79219  0.15222  0.75235  1.0000
  S   S669      1.0  0.75158  0.14115  0.77469  1.0000
  C   C2471     1.0  0.84978  0.33931  0.73219  1.0000
  Fe  Fe336     1.0  0.86646  0.23916  0.72020  1.0000
  S   S670      1.0  0.89081  0.21384  0.72315  1.0000
  S   S671      1.0  0.85169  0.25503  0.74373  1.0000
  Fe  Fe337     1.0  0.86475  0.23613  0.68057  1.0000
  S   S672      1.0  0.88909  0.21078  0.68007  1.0000
  H   H2973     1.0  0.79527  0.11314  0.65570  1.0000
  Fe  Fe338     1.0  0.87483  0.20027  0.71023  1.0000
  S   S673      1.0  0.86873  0.17060  0.72228  1.0000
  Fe  Fe339     1.0  0.90293  0.22676  0.69284  1.0000
  S   S674      1.0  0.84952  0.22456  0.70979  1.0000
  S   S675      1.0  0.87951  0.25320  0.69083  1.0000
  H   H2974     1.0  0.75812  0.22700  0.67706  1.0000
  S   S676      1.0  0.77080  0.12175  0.69606  1.0000
  C   C2472     1.0  0.95870  0.33376  0.76949  1.0000
  Fe  Fe340     1.0  0.75902  0.13423  0.74579  1.0000
  S   S677      1.0  0.78756  0.11755  0.73427  1.0000
  H   H2975     1.0  0.84263  0.35743  0.77165  1.0000
  Fe  Fe341     1.0  0.78458  0.13929  0.70698  1.0000
  S   S678      1.0  0.80530  0.15716  0.68783  1.0000
  Fe  Fe342     1.0  0.77100  0.10157  0.72460  1.0000
  S   S679      1.0  0.77561  0.06913  0.73108  1.0000
  S   S680      1.0  0.75712  0.15712  0.71935  1.0000
  H   H2976     1.0  0.85715  0.37913  0.74219  1.0000
  C   C2473     1.0  0.78627  0.31363  0.85092  1.0000
  S   S681      1.0  0.75680  0.02623  0.67675  1.0000
  C   C2474     1.0  0.76987  0.05756  0.71601  1.0000
  C   C2475     1.0  0.77251  0.03742  0.72047  1.0000
  C   C2476     1.0  0.76842  0.02770  0.70861  1.0000
  C   C2477     1.0  0.76162  0.03807  0.69217  1.0000
  C   C2478     1.0  0.75865  0.05824  0.68787  1.0000
  C   C2479     1.0  0.76275  0.06797  0.69974  1.0000
  H   H2977     1.0  0.77809  0.02926  0.73297  1.0000
  H   H2978     1.0  0.77087  0.01216  0.71202  1.0000
  C   C2480     1.0  0.96880  0.26054  0.80706  1.0000
  H   H2979     1.0  0.76058  0.08348  0.69621  1.0000
  C   C2481     1.0  0.85199  0.16614  0.71202  1.0000
  C   C2482     1.0  0.84625  0.17894  0.69596  1.0000
  C   C2483     1.0  0.83235  0.17566  0.68828  1.0000
  C   C2484     1.0  0.82371  0.15988  0.69698  1.0000
  C   C2485     1.0  0.82939  0.14706  0.71307  1.0000
  C   C2486     1.0  0.84370  0.15006  0.72043  1.0000
  H   H2980     1.0  0.85259  0.19135  0.68945  1.0000
  H   H2981     1.0  0.82805  0.18557  0.67580  1.0000
  H   H2982     1.0  0.82293  0.13474  0.71974  1.0000
  H   H2983     1.0  0.84820  0.14007  0.73280  1.0000
  H   H2984     1.0  0.76793  0.10151  0.65530  1.0000
  C   C2487     1.0  0.96190  0.21900  0.72241  1.0000
  C   C2488     1.0  0.94796  0.22024  0.71221  1.0000
  C   C2489     1.0  0.94944  0.23051  0.69333  1.0000
  H   H2985     1.0  0.96303  0.32835  0.73523  1.0000
  H   H2986     1.0  0.93637  0.21282  0.71877  1.0000
  H   H2987     1.0  0.79293  0.36972  0.86987  1.0000
  H   H2988     1.0  0.81426  0.15810  0.75124  1.0000
  H   H2989     1.0  0.80957  0.18457  0.72286  1.0000
  H   H2990     1.0  0.74875  0.16613  0.67788  1.0000
  C   C2490     1.0  0.85330  0.37072  0.73381  1.0000
  C   C2491     1.0  0.96488  0.23960  0.68482  1.0000
  H   H2991     1.0  0.76466  0.23980  0.65319  1.0000
  H   H2992     1.0  0.78807  0.17804  0.72350  1.0000
  C   C2492     1.0  0.79417  0.18708  0.72922  1.0000
  C   C2493     1.0  0.79873  0.16176  0.75693  1.0000
  H   H2993     1.0  0.82507  0.35681  0.75967  1.0000
  H   H2994     1.0  0.96105  0.21043  0.73669  1.0000
  H   H2995     1.0  0.82988  0.34899  0.95375  1.0000
  H   H2996     1.0  0.79648  0.15773  0.77275  1.0000
  H   H2997     1.0  0.79167  0.20934  0.67739  1.0000
  C   C2494     1.0  0.89046  0.28486  0.75911  1.0000
  C   C2495     1.0  0.89706  0.27550  0.74383  1.0000
  C   C2496     1.0  0.88531  0.26605  0.73926  1.0000
  C   C2497     1.0  0.86676  0.26626  0.74973  1.0000
  C   C2498     1.0  0.86009  0.27575  0.76494  1.0000
  C   C2499     1.0  0.87197  0.28493  0.76973  1.0000
  H   H2998     1.0  0.91126  0.27559  0.73541  1.0000
  H   H2999     1.0  0.89055  0.25880  0.72747  1.0000
  H   H3000     1.0  0.84576  0.27589  0.77309  1.0000
  H   H3001     1.0  0.86682  0.29199  0.78164  1.0000
  C   C2500     1.0  0.83377  0.31476  0.86815  1.0000
  C   C2501     1.0  0.83788  0.33183  0.86922  1.0000
  C   C2502     1.0  0.82586  0.34277  0.88214  1.0000
  C   C2503     1.0  0.80937  0.33699  0.89367  1.0000
  C   C2504     1.0  0.80517  0.31994  0.89264  1.0000
  C   C2505     1.0  0.81754  0.30869  0.88012  1.0000
  H   H3002     1.0  0.85038  0.33656  0.86022  1.0000
  H   H3003     1.0  0.82914  0.35598  0.88288  1.0000
  H   H3004     1.0  0.79243  0.31542  0.90144  1.0000
  H   H3005     1.0  0.81431  0.29547  0.87937  1.0000
  H   H3006     1.0  0.98946  0.37953  0.85207  1.0000
  S   S682      1.0  0.74443  0.34386  0.90543  1.0000
  C   C2506     1.0  0.85727  0.31166  0.71703  1.0000
  H   H3007     1.0  0.98272  0.32550  0.79059  1.0000
  H   H3008     1.0  0.96624  0.24745  0.67017  1.0000
  C   C2507     1.0  0.95983  0.36259  0.81241  1.0000
  C   C2508     1.0  0.94731  0.35029  0.81514  1.0000
  C   C2509     1.0  0.95226  0.33086  0.82380  1.0000
  C   C2510     1.0  0.96968  0.32382  0.82965  1.0000
  H   H3009     1.0  0.80318  0.25801  0.65950  1.0000
  H   H3010     1.0  0.95592  0.37765  0.80587  1.0000
  H   H3011     1.0  0.93383  0.35584  0.81069  1.0000
  H   H3012     1.0  0.80697  0.36551  0.95425  1.0000
  C   C2511     1.0  0.83233  0.34510  0.72582  1.0000
  H   H3013     1.0  0.87428  0.32783  0.75765  1.0000
  H   H3014     1.0  0.93733  0.18356  0.65427  1.0000
  H   H3015     1.0  0.83891  0.37830  0.73125  1.0000
  S   S683      1.0  0.74277  0.11650  0.73874  1.0000
  H   H3016     1.0  0.98611  0.32904  0.73804  1.0000
  H   H3017     1.0  0.96133  0.28894  0.76383  1.0000
  H   H3018     1.0  0.94865  0.31195  0.88327  1.0000
  C   C2512     1.0  0.76433  0.24176  0.70596  1.0000
  H   H3019     1.0  0.97956  0.23668  0.77137  1.0000
  C   C2513     1.0  0.81633  0.41615  0.81816  1.0000
  C   C2514     1.0  0.83015  0.40216  0.82675  1.0000
  C   C2515     1.0  0.84443  0.39032  0.81606  1.0000
  C   C2516     1.0  0.84530  0.39286  0.79658  1.0000
  C   C2517     1.0  0.83162  0.40701  0.78792  1.0000
  C   C2518     1.0  0.81700  0.41849  0.79873  1.0000
  H   H3020     1.0  0.82974  0.40035  0.84176  1.0000
  H   H3021     1.0  0.85502  0.37957  0.82282  1.0000
  H   H3022     1.0  0.83228  0.40909  0.77283  1.0000
  H   H3023     1.0  0.80637  0.42926  0.79201  1.0000
  Fe  Fe343     1.0  0.75347  0.45683  0.78588  1.0000
  H   H3024     1.0  0.82953  0.14266  0.64822  1.0000
  H   H3025     1.0  0.82209  0.35780  0.72907  1.0000
  C   C2519     1.0  0.94093  0.35875  0.86030  1.0000
  C   C2520     1.0  0.83964  0.34978  0.76204  1.0000
  Fe  Fe344     1.0  0.74361  0.13776  0.71097  1.0000
  H   H3026     1.0  0.93130  0.36900  0.85185  1.0000
  S   S684      1.0  0.84829  0.25044  0.65713  1.0000
  H   H3027     1.0  0.98124  0.30718  0.73623  1.0000
  C   C2521     1.0  0.82757  0.33441  0.71544  1.0000
  H   H3028     1.0  0.83617  0.30918  0.70339  1.0000
  N   N165      1.0  0.94134  0.23963  0.77443  1.0000
  C   C2522     1.0  0.94997  0.21903  0.77441  1.0000
  C   C2523     1.0  0.92057  0.24106  0.78172  1.0000
  C   C2524     1.0  0.94429  0.25087  0.75456  1.0000
  C   C2525     1.0  0.95047  0.24692  0.78578  1.0000
  H   H3029     1.0  0.77894  0.27086  0.66167  1.0000
  C   C2526     1.0  0.93991  0.25757  0.79990  1.0000
  H   H3030     1.0  0.97570  0.38604  0.87420  1.0000
  C   C2527     1.0  0.94905  0.26420  0.81036  1.0000
  H   H3031     1.0  0.74286  0.10778  0.80497  1.0000
  H   H3032     1.0  0.95002  0.21041  0.78917  1.0000
  H   H3033     1.0  0.81556  0.35106  0.93700  1.0000
  H   H3034     1.0  0.75050  0.09953  0.78361  1.0000
  H   H3035     1.0  0.91743  0.23306  0.79675  1.0000
  H   H3036     1.0  0.91414  0.23520  0.77311  1.0000
  H   H3037     1.0  0.91282  0.25622  0.78089  1.0000
  H   H3038     1.0  0.95961  0.24949  0.74772  1.0000
  H   H3039     1.0  0.93750  0.24606  0.74544  1.0000
  H   H3040     1.0  0.93817  0.26645  0.75396  1.0000
  H   H3041     1.0  0.80374  0.37839  0.81759  1.0000
  H   H3042     1.0  0.92458  0.26112  0.80307  1.0000
  C   C2528     1.0  0.75063  0.04500  0.77811  1.0000
  H   H3043     1.0  0.94075  0.27244  0.82098  1.0000
  C   C2529     1.0  0.97953  0.25032  0.79322  1.0000
  N   N166      1.0  0.78300  0.37436  0.84408  1.0000
  C   C2530     1.0  0.79657  0.37640  0.85450  1.0000
  C   C2531     1.0  0.78846  0.38339  0.82363  1.0000
  C   C2532     1.0  0.76402  0.38540  0.85165  1.0000
  C   C2533     1.0  0.78365  0.35367  0.84624  1.0000
  Fe  Fe345     1.0  0.74082  0.33162  0.96045  1.0000
  H   H3044     1.0  0.78012  0.24594  0.74343  1.0000
  C   C2534     1.0  0.76965  0.32496  0.85911  1.0000
  H   H3045     1.0  0.81147  0.36957  0.84897  1.0000
  H   H3046     1.0  0.79636  0.39175  0.85361  1.0000
  C   C2535     1.0  0.98223  0.33604  0.82674  1.0000
  C   C2536     1.0  0.93802  0.34007  0.86773  1.0000
  H   H3047     1.0  0.77982  0.38048  0.81498  1.0000
  C   C2537     1.0  0.76359  0.23997  0.66833  1.0000
  H   H3048     1.0  0.75959  0.38034  0.86733  1.0000
  H   H3049     1.0  0.76414  0.40095  0.84944  1.0000
  H   H3050     1.0  0.75807  0.31822  0.86782  1.0000
  C   C2538     1.0  0.78618  0.12203  0.64612  1.0000
  N   N167      1.0  0.96888  0.31548  0.76340  1.0000
  H   H3051     1.0  0.83940  0.33467  0.76989  1.0000
  C   C2539     1.0  0.95076  0.32659  0.87792  1.0000
  S   S685      1.0  0.74505  0.36054  0.94258  1.0000
  H   H3052     1.0  0.96485  0.21684  0.76614  1.0000
  C   C2540     1.0  0.79576  0.22252  0.66743  1.0000
  H   H3053     1.0  0.78695  0.16424  0.65593  1.0000
  H   H3054     1.0  0.78525  0.34055  0.94808  1.0000
  C   C2541     1.0  0.95507  0.30274  0.76855  1.0000
  H   H3055     1.0  0.94240  0.30959  0.76198  1.0000
  C   C2542     1.0  0.95665  0.36404  0.86287  1.0000
  N   N168      1.0  0.85402  0.35036  0.74400  1.0000
  C   C2543     1.0  0.87306  0.34275  0.74898  1.0000
  H   H3056     1.0  0.88464  0.34286  0.73606  1.0000
  H   H3057     1.0  0.75301  0.38455  0.84445  1.0000
  S   S686      1.0  0.76307  0.31467  0.94105  1.0000
  H   H3058     1.0  0.81023  0.24429  0.71978  1.0000
  S   S687      1.0  0.75474  0.43161  0.81062  1.0000
  C   C2544     1.0  0.78883  0.20705  0.76946  1.0000
  N   N169      1.0  0.79045  0.18239  0.75034  1.0000
  C   C2545     1.0  0.96645  0.33175  0.88072  1.0000
  H   H3059     1.0  0.81050  0.22235  0.66817  1.0000
  C   C2546     1.0  0.97058  0.24394  0.78244  1.0000
  C   C2547     1.0  0.74542  0.09466  0.79919  1.0000
  H   H3060     1.0  0.94983  0.29929  0.78425  1.0000
  C   C2548     1.0  0.81712  0.21800  0.76853  1.0000
  C   C2549     1.0  0.97703  0.22857  0.71410  1.0000
  H   H3061     1.0  0.75493  0.35271  0.86332  1.0000
  Fe  Fe346     1.0  0.76060  0.99385  0.68553  1.0000
  H   H3062     1.0  0.75074  0.24419  0.73482  1.0000
  C   C2550     1.0  0.97737  0.35547  0.81814  1.0000
  C   C2551     1.0  0.79769  0.21869  0.77496  1.0000
  S   S688      1.0  0.75241  0.45522  0.75651  1.0000
  C   C2552     1.0  0.81585  0.31711  0.95967  1.0000
  H   H3063     1.0  0.81020  0.13246  0.66287  1.0000
  H   H3064     1.0  0.79646  0.22112  0.65270  1.0000
  H   H3065     1.0  0.76335  0.17622  0.75140  1.0000
  H   H3066     1.0  0.95838  0.37853  0.85603  1.0000
  H   H3067     1.0  0.78947  0.22830  0.78432  1.0000
  H   H3068     1.0  0.81306  0.34717  0.83090  1.0000
  H   H3069     1.0  0.74314  0.01736  0.78488  1.0000
  H   H3070     1.0  0.78813  0.20243  0.72367  1.0000
  H   H3071     1.0  0.75512  0.07313  0.77373  1.0000
  C   C2553     1.0  0.97504  0.32019  0.74237  1.0000
  C   C2554     1.0  0.79934  0.19442  0.75711  1.0000
  H   H3072     1.0  0.76226  0.20033  0.75261  1.0000
  C   C2555     1.0  0.76952  0.18515  0.75718  1.0000
  C   C2556     1.0  0.81803  0.13575  0.64785  1.0000
  H   H3073     1.0  0.99018  0.24612  0.68855  1.0000
  H   H3074     1.0  0.81157  0.24128  0.68753  1.0000
  H   H3075     1.0  0.96824  0.34411  0.76604  1.0000
  H   H3076     1.0  0.76561  0.18059  0.77297  1.0000
  C   C2557     1.0  0.97850  0.23883  0.69522  1.0000
  H   H3077     1.0  0.76201  0.04179  0.76617  1.0000
  C   C2558     1.0  0.80043  0.34162  0.83829  1.0000
  C   C2559     1.0  0.78587  0.33966  0.96303  1.0000
  H   H3078     1.0  0.82397  0.22717  0.77260  1.0000
  C   C2560     1.0  0.81919  0.19375  0.75127  1.0000
  H   H3079     1.0  0.75281  0.25321  0.67083  1.0000
  H   H3080     1.0  0.81716  0.31827  0.94413  1.0000
  C   C2561     1.0  0.82787  0.20538  0.75690  1.0000
  H   H3081     1.0  0.82828  0.18422  0.74225  1.0000
  C   C2562     1.0  0.80154  0.32199  0.84036  1.0000
  H   H3082     1.0  0.84307  0.20462  0.75216  1.0000
  H   H3083     1.0  0.78637  0.39926  0.82138  1.0000
  C   C2563     1.0  0.78140  0.24115  0.69182  1.0000
  H   H3084     1.0  0.85864  0.20926  0.65751  1.0000
  H   H3085     1.0  0.75561  0.01296  0.64274  1.0000
  C   C2564     1.0  0.78048  0.24430  0.72929  1.0000
  C   C2565     1.0  0.76817  0.34476  0.85663  1.0000
  C   C2566     1.0  0.79802  0.24175  0.69746  1.0000
  N   N170      1.0  0.78220  0.24021  0.67198  1.0000
  H   H3086     1.0  0.94653  0.34108  0.76232  1.0000
  H   H3087     1.0  0.75720  0.08400  0.80516  1.0000
  C   C2567     1.0  0.78872  0.25725  0.65867  1.0000
  H   H3088     1.0  0.92621  0.33586  0.86505  1.0000
  C   C2568     1.0  0.96990  0.35066  0.87327  1.0000
  H   H3089     1.0  0.97337  0.36001  0.90432  1.0000
  H   H3090     1.0  0.80849  0.17273  0.64439  1.0000
  C   C2569     1.0  0.74667  0.06299  0.78280  1.0000
  H   H3091     1.0  0.95262  0.33115  0.78505  1.0000
  C   C2570     1.0  0.84977  0.21638  0.64718  1.0000
  H   H3092     1.0  0.91340  0.16960  0.64791  1.0000
  H   H3093     1.0  0.77791  0.35364  0.96674  1.0000
  N   N171      1.0  0.98688  0.35560  0.87611  1.0000
  N   N172      1.0  0.80571  0.33552  0.96550  1.0000
  C   C2571     1.0  0.92679  0.19270  0.64625  1.0000
  H   H3094     1.0  0.83043  0.31268  0.96272  1.0000
  H   H3095     1.0  0.88997  0.25190  0.64780  1.0000
  H   H3096     1.0  0.97608  0.32069  0.88843  1.0000
  C   C2572     1.0  0.74282  0.17903  0.64982  1.0000
  C   C2573     1.0  0.98551  0.30554  0.77228  1.0000
  H   H3097     1.0  0.77804  0.32838  0.97209  1.0000
  H   H3098     1.0  0.80829  0.30517  0.96697  1.0000
  C   C2574     1.0  0.77045  0.11508  0.64601  1.0000
  H   H3099     1.0  0.98788  0.33640  0.90368  1.0000
  C   C2575     1.0  0.98670  0.35189  0.89675  1.0000
  H   H3100     1.0  0.82499  0.12203  0.64313  1.0000
  H   H3101     1.0  0.78932  0.25716  0.64355  1.0000
  C   C2576     1.0  0.84337  0.23636  0.64395  1.0000
  H   H3102     1.0  0.93700  0.21756  0.64384  1.0000
  H   H3103     1.0  0.92489  0.24994  0.64398  1.0000
  C   C2577     1.0  0.98823  0.37602  0.86783  1.0000
  C   C2578     1.0  0.99056  0.31244  0.78602  1.0000
  C   C2579     1.0  0.91329  0.18483  0.64274  1.0000
  Fe  Fe347     1.0  0.76625  0.60520  0.24125  1.0000
  S   S689      1.0  0.79675  0.59427  0.22884  1.0000
  C   C2580     1.0  0.80498  0.92957  0.29505  1.0000
  S   S690      1.0  0.78371  0.60410  0.18755  1.0000
  Fe  Fe348     1.0  0.75432  0.61430  0.20332  1.0000
  Fe  Fe349     1.0  0.78505  0.57941  0.21300  1.0000
  S   S691      1.0  0.79472  0.54745  0.21418  1.0000
  Fe  Fe350     1.0  0.79245  0.61995  0.20491  1.0000
  S   S692      1.0  0.81117  0.64162  0.19161  1.0000
  H   H3104     1.0  0.76354  0.74939  0.03301  1.0000
  S   S693      1.0  0.76273  0.63206  0.21866  1.0000
  H   H3105     1.0  0.78962  0.48673  0.12369  1.0000
  S   S694      1.0  0.82583  0.86495  0.29731  1.0000
  S   S695      1.0  0.83371  0.67835  0.24860  1.0000
  H   H3106     1.0  0.82625  0.49415  0.19559  1.0000
  S   S696      1.0  0.96968  0.71973  0.25075  1.0000
  C   C2581     1.0  0.96068  0.78283  0.30134  1.0000
  Fe  Fe351     1.0  0.84490  0.74521  0.24182  1.0000
  S   S697      1.0  0.86477  0.71641  0.24744  1.0000
  H   H3107     1.0  0.78336  0.51166  0.22075  1.0000
  Fe  Fe352     1.0  0.84086  0.74057  0.20360  1.0000
  S   S698      1.0  0.86071  0.71178  0.20577  1.0000
  S   S699      1.0  0.82593  0.75641  0.17934  1.0000
  Fe  Fe353     1.0  0.84492  0.70581  0.23601  1.0000
  C   C2582     1.0  0.77725  0.65488  0.09915  1.0000
  Fe  Fe354     1.0  0.87878  0.72486  0.21661  1.0000
  S   S700      1.0  0.90985  0.72287  0.20231  1.0000
  S   S701      1.0  0.82392  0.73389  0.23322  1.0000
  S   S702      1.0  0.86017  0.75429  0.21180  1.0000
  Fe  Fe355     1.0  0.89596  0.84504  0.30658  1.0000
  S   S703      1.0  0.77500  0.69775  0.10888  1.0000
  Fe  Fe356     1.0  0.76157  0.75283  0.09334  1.0000
  Fe  Fe357     1.0  0.74780  0.71761  0.11816  1.0000
  S   S704      1.0  0.79005  0.73596  0.08166  1.0000
  C   C2583     1.0  0.76651  0.93922  0.24797  1.0000
  Fe  Fe358     1.0  0.77343  0.71553  0.07950  1.0000
  S   S705      1.0  0.78161  0.70105  0.05451  1.0000
  Fe  Fe359     1.0  0.78907  0.71984  0.11193  1.0000
  S   S706      1.0  0.81466  0.70857  0.12552  1.0000
  C   C2584     1.0  0.78070  0.69617  0.16558  1.0000
  H   H3108     1.0  0.98744  0.66517  0.28311  1.0000
  H   H3109     1.0  0.78911  0.67160  0.29270  1.0000
  H   H3110     1.0  0.80467  0.49987  0.14184  1.0000
  H   H3111     1.0  0.80554  0.64898  0.10447  1.0000
  C   C2585     1.0  0.75847  0.65160  0.10583  1.0000
  C   C2586     1.0  0.78137  0.51966  0.20671  1.0000
  N   N173      1.0  0.76681  0.69911  0.18332  1.0000
  C   C2587     1.0  0.74966  0.65914  0.07494  1.0000
  C   C2588     1.0  0.77842  0.74305  0.19175  1.0000
  H   H3112     1.0  0.75507  0.67850  0.14646  1.0000
  H   H3113     1.0  0.76417  0.67745  0.25319  1.0000
  H   H3114     1.0  0.79530  0.68973  0.16837  1.0000
  C   C2589     1.0  0.96047  0.75971  0.28294  1.0000
  H   H3115     1.0  0.88258  0.74663  0.29822  1.0000
  C   C2590     1.0  0.76545  0.70416  0.03979  1.0000
  H   H3116     1.0  0.77798  0.90175  0.24958  1.0000
  C   C2591     1.0  0.82445  0.92136  0.29325  1.0000
  N   N174      1.0  0.77373  0.66020  0.27884  1.0000
  C   C2592     1.0  0.75976  0.70077  0.01014  1.0000
  C   C2593     1.0  0.77224  0.69877  0.02215  1.0000
  C   C2594     1.0  0.83102  0.90146  0.29431  1.0000
  S   S707      1.0  0.75731  0.60408  0.27265  1.0000
  H   H3117     1.0  0.76519  0.69674  0.99648  1.0000
  H   H3118     1.0  0.78727  0.69319  0.01765  1.0000
  H   H3119     1.0  0.96712  0.75234  0.27129  1.0000
  C   C2595     1.0  0.82203  0.74266  0.16521  1.0000
  C   C2596     1.0  0.83062  0.72318  0.16682  1.0000
  C   C2597     1.0  0.82831  0.71284  0.15453  1.0000
  C   C2598     1.0  0.81687  0.72174  0.14105  1.0000
  C   C2599     1.0  0.80768  0.74104  0.13989  1.0000
  C   C2600     1.0  0.81053  0.75156  0.15174  1.0000
  H   H3120     1.0  0.83928  0.71615  0.17727  1.0000
  H   H3121     1.0  0.83541  0.69790  0.15547  1.0000
  H   H3122     1.0  0.79892  0.74803  0.12943  1.0000
  H   H3123     1.0  0.80386  0.76664  0.15043  1.0000
  C   C2601     1.0  0.94348  0.75575  0.29470  1.0000
  H   H3124     1.0  0.77719  0.92369  0.29964  1.0000
  C   C2602     1.0  0.81818  0.88977  0.29665  1.0000
  C   C2603     1.0  0.98964  0.78643  0.30798  1.0000
  H   H3125     1.0  0.76564  0.90477  0.27952  1.0000
  H   H3126     1.0  0.77475  0.62976  0.28473  1.0000
  H   H3127     1.0  0.78880  0.88891  0.30032  1.0000
  C   C2604     1.0  0.79144  0.64582  0.10967  1.0000
  C   C2605     1.0  0.84674  0.78967  0.27589  1.0000
  H   H3128     1.0  0.85612  0.80665  0.28981  1.0000
  C   C2606     1.0  0.95358  0.71983  0.23704  1.0000
  C   C2607     1.0  0.93554  0.71612  0.24634  1.0000
  C   C2608     1.0  0.92198  0.71712  0.23585  1.0000
  C   C2609     1.0  0.92655  0.72137  0.21595  1.0000
  C   C2610     1.0  0.94474  0.72470  0.20663  1.0000
  C   C2611     1.0  0.95819  0.72407  0.21714  1.0000
  H   H3129     1.0  0.93194  0.71270  0.26175  1.0000
  H   H3130     1.0  0.90806  0.71439  0.24315  1.0000
  H   H3131     1.0  0.94837  0.72795  0.19123  1.0000
  H   H3132     1.0  0.97208  0.72690  0.20983  1.0000
  C   C2612     1.0  0.81787  0.65146  0.20743  1.0000
  C   C2613     1.0  0.81813  0.64164  0.22627  1.0000
  C   C2614     1.0  0.82371  0.64970  0.23855  1.0000
  C   C2615     1.0  0.82835  0.66792  0.23233  1.0000
  C   C2616     1.0  0.82788  0.67781  0.21353  1.0000
  C   C2617     1.0  0.82294  0.66947  0.20106  1.0000
  H   H3133     1.0  0.81458  0.62759  0.23120  1.0000
  C   C2618     1.0  0.77482  0.51151  0.19524  1.0000
  H   H3134     1.0  0.83112  0.69196  0.20861  1.0000
  H   H3135     1.0  0.82275  0.67715  0.18651  1.0000
  C   C2619     1.0  0.77627  0.64215  0.27240  1.0000
  S   S708      1.0  0.92391  0.85403  0.29186  1.0000
  H   H3136     1.0  0.79191  0.74455  0.21333  1.0000
  S   S709      1.0  0.83392  0.76819  0.25919  1.0000
  H   H3137     1.0  0.77933  0.67103  0.19799  1.0000
  C   C2620     1.0  0.79009  0.65841  0.28761  1.0000
  H   H3138     1.0  0.98395  0.86025  0.30258  1.0000
  C   C2621     1.0  0.87054  0.77696  0.29543  1.0000
  H   H3139     1.0  0.79048  0.63843  0.26321  1.0000
  H   H3140     1.0  0.97972  0.82270  0.28978  1.0000
  C   C2622     1.0  0.77523  0.54067  0.17082  1.0000
  C   C2623     1.0  0.78150  0.54895  0.18241  1.0000
  C   C2624     1.0  0.78494  0.53830  0.20023  1.0000
  C   C2625     1.0  0.96386  0.91364  0.29218  1.0000
  C   C2626     1.0  0.94814  0.91020  0.28763  1.0000
  H   H3141     1.0  0.78421  0.56336  0.17734  1.0000
  H   H3142     1.0  0.78411  0.68886  0.21511  1.0000
  C   C2627     1.0  0.87267  0.75869  0.29188  1.0000
  H   H3143     1.0  0.92169  0.90063  0.29847  1.0000
  H   H3144     1.0  0.82463  0.64167  0.25285  1.0000
  H   H3145     1.0  0.77716  0.68637  0.15860  1.0000
  H   H3146     1.0  0.77298  0.54880  0.15686  1.0000
  N   N175      1.0  0.91510  0.77627  0.24369  1.0000
  C   C2628     1.0  0.89537  0.78751  0.24366  1.0000
  C   C2629     1.0  0.92163  0.76878  0.22591  1.0000
  C   C2630     1.0  0.91482  0.75962  0.26002  1.0000
  C   C2631     1.0  0.92739  0.78824  0.24560  1.0000
  C   C2632     1.0  0.92156  0.79894  0.26018  1.0000
  C   C2633     1.0  0.94573  0.78892  0.23386  1.0000
  C   C2634     1.0  0.93273  0.81070  0.26194  1.0000
  C   C2635     1.0  0.95691  0.80048  0.23595  1.0000
  C   C2636     1.0  0.95026  0.81163  0.24968  1.0000
  H   H3147     1.0  0.89509  0.80078  0.23220  1.0000
  H   H3148     1.0  0.88602  0.77901  0.24151  1.0000
  H   H3149     1.0  0.88835  0.79192  0.25733  1.0000
  H   H3150     1.0  0.92280  0.78064  0.21306  1.0000
  H   H3151     1.0  0.91167  0.76052  0.22447  1.0000
  H   H3152     1.0  0.93556  0.75856  0.22565  1.0000
  H   H3153     1.0  0.90948  0.76424  0.27385  1.0000
  H   H3154     1.0  0.90552  0.75025  0.25943  1.0000
  H   H3155     1.0  0.92936  0.75061  0.26023  1.0000
  H   H3156     1.0  0.90837  0.79824  0.27048  1.0000
  H   H3157     1.0  0.95182  0.78060  0.22299  1.0000
  H   H3158     1.0  0.92771  0.81913  0.27289  1.0000
  H   H3159     1.0  0.97088  0.80080  0.22688  1.0000
  H   H3160     1.0  0.95882  0.82090  0.25088  1.0000
  S   S710      1.0  0.76180  0.73835  0.12393  1.0000
  H   H3161     1.0  0.76605  0.61973  0.14766  1.0000
  H   H3162     1.0  0.77607  0.91264  0.22564  1.0000
  H   H3163     1.0  0.96205  0.85993  0.28263  1.0000
  H   H3164     1.0  0.76720  0.73769  0.17068  1.0000
  H   H3165     1.0  0.84604  0.89525  0.29298  1.0000
  H   H3166     1.0  0.76567  0.64298  0.26393  1.0000
  H   H3167     1.0  0.97495  0.91818  0.28050  1.0000
  H   H3168     1.0  0.97990  0.80747  0.27475  1.0000
  S   S711      1.0  0.75484  0.58849  0.22738  1.0000
  H   H3169     1.0  0.77179  0.49730  0.20038  1.0000
  C   C2637     1.0  0.74782  0.70851  0.17865  1.0000
  C   C2638     1.0  0.74379  0.65481  0.16607  1.0000
  S   S712      1.0  0.88056  0.83564  0.28938  1.0000
  H   H3170     1.0  0.78101  0.66499  0.08598  1.0000
  C   C2639     1.0  0.93890  0.85478  0.30636  1.0000
  C   C2640     1.0  0.74242  0.67298  0.15361  1.0000
  H   H3171     1.0  0.79125  0.64565  0.29961  1.0000
  C   C2641     1.0  0.79877  0.89797  0.29829  1.0000
  N   N176      1.0  0.75474  0.92651  0.24642  1.0000
  S   S713      1.0  0.75410  0.78478  0.08295  1.0000
  H   H3172     1.0  0.75739  0.95260  0.25230  1.0000
  H   H3173     1.0  0.93706  0.74519  0.29241  1.0000
  S   S714      1.0  0.76492  0.51144  0.16222  1.0000
  C   C2642     1.0  0.75504  0.66356  0.29197  1.0000
  C   C2643     1.0  0.78743  0.63311  0.12705  1.0000
  C   C2644     1.0  0.78825  0.71584  0.21603  1.0000
  C   C2645     1.0  0.84884  0.77141  0.27234  1.0000
  C   C2646     1.0  0.85764  0.79248  0.28732  1.0000
  H   H3174     1.0  0.75276  0.68902  0.08638  1.0000
  C   C2647     1.0  0.79217  0.91773  0.29775  1.0000
  H   H3175     1.0  0.78881  0.67470  0.25227  1.0000
  C   C2648     1.0  0.76922  0.62940  0.13395  1.0000
  H   H3176     1.0  0.74167  0.69877  0.17399  1.0000
  H   H3177     1.0  0.95769  0.82084  0.28548  1.0000
  H   H3178     1.0  0.86353  0.74179  0.27761  1.0000
  C   C2649     1.0  0.86200  0.75595  0.28015  1.0000
  C   C2650     1.0  0.95736  0.85774  0.29794  1.0000
  N   N177      1.0  0.97030  0.79644  0.30478  1.0000
  H   H3179     1.0  0.76221  0.66546  0.06691  1.0000
  H   H3180     1.0  0.74096  0.63547  0.13028  1.0000
  H   H3181     1.0  0.83663  0.80167  0.26975  1.0000
  H   H3182     1.0  0.75753  0.64640  0.16858  1.0000
  N   N178      1.0  0.88788  0.72748  0.14872  1.0000
  C   C2651     1.0  0.88010  0.74171  0.16112  1.0000
  C   C2652     1.0  0.88865  0.70800  0.16131  1.0000
  C   C2653     1.0  0.90751  0.72960  0.13907  1.0000
  C   C2654     1.0  0.87656  0.72999  0.13420  1.0000
  C   C2655     1.0  0.86190  0.74642  0.13032  1.0000
  C   C2656     1.0  0.88026  0.71589  0.12317  1.0000
  C   C2657     1.0  0.85128  0.74814  0.11674  1.0000
  C   C2658     1.0  0.86930  0.71761  0.10990  1.0000
  C   C2659     1.0  0.85476  0.73365  0.10678  1.0000
  H   H3183     1.0  0.88825  0.73897  0.17252  1.0000
  H   H3184     1.0  0.88065  0.75666  0.15303  1.0000
  H   H3185     1.0  0.86513  0.74115  0.16836  1.0000
  H   H3186     1.0  0.87413  0.70492  0.16698  1.0000
  H   H3187     1.0  0.89518  0.70644  0.17370  1.0000
  H   H3188     1.0  0.89733  0.69636  0.15395  1.0000
  H   H3189     1.0  0.90756  0.74404  0.12946  1.0000
  H   H3190     1.0  0.91644  0.72789  0.14960  1.0000
  H   H3191     1.0  0.91463  0.71868  0.13026  1.0000
  H   H3192     1.0  0.85782  0.75786  0.13803  1.0000
  H   H3193     1.0  0.89144  0.70324  0.12495  1.0000
  H   H3194     1.0  0.83970  0.76042  0.11452  1.0000
  H   H3195     1.0  0.87175  0.70627  0.10225  1.0000
  H   H3196     1.0  0.84583  0.73462  0.09699  1.0000
  H   H3197     1.0  0.78147  0.70994  0.15502  1.0000
  C   C2660     1.0  0.78645  0.73538  0.20778  1.0000
  C   C2661     1.0  0.74236  0.92096  0.26520  1.0000
  H   H3198     1.0  0.74482  0.77377  0.05087  1.0000
  C   C2662     1.0  0.78173  0.70394  0.20842  1.0000
  C   C2663     1.0  0.74477  0.75593  0.01353  1.0000
  C   C2664     1.0  0.77208  0.52187  0.17714  1.0000
  C   C2665     1.0  0.76522  0.67989  0.19569  1.0000
  H   H3199     1.0  0.83446  0.93037  0.29125  1.0000
  H   H3200     1.0  0.98222  0.77551  0.27667  1.0000
  C   C2666     1.0  0.77457  0.67638  0.26194  1.0000
  Fe  Fe360     1.0  0.85385  0.85081  0.30620  1.0000
  H   H3201     1.0  0.79838  0.62634  0.13533  1.0000
  C   C2667     1.0  0.74403  0.93701  0.23111  1.0000
  C   C2668     1.0  0.97197  0.81251  0.28795  1.0000
  H   H3202     1.0  0.79530  0.70981  0.22801  1.0000
  H   H3203     1.0  0.77790  0.75809  0.18490  1.0000
  H   H3204     1.0  0.80387  0.65655  0.27723  1.0000
  C   C2669     1.0  0.77323  0.71139  0.19217  1.0000
  C   C2670     1.0  0.75055  0.75844  0.02889  1.0000
  C   C2671     1.0  0.77220  0.73124  0.18381  1.0000
  C   C2672     1.0  0.93358  0.90388  0.30202  1.0000
  H   H3205     1.0  0.77177  0.69035  0.26629  1.0000
  H   H3206     1.0  0.77616  0.94369  0.23419  1.0000
  H   H3207     1.0  0.81475  0.49301  0.21969  1.0000
  H   H3208     1.0  0.94738  0.91204  0.27287  1.0000
  C   C2673     1.0  0.96900  0.77300  0.28617  1.0000
  H   H3209     1.0  0.75325  0.74501  0.00572  1.0000
  H   H3210     1.0  0.75951  0.67133  0.18904  1.0000
  H   H3211     1.0  0.75347  0.64356  0.07468  1.0000
  H   H3212     1.0  0.77558  0.93220  0.25871  1.0000
  H   H3213     1.0  0.75565  0.68112  0.20971  1.0000
  C   C2674     1.0  0.75485  0.63857  0.12367  1.0000
  Fe  Fe361     1.0  0.76547  0.96695  0.29852  1.0000
  S   S715      1.0  0.79706  0.95448  0.29439  1.0000
  H   H3214     1.0  0.74828  0.72125  0.16666  1.0000
  C   C2675     1.0  0.76751  0.90910  0.24031  1.0000
  H   H3215     1.0  0.98768  0.93698  0.29135  1.0000
  H   H3216     1.0  0.79672  0.82631  0.30820  1.0000
  C   C2676     1.0  0.74601  0.71131  0.04552  1.0000
  H   H3217     1.0  0.75919  0.89850  0.24044  1.0000
  S   S716      1.0  0.74558  0.95136  0.29407  1.0000
  H   H3218     1.0  0.75367  0.94061  0.21708  1.0000
  N   N179      1.0  0.74350  0.66207  0.09480  1.0000
  C   C2677     1.0  0.75046  0.90964  0.28097  1.0000
  H   H3219     1.0  0.82136  0.81514  0.30257  1.0000
  H   H3220     1.0  0.79032  0.79517  0.30713  1.0000
  H   H3221     1.0  0.81498  0.78445  0.30359  1.0000
  C   C2678     1.0  0.98510  0.93382  0.30716  1.0000
  S   S717      1.0  0.74501  0.73385  0.08853  1.0000
  C   C2679     1.0  0.75576  0.78974  0.58864  1.0000
  C   C2680     1.0  0.95035  0.90430  0.32574  1.0000
  S   S718      1.0  0.78355  0.80507  0.41682  1.0000
  S   S719      1.0  0.77230  0.82374  0.60103  1.0000
  S   S720      1.0  0.78349  0.86556  0.59509  1.0000
  Fe  Fe362     1.0  0.77995  0.83971  0.61877  1.0000
  S   S721      1.0  0.76336  0.84651  0.44653  1.0000
  H   H3222     1.0  0.74714  0.93235  0.39207  1.0000
  H   H3223     1.0  0.76520  0.66151  0.31785  1.0000
  H   H3224     1.0  0.77031  0.95511  0.59209  1.0000
  C   C2681     1.0  0.80208  0.78753  0.31479  1.0000
  C   C2682     1.0  0.83374  0.86109  0.63224  1.0000
  H   H3225     1.0  0.74572  0.89717  0.31112  1.0000
  S   S722      1.0  0.89552  0.81878  0.33020  1.0000
  S   S723      1.0  0.74834  0.97283  0.32681  1.0000
  H   H3226     1.0  0.97228  0.94435  0.31226  1.0000
  C   C2683     1.0  0.78812  0.80328  0.34238  1.0000
  H   H3227     1.0  0.96770  0.81513  0.32374  1.0000
  H   H3228     1.0  0.78208  0.89382  0.46009  1.0000
  H   H3229     1.0  0.78159  0.85816  0.35387  1.0000
  Fe  Fe363     1.0  0.86755  0.83555  0.34326  1.0000
  S   S724      1.0  0.85705  0.83856  0.37369  1.0000
  H   H3230     1.0  0.79945  0.98045  0.62277  1.0000
  S   S725      1.0  0.85052  0.82469  0.32937  1.0000
  H   H3231     1.0  0.79979  0.86826  0.33586  1.0000
  C   C2684     1.0  0.78874  0.81393  0.35546  1.0000
  H   H3232     1.0  0.78860  0.97406  0.59967  1.0000
  H   H3233     1.0  0.84747  0.91824  0.33909  1.0000
  C   C2685     1.0  0.98211  0.91037  0.33651  1.0000
  H   H3234     1.0  0.85052  0.88439  0.35717  1.0000
  H   H3235     1.0  0.94567  0.81344  0.31980  1.0000
  C   C2686     1.0  0.80387  0.89324  0.35342  1.0000
  S   S726      1.0  0.97840  0.85683  0.34348  1.0000
  H   H3236     1.0  0.79955  0.78218  0.56054  1.0000
  H   H3237     1.0  0.76510  0.90827  0.35689  1.0000
  S   S727      1.0  0.86934  0.86275  0.32101  1.0000
  H   H3238     1.0  0.98906  0.77382  0.32015  1.0000
  H   H3239     1.0  0.77182  0.84059  0.49005  1.0000
  C   C2687     1.0  0.80249  0.91273  0.34339  1.0000
  C   C2688     1.0  0.81806  0.92160  0.33847  1.0000
  S   S728      1.0  0.78660  0.84810  0.54795  1.0000
  Fe  Fe364     1.0  0.77286  0.85067  0.57831  1.0000
  H   H3240     1.0  0.78246  0.75744  0.59541  1.0000
  C   C2689     1.0  0.96368  0.85547  0.32897  1.0000
  H   H3241     1.0  0.76100  0.78839  0.60175  1.0000
  C   C2690     1.0  0.76298  0.96680  0.59932  1.0000
  C   C2691     1.0  0.79373  0.86524  0.35145  1.0000
  C   C2692     1.0  0.93283  0.85219  0.32612  1.0000
  C   C2693     1.0  0.94516  0.85269  0.33736  1.0000
  H   H3242     1.0  0.98135  0.89518  0.34375  1.0000
  H   H3243     1.0  0.93534  0.78580  0.32436  1.0000
  H   H3244     1.0  0.91859  0.84999  0.33274  1.0000
  H   H3245     1.0  0.94030  0.85094  0.35263  1.0000
  N   N180      1.0  0.78782  0.88321  0.35880  1.0000
  C   C2694     1.0  0.96551  0.91073  0.31139  1.0000
  C   C2695     1.0  0.80385  0.81458  0.40479  1.0000
  C   C2696     1.0  0.80738  0.83028  0.40947  1.0000
  C   C2697     1.0  0.82387  0.83737  0.40003  1.0000
  C   C2698     1.0  0.83667  0.82914  0.38548  1.0000
  C   C2699     1.0  0.83303  0.81360  0.38057  1.0000
  C   C2700     1.0  0.81675  0.80621  0.39035  1.0000
  H   H3246     1.0  0.79771  0.83666  0.42072  1.0000
  H   H3247     1.0  0.82672  0.84927  0.40399  1.0000
  H   H3248     1.0  0.84312  0.80680  0.36977  1.0000
  H   H3249     1.0  0.81422  0.79389  0.38685  1.0000
  H   H3250     1.0  0.80472  0.85440  0.35847  1.0000
  C   C2701     1.0  0.77355  0.91144  0.61751  1.0000
  C   C2702     1.0  0.74809  0.78530  0.52478  1.0000
  H   H3251     1.0  0.77416  0.87166  0.47045  1.0000
  C   C2703     1.0  0.96011  0.80495  0.32158  1.0000
  H   H3252     1.0  0.75984  0.92460  0.46163  1.0000
  C   C2704     1.0  0.83535  0.91143  0.34331  1.0000
  C   C2705     1.0  0.83706  0.89242  0.35340  1.0000
  H   H3253     1.0  0.78970  0.92144  0.33880  1.0000
  C   C2706     1.0  0.74327  0.97023  0.60487  1.0000
  Fe  Fe365     1.0  0.75253  0.87652  0.60615  1.0000
  C   C2707     1.0  0.82051  0.85213  0.62942  1.0000
  N   N181      1.0  0.80482  0.79916  0.32703  1.0000
  C   C2708     1.0  0.76983  0.90263  0.49560  1.0000
  H   H3254     1.0  0.77983  0.90855  0.48354  1.0000
  H   H3255     1.0  0.89126  0.81947  0.62445  1.0000
  C   C2709     1.0  0.77844  0.84386  0.51552  1.0000
  C   C2710     1.0  0.76669  0.84082  0.50498  1.0000
  H   H3256     1.0  0.79250  0.84640  0.50855  1.0000
  H   H3257     1.0  0.81281  0.82660  0.32223  1.0000
  H   H3258     1.0  0.75890  0.88710  0.35555  1.0000
  H   H3259     1.0  0.79924  0.77327  0.32319  1.0000
  C   C2711     1.0  0.75558  0.80094  0.35977  1.0000
  H   H3260     1.0  0.92354  0.89554  0.33214  1.0000
  H   H3261     1.0  0.95056  0.90097  0.34073  1.0000
  H   H3262     1.0  0.79371  0.86820  0.38658  1.0000
  H   H3263     1.0  0.78077  0.90200  0.60778  1.0000
  H   H3264     1.0  0.79237  0.78795  0.58350  1.0000
  C   C2712     1.0  0.80909  0.81754  0.31453  1.0000
  C   C2713     1.0  0.75394  0.84018  0.54402  1.0000
  C   C2714     1.0  0.77260  0.90159  0.51377  1.0000
  H   H3265     1.0  0.79948  0.91657  0.62113  1.0000
  C   C2715     1.0  0.75312  0.66372  0.31148  1.0000
  C   C2716     1.0  0.82155  0.78830  0.33551  1.0000
  H   H3266     1.0  0.78463  0.90623  0.51542  1.0000
  H   H3267     1.0  0.82568  0.79653  0.34374  1.0000
  C   C2717     1.0  0.75370  0.91572  0.62223  1.0000
  H   H3268     1.0  0.76815  0.88634  0.44844  1.0000
  C   C2718     1.0  0.94305  0.77882  0.31275  1.0000
  S   S729      1.0  0.74959  0.85150  0.63079  1.0000
  H   H3269     1.0  0.83436  0.78455  0.32443  1.0000
  C   C2719     1.0  0.77202  0.84369  0.53504  1.0000
  H   H3270     1.0  0.76904  0.78886  0.33567  1.0000
  H   H3271     1.0  0.81520  0.85690  0.61635  1.0000
  H   H3272     1.0  0.83852  0.87283  0.62133  1.0000
  H   H3273     1.0  0.82365  0.86875  0.36630  1.0000
  C   C2720     1.0  0.77095  0.79698  0.34489  1.0000
  H   H3274     1.0  0.77175  0.79792  0.50846  1.0000
  H   H3275     1.0  0.74895  0.83983  0.55906  1.0000
  C   C2721     1.0  0.78213  0.87825  0.37986  1.0000
  Fe  Fe366     1.0  0.75979  0.82453  0.43258  1.0000
  C   C2722     1.0  0.76991  0.88675  0.46275  1.0000
  H   H3276     1.0  0.80132  0.81910  0.35454  1.0000
  N   N182      1.0  0.98267  0.91379  0.31578  1.0000
  C   C2723     1.0  0.77078  0.89492  0.35127  1.0000
  H   H3277     1.0  0.81678  0.93634  0.33036  1.0000
  H   H3278     1.0  0.77818  0.89137  0.38593  1.0000
  H   H3279     1.0  0.77399  0.89897  0.33545  1.0000
  C   C2724     1.0  0.82157  0.88348  0.35848  1.0000
  C   C2725     1.0  0.77612  0.75973  0.58276  1.0000
  C   C2726     1.0  0.76283  0.78262  0.55718  1.0000
  H   H3280     1.0  0.77425  0.82556  0.38034  1.0000
  H   H3281     1.0  0.81867  0.77463  0.34540  1.0000
  H   H3282     1.0  0.75112  0.80535  0.58274  1.0000
  C   C2727     1.0  0.76474  0.79158  0.52258  1.0000
  C   C2728     1.0  0.78412  0.91979  0.62501  1.0000
  H   H3283     1.0  0.95872  0.79373  0.33495  1.0000
  H   H3284     1.0  0.78674  0.75208  0.57222  1.0000
  C   C2729     1.0  0.93464  0.90105  0.32101  1.0000
  C   C2730     1.0  0.77331  0.97772  0.60381  1.0000
  H   H3285     1.0  0.76964  0.87125  0.38463  1.0000
  H   H3286     1.0  0.74232  0.78674  0.51241  1.0000
  C   C2731     1.0  0.77200  0.79048  0.53847  1.0000
  C   C2732     1.0  0.88019  0.81146  0.63357  1.0000
  C   C2733     1.0  0.78733  0.78925  0.57028  1.0000
  H   H3287     1.0  0.87851  0.80170  0.62529  1.0000
  C   C2734     1.0  0.75679  0.81124  0.37246  1.0000
  C   C2735     1.0  0.74803  0.91724  0.46349  1.0000
  S   S730      1.0  0.74459  0.89619  0.41824  1.0000
  N   N183      1.0  0.77048  0.78047  0.57430  1.0000
  H   H3288     1.0  0.78462  0.79620  0.53567  1.0000
  H   H3289     1.0  0.78394  0.80495  0.56387  1.0000
  H   H3290     1.0  0.74268  0.79583  0.36161  1.0000
  H   H3291     1.0  0.96979  0.92010  0.34356  1.0000
  C   C2736     1.0  0.74450  0.92813  0.63473  1.0000
  C   C2737     1.0  0.74604  0.77606  0.55884  1.0000
  C   C2738     1.0  0.74845  0.83775  0.51396  1.0000
  H   H3292     1.0  0.74294  0.78334  0.59359  1.0000
  H   H3293     1.0  0.76377  0.75255  0.58766  1.0000
  H   H3294     1.0  0.86679  0.82250  0.63560  1.0000
  Fe  Fe367     1.0  0.87842  0.81053  0.31398  1.0000
  C   C2739     1.0  0.77329  0.81781  0.37024  1.0000
  H   H3295     1.0  0.92134  0.76246  0.31843  1.0000
  C   C2740     1.0  0.75463  0.89589  0.49308  1.0000
  C   C2741     1.0  0.76015  0.89422  0.52991  1.0000
  H   H3296     1.0  0.76260  0.89295  0.54399  1.0000
  C   C2742     1.0  0.77492  0.93204  0.63765  1.0000
  C   C2743     1.0  0.74218  0.83734  0.53349  1.0000
  N   N184      1.0  0.75222  0.89686  0.47367  1.0000
  H   H3297     1.0  0.74499  0.81400  0.38417  1.0000
  H   H3298     1.0  0.91472  0.79424  0.63800  1.0000
  H   H3299     1.0  0.74571  0.91849  0.44893  1.0000
  C   C2744     1.0  0.93473  0.76539  0.30946  1.0000
  S   S731      1.0  0.79876  0.82447  0.64006  1.0000
  C   C2745     1.0  0.74483  0.88794  0.52797  1.0000
  Fe  Fe368     1.0  0.74204  0.83777  0.61095  1.0000
  S   S732      1.0  0.74203  0.86400  0.58721  1.0000
  C   C2746     1.0  0.96981  0.85785  0.30922  1.0000
  H   H3300     1.0  0.90188  0.77548  0.64186  1.0000
  S   S733      1.0  0.88445  0.78029  0.30955  1.0000
  C   C2747     1.0  0.74209  0.88858  0.50989  1.0000
  Fe  Fe369     1.0  0.77379  0.63766  0.81783  1.0000
  S   S734      1.0  0.78472  0.61124  0.83832  1.0000
  S   S735      1.0  0.78902  0.66242  0.80518  1.0000
  H   H3301     1.0  0.75580  0.57752  0.80694  1.0000
  S   S736      1.0  0.91265  0.88727  0.69576  1.0000
  H   H3302     1.0  0.89151  0.92894  0.69617  1.0000
  H   H3303     1.0  0.77415  0.66730  0.85226  1.0000
  H   H3304     1.0  0.83622  0.60477  0.75816  1.0000
  Fe  Fe370     1.0  0.77470  0.59512  0.82263  1.0000
  S   S737      1.0  0.79251  0.56676  0.81675  1.0000
  C   C2748     1.0  0.94859  0.88628  0.69942  1.0000
  S   S738      1.0  0.76643  0.62111  0.80024  1.0000
  Fe  Fe371     1.0  0.77292  0.69927  0.94024  1.0000
  S   S739      1.0  0.80375  0.68559  0.93261  1.0000
  C   C2749     1.0  0.74216  0.65175  0.91825  1.0000
  S   S740      1.0  0.75754  0.71263  0.91627  1.0000
  H   H3305     1.0  0.98714  0.71354  0.83746  1.0000
  Fe  Fe372     1.0  0.86808  0.69205  0.83076  1.0000
  S   S741      1.0  0.84727  0.72008  0.82985  1.0000
  S   S742      1.0  0.85710  0.66453  0.84051  1.0000
  Fe  Fe373     1.0  0.90194  0.71166  0.82038  1.0000
  S   S743      1.0  0.88356  0.74134  0.81859  1.0000
  S   S744      1.0  0.93391  0.70480  0.81623  1.0000
  Fe  Fe374     1.0  0.86535  0.72766  0.84522  1.0000
  S   S745      1.0  0.85059  0.74175  0.86993  1.0000
  Fe  Fe375     1.0  0.86735  0.73065  0.80337  1.0000
  S   S746      1.0  0.85351  0.74836  0.77916  1.0000
  S   S747      1.0  0.88494  0.69875  0.84825  1.0000
  S   S748      1.0  0.88706  0.70192  0.80294  1.0000
  H   H3306     1.0  0.80671  0.62011  0.77895  1.0000
  Fe  Fe376     1.0  0.88980  0.82529  0.70632  1.0000
  S   S749      1.0  0.89910  0.84690  0.68019  1.0000
  S   S750      1.0  0.90579  0.79465  0.71196  1.0000
  Fe  Fe377     1.0  0.85698  0.85403  0.72235  1.0000
  S   S751      1.0  0.86318  0.87803  0.69768  1.0000
  S   S752      1.0  0.83329  0.85848  0.74731  1.0000
  Fe  Fe378     1.0  0.86798  0.85657  0.67973  1.0000
  Fe  Fe379     1.0  0.89362  0.86647  0.70030  1.0000
  H   H3307     1.0  0.94966  0.89632  0.68580  1.0000
  S   S753      1.0  0.85903  0.83340  0.70438  1.0000
  S   S754      1.0  0.88700  0.84400  0.72661  1.0000
  Fe  Fe380     1.0  0.77588  0.95650  0.71118  1.0000
  Fe  Fe381     1.0  0.75496  0.61555  0.85530  1.0000
  S   S755      1.0  0.79200  0.94591  0.73479  1.0000
  H   H3308     1.0  0.86715  0.65267  0.79315  1.0000
  C   C2750     1.0  0.83622  0.93593  0.68683  1.0000
  N   N185      1.0  0.75738  0.69611  0.85344  1.0000
  H   H3309     1.0  0.78455  0.84380  0.67828  1.0000
  C   C2751     1.0  0.89180  0.70966  0.89212  1.0000
  C   C2752     1.0  0.78794  0.88025  0.66211  1.0000
  H   H3310     1.0  0.94323  0.76345  0.87582  1.0000
  C   C2753     1.0  0.83459  0.83974  0.66308  1.0000
  Fe  Fe382     1.0  0.77303  0.95605  0.67174  1.0000
  C   C2754     1.0  0.74305  0.63230  0.89605  1.0000
  C   C2755     1.0  0.76283  0.88780  0.72453  1.0000
  C   C2756     1.0  0.82136  0.88262  0.74366  1.0000
  C   C2757     1.0  0.81618  0.89221  0.75867  1.0000
  C   C2758     1.0  0.80717  0.91167  0.75580  1.0000
  C   C2759     1.0  0.80257  0.92138  0.73816  1.0000
  C   C2760     1.0  0.80723  0.91165  0.72327  1.0000
  C   C2761     1.0  0.81711  0.89241  0.72586  1.0000
  H   H3311     1.0  0.81947  0.88471  0.77243  1.0000
  H   H3312     1.0  0.80356  0.91917  0.76734  1.0000
  H   H3313     1.0  0.80352  0.91899  0.70967  1.0000
  H   H3314     1.0  0.82100  0.88505  0.71421  1.0000
  H   H3315     1.0  0.87432  0.90924  0.65090  1.0000
  H   H3316     1.0  0.82864  0.58257  0.86742  1.0000
  C   C2762     1.0  0.90359  0.78691  0.64811  1.0000
  C   C2763     1.0  0.93196  0.87909  0.70751  1.0000
  C   C2764     1.0  0.93066  0.86619  0.72518  1.0000
  C   C2765     1.0  0.94582  0.86078  0.73481  1.0000
  H   H3317     1.0  0.95574  0.76968  0.76752  1.0000
  C   C2766     1.0  0.91298  0.77343  0.87884  1.0000
  H   H3318     1.0  0.91780  0.86079  0.73166  1.0000
  H   H3319     1.0  0.94458  0.85112  0.74864  1.0000
  C   C2767     1.0  0.89174  0.78056  0.72996  1.0000
  C   C2768     1.0  0.89987  0.76604  0.74375  1.0000
  C   C2769     1.0  0.88830  0.75561  0.75880  1.0000
  C   C2770     1.0  0.86869  0.75953  0.75974  1.0000
  C   C2771     1.0  0.86073  0.77354  0.74558  1.0000
  C   C2772     1.0  0.87220  0.78414  0.73085  1.0000
  H   H3320     1.0  0.91502  0.76315  0.74305  1.0000
  H   H3321     1.0  0.89450  0.74472  0.76973  1.0000
  H   H3322     1.0  0.84559  0.77647  0.74621  1.0000
  H   H3323     1.0  0.86592  0.79481  0.71997  1.0000
  C   C2773     1.0  0.96460  0.73870  0.83749  1.0000
  C   C2774     1.0  0.94622  0.74690  0.83403  1.0000
  C   C2775     1.0  0.93663  0.73674  0.82736  1.0000
  C   C2776     1.0  0.94546  0.71835  0.82403  1.0000
  C   C2777     1.0  0.96384  0.71026  0.82738  1.0000
  C   C2778     1.0  0.97329  0.72029  0.83427  1.0000
  H   H3324     1.0  0.93933  0.76109  0.83660  1.0000
  H   H3325     1.0  0.92244  0.74311  0.82483  1.0000
  H   H3326     1.0  0.97068  0.69597  0.82500  1.0000
  C   C2779     1.0  0.81680  0.70150  0.91575  1.0000
  C   C2780     1.0  0.83440  0.69407  0.90517  1.0000
  C   C2781     1.0  0.84462  0.70640  0.89094  1.0000
  C   C2782     1.0  0.83779  0.72631  0.88785  1.0000
  C   C2783     1.0  0.82044  0.73382  0.89881  1.0000
  C   C2784     1.0  0.80975  0.72139  0.91249  1.0000
  H   H3327     1.0  0.83998  0.67872  0.90775  1.0000
  H   H3328     1.0  0.85789  0.70043  0.88255  1.0000
  H   H3329     1.0  0.81501  0.74921  0.89643  1.0000
  H   H3330     1.0  0.79616  0.72723  0.92064  1.0000
  N   N186      1.0  0.77150  0.87404  0.67638  1.0000
  C   C2785     1.0  0.86902  0.92140  0.67560  1.0000
  H   H3331     1.0  0.88245  0.94451  0.71218  1.0000
  H   H3332     1.0  0.81815  0.63870  0.77844  1.0000
  C   C2786     1.0  0.78450  0.53316  0.81454  1.0000
  C   C2787     1.0  0.82993  0.59044  0.79473  1.0000
  H   H3333     1.0  0.88370  0.91618  0.67688  1.0000
  C   C2788     1.0  0.87912  0.94039  0.70026  1.0000
  H   H3334     1.0  0.87831  0.63077  0.82125  1.0000
  C   C2789     1.0  0.80812  0.66284  0.81484  1.0000
  C   C2790     1.0  0.81769  0.67813  0.80750  1.0000
  C   C2791     1.0  0.83268  0.67893  0.81533  1.0000
  C   C2792     1.0  0.83827  0.66430  0.83041  1.0000
  C   C2793     1.0  0.82879  0.64901  0.83760  1.0000
  C   C2794     1.0  0.81369  0.64835  0.82999  1.0000
  H   H3335     1.0  0.81344  0.68947  0.79580  1.0000
  H   H3336     1.0  0.83998  0.69078  0.80958  1.0000
  H   H3337     1.0  0.83325  0.63754  0.84899  1.0000
  H   H3338     1.0  0.80646  0.63661  0.83592  1.0000
  C   C2795     1.0  0.77840  0.55313  0.81271  1.0000
  S   S756      1.0  0.74582  0.59687  0.84149  1.0000
  H   H3339     1.0  0.94247  0.79848  0.74635  1.0000
  H   H3340     1.0  0.90940  0.77969  0.66120  1.0000
  C   C2796     1.0  0.85370  0.79009  0.65961  1.0000
  C   C2797     1.0  0.86350  0.63860  0.79820  1.0000
  C   C2798     1.0  0.86314  0.91520  0.71988  1.0000
  H   H3341     1.0  0.85868  0.59962  0.76527  1.0000
  H   H3342     1.0  0.75290  0.72609  0.87241  1.0000
  H   H3343     1.0  0.84675  0.62403  0.75770  1.0000
  C   C2799     1.0  0.88814  0.81476  0.66152  1.0000
  H   H3344     1.0  0.78869  0.89510  0.66226  1.0000
  H   H3345     1.0  0.74785  0.94560  0.65230  1.0000
  H   H3346     1.0  0.74442  0.50916  0.77082  1.0000
  C   C2800     1.0  0.86459  0.60847  0.82112  1.0000
  C   C2801     1.0  0.86978  0.62626  0.81410  1.0000
  H   H3347     1.0  0.84290  0.57877  0.79456  1.0000
  H   H3348     1.0  0.88426  0.71694  0.88021  1.0000
  H   H3349     1.0  0.92152  0.69113  0.87134  1.0000
  H   H3350     1.0  0.86938  0.59904  0.83363  1.0000
  C   C2802     1.0  0.80066  0.71801  0.86503  1.0000
  H   H3351     1.0  0.87880  0.95301  0.68807  1.0000
  C   C2803     1.0  0.77335  0.87461  0.69557  1.0000
  C   C2804     1.0  0.76056  0.56213  0.80848  1.0000
  H   H3352     1.0  0.86241  0.76108  0.70948  1.0000
  H   H3353     1.0  0.85134  0.95135  0.72711  1.0000
  C   C2805     1.0  0.78899  0.86260  0.70343  1.0000
  S   S757      1.0  0.78855  0.94216  0.64690  1.0000
  C   C2806     1.0  0.75395  0.88673  0.67058  1.0000
  C   C2807     1.0  0.84340  0.76959  0.68997  1.0000
  H   H3354     1.0  0.77782  0.73785  0.87832  1.0000
  C   C2808     1.0  0.96752  0.81033  0.73839  1.0000
  S   S758      1.0  0.78826  0.97242  0.68242  1.0000
  H   H3355     1.0  0.83980  0.83488  0.67613  1.0000
  S   S759      1.0  0.74648  0.97903  0.67204  1.0000
  C   C2809     1.0  0.76030  0.88732  0.70668  1.0000
  C   C2810     1.0  0.78160  0.72617  0.87082  1.0000
  Fe  Fe383     1.0  0.74386  0.73596  0.93235  1.0000
  H   H3356     1.0  0.82720  0.78053  0.66785  1.0000
  C   C2811     1.0  0.83114  0.93154  0.67190  1.0000
  H   H3357     1.0  0.97543  0.74001  0.77439  1.0000
  H   H3358     1.0  0.88603  0.77871  0.68831  1.0000
  C   C2812     1.0  0.89560  0.76821  0.88184  1.0000
  C   C2813     1.0  0.77195  0.70370  0.85779  1.0000
  C   C2814     1.0  0.79152  0.69601  0.85181  1.0000
  C   C2815     1.0  0.80560  0.70294  0.85557  1.0000
  H   H3359     1.0  0.75633  0.71670  0.82690  1.0000
  H   H3360     1.0  0.97700  0.79135  0.83987  1.0000
  N   N187      1.0  0.88530  0.80067  0.65212  1.0000
  H   H3361     1.0  0.96147  0.82302  0.72880  1.0000
  H   H3362     1.0  0.81163  0.72344  0.86778  1.0000
  H   H3363     1.0  0.79612  0.68468  0.84399  1.0000
  H   H3364     1.0  0.82044  0.69659  0.85104  1.0000
  N   N188      1.0  0.85262  0.80778  0.78748  1.0000
  C   C2816     1.0  0.85614  0.82761  0.78250  1.0000
  C   C2817     1.0  0.87123  0.79462  0.78305  1.0000
  C   C2818     1.0  0.84028  0.80708  0.77500  1.0000
  C   C2819     1.0  0.84357  0.80166  0.80771  1.0000
  C   C2820     1.0  0.83889  0.81364  0.82112  1.0000
  C   C2821     1.0  0.83935  0.78303  0.81461  1.0000
  C   C2822     1.0  0.83085  0.80708  0.84025  1.0000
  C   C2823     1.0  0.83133  0.77665  0.83372  1.0000
  C   C2824     1.0  0.82721  0.78858  0.84655  1.0000
  H   H3365     1.0  0.86587  0.82913  0.79084  1.0000
  H   H3366     1.0  0.86290  0.83170  0.76718  1.0000
  H   H3367     1.0  0.84262  0.83845  0.78471  1.0000
  H   H3368     1.0  0.88099  0.79481  0.79202  1.0000
  H   H3369     1.0  0.87831  0.79849  0.76779  1.0000
  H   H3370     1.0  0.86982  0.77948  0.78564  1.0000
  H   H3371     1.0  0.82600  0.81651  0.77816  1.0000
  H   H3372     1.0  0.84643  0.81206  0.75964  1.0000
  H   H3373     1.0  0.83822  0.79229  0.77661  1.0000
  H   H3374     1.0  0.84129  0.82812  0.81723  1.0000
  H   H3375     1.0  0.84236  0.77312  0.80531  1.0000
  H   H3376     1.0  0.82746  0.81634  0.85031  1.0000
  H   H3377     1.0  0.82854  0.76222  0.83870  1.0000
  H   H3378     1.0  0.82128  0.78336  0.86143  1.0000
  H   H3379     1.0  0.79979  0.85295  0.69561  1.0000
  H   H3380     1.0  0.83289  0.76189  0.69963  1.0000
  H   H3381     1.0  0.84271  0.96195  0.70541  1.0000
  C   C2825     1.0  0.96476  0.77988  0.76041  1.0000
  C   C2826     1.0  0.76736  0.71918  0.86732  1.0000
  C   C2827     1.0  0.97728  0.79982  0.82546  1.0000
  N   N189      1.0  0.81307  0.64351  0.90032  1.0000
  C   C2828     1.0  0.82255  0.63812  0.91682  1.0000
  C   C2829     1.0  0.82056  0.65956  0.88620  1.0000
  C   C2830     1.0  0.79251  0.65072  0.90743  1.0000
  C   C2831     1.0  0.81700  0.62683  0.89135  1.0000
  C   C2832     1.0  0.80241  0.61966  0.88816  1.0000
  C   C2833     1.0  0.83603  0.61747  0.88510  1.0000
  C   C2834     1.0  0.80668  0.60379  0.87975  1.0000
  C   C2835     1.0  0.84015  0.60166  0.87663  1.0000
  C   C2836     1.0  0.82548  0.59481  0.87399  1.0000
  H   H3382     1.0  0.83828  0.63498  0.91256  1.0000
  H   H3383     1.0  0.81894  0.64992  0.92465  1.0000
  H   H3384     1.0  0.81813  0.62531  0.92718  1.0000
  H   H3385     1.0  0.83633  0.65627  0.88192  1.0000
  H   H3386     1.0  0.81653  0.67296  0.89181  1.0000
  H   H3387     1.0  0.81493  0.66288  0.87298  1.0000
  H   H3388     1.0  0.78456  0.65625  0.89567  1.0000
  H   H3389     1.0  0.78596  0.63936  0.91823  1.0000
  H   H3390     1.0  0.79006  0.66298  0.91451  1.0000
  H   H3391     1.0  0.78754  0.62600  0.89198  1.0000
  H   H3392     1.0  0.84788  0.62264  0.88634  1.0000
  H   H3393     1.0  0.76076  0.67061  0.87557  1.0000
  H   H3394     1.0  0.85479  0.59480  0.87197  1.0000
  H   H3395     1.0  0.76968  0.85335  0.66146  1.0000
  C   C2837     1.0  0.84485  0.92211  0.65890  1.0000
  H   H3396     1.0  0.88263  0.77917  0.88194  1.0000
  H   H3397     1.0  0.78716  0.88005  0.64742  1.0000
  H   H3398     1.0  0.98756  0.73226  0.79372  1.0000
  C   C2838     1.0  0.75015  0.52035  0.75899  1.0000
  H   H3399     1.0  0.97675  0.88596  0.70236  1.0000
  H   H3400     1.0  0.89842  0.82357  0.65208  1.0000
  C   C2839     1.0  0.82160  0.83063  0.66014  1.0000
  H   H3401     1.0  0.74802  0.69531  0.82857  1.0000
  C   C2840     1.0  0.84088  0.85486  0.64904  1.0000
  C   C2841     1.0  0.86377  0.91717  0.66067  1.0000
  C   C2842     1.0  0.77245  0.52215  0.81278  1.0000
  H   H3402     1.0  0.79832  0.52613  0.81782  1.0000
  H   H3403     1.0  0.81639  0.93504  0.67064  1.0000
  H   H3404     1.0  0.84073  0.91821  0.64771  1.0000
  H   H3405     1.0  0.97727  0.83026  0.77430  1.0000
  C   C2843     1.0  0.74338  0.54974  0.73609  1.0000
  C   C2844     1.0  0.92964  0.75938  0.87850  1.0000
  C   C2845     1.0  0.95687  0.79647  0.74832  1.0000
  H   H3406     1.0  0.79523  0.59846  0.87772  1.0000
  S   S760      1.0  0.85809  0.86575  0.65181  1.0000
  H   H3407     1.0  0.87477  0.90412  0.71391  1.0000
  H   H3408     1.0  0.84990  0.90939  0.72419  1.0000
  H   H3409     1.0  0.75928  0.84884  0.68649  1.0000
  C   C2846     1.0  0.87348  0.77931  0.68322  1.0000
  H   H3410     1.0  0.86669  0.91661  0.73301  1.0000
  H   H3411     1.0  0.77697  0.50667  0.81477  1.0000
  N   N190      1.0  0.86084  0.93376  0.70591  1.0000
  H   H3412     1.0  0.95083  0.79440  0.82390  1.0000
  S   S761      1.0  0.98131  0.86065  0.73902  1.0000
  S   S762      1.0  0.74947  0.97927  0.71522  1.0000
  C   C2847     1.0  0.96258  0.86771  0.72655  1.0000
  S   S763      1.0  0.76276  0.93841  0.70044  1.0000
  C   C2848     1.0  0.98609  0.80776  0.74054  1.0000
  C   C2849     1.0  0.85201  0.63321  0.78923  1.0000
  H   H3413     1.0  0.91499  0.71491  0.85763  1.0000
  C   C2850     1.0  0.79128  0.86310  0.72134  1.0000
  S   S764      1.0  0.75300  0.61139  0.88683  1.0000
  C   C2851     1.0  0.74579  0.54064  0.85839  1.0000
  C   C2852     1.0  0.84450  0.60954  0.76591  1.0000
  S   S765      1.0  0.76145  0.72416  0.95477  1.0000
  H   H3414     1.0  0.82476  0.94282  0.69663  1.0000
  C   C2853     1.0  0.96280  0.81247  0.79799  1.0000
  H   H3415     1.0  0.91357  0.78841  0.87663  1.0000
  S   S766      1.0  0.97625  0.75155  0.84609  1.0000
  H   H3416     1.0  0.80871  0.62471  0.80078  1.0000
  H   H3417     1.0  0.80167  0.87080  0.66477  1.0000
  H   H3418     1.0  0.93675  0.70777  0.86612  1.0000
  C   C2854     1.0  0.84651  0.61514  0.79591  1.0000
  C   C2855     1.0  0.84638  0.94814  0.71563  1.0000
  C   C2856     1.0  0.77124  0.85418  0.67570  1.0000
  C   C2857     1.0  0.98379  0.77669  0.76275  1.0000
  C   C2858     1.0  0.89477  0.74889  0.88466  1.0000
  H   H3419     1.0  0.83310  0.94281  0.72293  1.0000
  H   H3420     1.0  0.96754  0.75180  0.79439  1.0000
  H   H3421     1.0  0.75291  0.89785  0.73262  1.0000
  H   H3422     1.0  0.89374  0.80781  0.67474  1.0000
  H   H3423     1.0  0.75985  0.51323  0.74759  1.0000
  N   N191      1.0  0.91126  0.71352  0.88753  1.0000
  H   H3424     1.0  0.82183  0.58972  0.80968  1.0000
  H   H3425     1.0  0.95123  0.81399  0.79101  1.0000
  C   C2859     1.0  0.81632  0.62390  0.78596  1.0000
  H   H3426     1.0  0.89197  0.69406  0.89448  1.0000
  C   C2860     1.0  0.92160  0.70651  0.86997  1.0000
  C   C2861     1.0  0.96398  0.88038  0.70877  1.0000
  H   H3427     1.0  0.84724  0.64348  0.77716  1.0000
  H   H3428     1.0  0.84956  0.58897  0.81851  1.0000
  C   C2862     1.0  0.92899  0.74004  0.88119  1.0000
  H   H3429     1.0  0.88310  0.71458  0.90523  1.0000
  H   H3430     1.0  0.91405  0.70780  0.91667  1.0000
  C   C2863     1.0  0.85538  0.93090  0.68922  1.0000
  H   H3431     1.0  0.91986  0.68671  0.90676  1.0000
  C   C2864     1.0  0.92073  0.70214  0.90348  1.0000
  C   C2865     1.0  0.75440  0.53119  0.80900  1.0000
  H   H3432     1.0  0.88081  0.74597  0.88678  1.0000
  H   H3433     1.0  0.93612  0.70234  0.90026  1.0000
  H   H3434     1.0  0.94242  0.72981  0.88023  1.0000
  C   C2866     1.0  0.91152  0.73414  0.88456  1.0000
  C   C2867     1.0  0.85312  0.60288  0.81224  1.0000
  H   H3435     1.0  0.82069  0.58688  0.78708  1.0000
  N   N192      1.0  0.83456  0.60970  0.78592  1.0000
  H   H3436     1.0  0.81690  0.81885  0.67102  1.0000
  C   C2868     1.0  0.96248  0.80159  0.81648  1.0000
  C   C2869     1.0  0.86000  0.76918  0.69550  1.0000
  H   H3437     1.0  0.78123  0.98314  0.64330  1.0000
  C   C2870     1.0  0.77825  0.87570  0.73184  1.0000
  H   H3438     1.0  0.75364  0.90210  0.66967  1.0000
  C   C2871     1.0  0.98022  0.74528  0.78468  1.0000
  C   C2872     1.0  0.87075  0.79012  0.66487  1.0000
  H   H3439     1.0  0.75907  0.52633  0.76495  1.0000
  H   H3440     1.0  0.87456  0.82491  0.66542  1.0000
  H   H3441     1.0  0.74935  0.66897  0.85780  1.0000
  H   H3442     1.0  0.75291  0.88574  0.65619  1.0000
  H   H3443     1.0  0.78036  0.87639  0.74551  1.0000
  S   S767      1.0  0.75111  0.68197  0.95783  1.0000
  H   H3444     1.0  0.80351  0.85403  0.72694  1.0000
  C   C2873     1.0  0.84027  0.78000  0.67207  1.0000
  C   C2874     1.0  0.76068  0.67487  0.86008  1.0000
  H   H3445     1.0  0.77282  0.69446  0.82479  1.0000
  H   H3446     1.0  0.98717  0.77211  0.79896  1.0000
  H   H3447     1.0  0.75187  0.55333  0.84986  1.0000
  H   H3448     1.0  0.75142  0.54321  0.72372  1.0000
  C   C2875     1.0  0.75866  0.70087  0.83255  1.0000
  C   C2876     1.0  0.75508  0.93610  0.64262  1.0000
  H   H3449     1.0  0.74598  0.53188  0.84826  1.0000
  H   H3450     1.0  0.75577  0.53172  0.86776  1.0000
  C   C2877     1.0  0.97795  0.82155  0.78844  1.0000
  H   H3451     1.0  0.75330  0.55560  0.74084  1.0000
  C   C2878     1.0  0.74870  0.55122  0.80643  1.0000
  H   H3452     1.0  0.74816  0.89727  0.70183  1.0000
  H   H3453     1.0  0.75969  0.62339  0.91784  1.0000
  Fe  Fe384     1.0  0.74770  0.48607  0.81021  1.0000
  C   C2879     1.0  0.74930  0.63471  0.91134  1.0000
  S   S768      1.0  0.74446  0.64300  0.83572  1.0000
  C   C2880     1.0  0.81458  0.83672  0.64330  1.0000
  H   H3454     1.0  0.85015  0.79804  0.64609  1.0000
  H   H3455     1.0  0.74710  0.65364  0.92995  1.0000
  H   H3456     1.0  0.74095  0.88278  0.68061  1.0000
