data_image0
_chemical_formula_structural       SHFeS2FeS2FeSFeS3FeS2FeS2FeSFeS3CH2CH2C6H4C6H4C5H9C3H3NC4HCHCH6CHCH2C8HCH5CH2C4HC2H5CHC2SC2NH4NHC2H3C2H3CH5CHCH3NHCFeCHC3H2CHSCHC2FeS2HFeSC2S2HFeS2FeSH2SH3CH2FeH2C6H7NC9H11CHC2HNSH4C2H2SHCH3C3NHC5H2CH2FeCFeHC3HCHFeS2FeSCFeSFeS3FeS2FeS2FeSFeS3CHC2H3C6H4C6H4C2HCHCH2C4H2CH2C3H4C2H5NHS2C2H4C2H2NC5H3CH10C3HC4HNCH3C2SC5H8C3H2CH2CHC2HCH2C2H2CH2CH2CFeS2FeS2FeSFeS3FeS2FeS2FeSFeS2CHSC6H4C6H4C2H2C4H3C2H2C3HC4SH2NH4CSHNC9H16C2H3CNC9HSH2CH2SH6NC9H10CHCH2NCH2C2NH9CHCH2CH3CHCH2CHCHC2HFeSFeS2FeS2H2SHCSCFeSCSHCH2CH4CHCH3C4HC7H11NHNH2CHCHCHSHC2HC2H2C2H4CFeHC2HC6FeH3Fe2CH2C2FeS2FeS2FeSFeCS2FeS2FeS2FeSFeS3HCHC3H2CHCHC6H5C6H6C2H4CHC4H4CHNC9H3CH4CH5C2NCSH3CHC2H3NH2CHC5H4NC9H14C2HNCH2CH4CH2CHCHC2SH2CHSHCHC2HCHCHC2HCFeS2FeS2FeSFeS3FeS2FeS2FeSFeS3HS2C2HCHCHC6H4CH3C6H4C2HC4H3CH2CH2C2HNC9H14C2NC2H4NC3HCH7CHCHCHCH2CH2CH2CH4C3HCH3C2NHC3H2CHCHFeCH2CHCH4CH4CNHC2H2SHC3HC3H3C2HFe2S2FeCFeHS2CSNCSFeSHSHC6H4NC2HCSFeHCHCHCH2CH3C3HCH6CH4C2H2CH3C3HCHCHSCH2FeHSH3CFeSHFeS2FeSFeS3FeS2FeS2FeSFeS3C4H3CHNHC3H2C6H5C6H4C5HCNC9H17C3H4CH4C3H2NC5H4CH8C2HCH3C2H3SHC2H2C2NC2HCH2NH2CNCH3C2SH3CHC2H2C2H2SH2CHC2H3FeS2FeS2FeHFeS3FeS2FeS2FeSFeS5HC3H3C2HC7H5CH2CH5C6H7C2NC9H16C2H3CH4CHC3HSNC5H2FeCH4CNC2H3C2HC5H4C2H5CNH5CHSC2SC2HC2HC2FeCHSHFeSHSFeS2Fe2SFeHS2C5H5CH3C6H6CHC5H2SNHCNCH3C3H5CH4CHCHC3H2C2H3C2HCHCHC2H4Fe2S2FeS2FeSFeS3FeS2FeSCFeHFeS3H6CHCH3CHC4HCHC6H4C6H5C3H2CH2CH2CH9C3H3CH4NC3H2CHCNH2C4HCH2SCH3SCH2C3HNC8H8CH3CH2C4HNC2H4C2HC2H2NH3CHCHC2H2CSCH3SCSHN
_chemical_formula_sum              "S192 H864 Fe96 C720 N48"
_cell_length_a       47.8665
_cell_length_b       47.6913
_cell_length_c       48.4326
_cell_angle_alpha    86.0803
_cell_angle_beta     86.4612
_cell_angle_gamma    86.0647

_space_group_name_H-M_alt    "P 1"
_space_group_IT_number       1

loop_
  _space_group_symop_operation_xyz
  'x, y, z'

loop_
  _atom_site_type_symbol
  _atom_site_label
  _atom_site_symmetry_multiplicity
  _atom_site_fract_x
  _atom_site_fract_y
  _atom_site_fract_z
  _atom_site_occupancy
  S   S1        1.0  0.31875  0.13012  0.27571  1.0000
  H   H1        1.0  0.22715  0.36707  0.18143  1.0000
  Fe  Fe1       1.0  0.09929  0.33028  0.23194  1.0000
  S   S2        1.0  0.12218  0.35652  0.25929  1.0000
  S   S3        1.0  0.05322  0.32713  0.24709  1.0000
  Fe  Fe2       1.0  0.15393  0.31634  0.19644  1.0000
  S   S4        1.0  0.17885  0.34250  0.22100  1.0000
  S   S5        1.0  0.17650  0.29067  0.16278  1.0000
  Fe  Fe3       1.0  0.15625  0.32132  0.25775  1.0000
  S   S6        1.0  0.18426  0.30027  0.29029  1.0000
  Fe  Fe4       1.0  0.14239  0.37480  0.21948  1.0000
  S   S7        1.0  0.14794  0.41993  0.20157  1.0000
  S   S8        1.0  0.13224  0.29407  0.23332  1.0000
  S   S9        1.0  0.11831  0.34977  0.19212  1.0000
  Fe  Fe5       1.0  0.33489  0.25515  0.11870  1.0000
  S   S10       1.0  0.31704  0.22397  0.09332  1.0000
  S   S11       1.0  0.30893  0.29109  0.13810  1.0000
  Fe  Fe6       1.0  0.39355  0.22248  0.11881  1.0000
  S   S12       1.0  0.37876  0.18869  0.09393  1.0000
  S   S13       1.0  0.43447  0.21746  0.14140  1.0000
  Fe  Fe7       1.0  0.35818  0.22453  0.06769  1.0000
  S   S14       1.0  0.36445  0.23565  0.02082  1.0000
  Fe  Fe8       1.0  0.33921  0.19171  0.12209  1.0000
  S   S15       1.0  0.31598  0.15624  0.14532  1.0000
  S   S16       1.0  0.37484  0.25830  0.09185  1.0000
  S   S17       1.0  0.35522  0.22311  0.14812  1.0000
  C   C1        1.0  0.14876  0.45187  0.21829  1.0000
  H   H2        1.0  0.24599  0.31629  0.08675  1.0000
  H   H3        1.0  0.31555  0.27534  0.21435  1.0000
  C   C2        1.0  0.14644  0.45277  0.24713  1.0000
  H   H4        1.0  0.06025  0.27101  0.22860  1.0000
  H   H5        1.0  0.14402  0.43355  0.26000  1.0000
  C   C3        1.0  0.21367  0.28908  0.15756  1.0000
  C   C4        1.0  0.23000  0.30579  0.17184  1.0000
  C   C5        1.0  0.25907  0.30610  0.16571  1.0000
  C   C6        1.0  0.27251  0.28867  0.14612  1.0000
  C   C7        1.0  0.25644  0.27103  0.13249  1.0000
  C   C8        1.0  0.22708  0.27157  0.13790  1.0000
  H   H6        1.0  0.22031  0.31878  0.18739  1.0000
  H   H7        1.0  0.27126  0.31989  0.17625  1.0000
  H   H8        1.0  0.26645  0.25770  0.11711  1.0000
  H   H9        1.0  0.21473  0.25853  0.12664  1.0000
  C   C9        1.0  0.31461  0.13959  0.24018  1.0000
  C   C10       1.0  0.29650  0.12614  0.22455  1.0000
  C   C11       1.0  0.29659  0.13187  0.19556  1.0000
  C   C12       1.0  0.31429  0.15150  0.18207  1.0000
  C   C13       1.0  0.33118  0.16598  0.19804  1.0000
  C   C14       1.0  0.33174  0.15967  0.22679  1.0000
  H   H10       1.0  0.28337  0.11042  0.23459  1.0000
  H   H11       1.0  0.28336  0.12056  0.18346  1.0000
  H   H12       1.0  0.34472  0.18122  0.18821  1.0000
  H   H13       1.0  0.34576  0.17022  0.23873  1.0000
  C   C15       1.0  0.18556  0.26303  0.29468  1.0000
  C   C16       1.0  0.21053  0.24794  0.30213  1.0000
  C   C17       1.0  0.47679  0.28918  0.12961  1.0000
  C   C18       1.0  0.46958  0.21839  0.12723  1.0000
  C   C19       1.0  0.21194  0.21467  0.21869  1.0000
  H   H14       1.0  0.45470  0.16088  0.14947  1.0000
  H   H15       1.0  0.37171  0.12149  0.19589  1.0000
  H   H16       1.0  0.20407  0.19451  0.21304  1.0000
  H   H17       1.0  0.23540  0.30456  0.24993  1.0000
  H   H18       1.0  0.34146  0.18291  0.00657  1.0000
  H   H19       1.0  0.16669  0.38240  0.16125  1.0000
  H   H20       1.0  0.24827  0.19700  0.25737  1.0000
  H   H21       1.0  0.45907  0.23324  0.08600  1.0000
  H   H22       1.0  0.19498  0.41574  0.11180  1.0000
  C   C20       1.0  0.02071  0.31708  0.20331  1.0000
  C   C21       1.0  0.02144  0.32225  0.23133  1.0000
  C   C22       1.0  0.99614  0.32323  0.24780  1.0000
  H   H23       1.0  0.03995  0.31626  0.19037  1.0000
  H   H24       1.0  0.99646  0.32723  0.26949  1.0000
  H   H25       1.0  0.18530  0.42664  0.14619  1.0000
  N   N1        1.0  0.04699  0.23919  0.25952  1.0000
  C   C23       1.0  0.05711  0.21020  0.26881  1.0000
  C   C24       1.0  0.06664  0.24919  0.23653  1.0000
  C   C25       1.0  0.04847  0.25786  0.28266  1.0000
  C   C26       1.0  0.01760  0.23909  0.25152  1.0000
  H   H26       1.0  0.00042  0.22707  0.29314  1.0000
  C   C27       1.0  0.34796  0.19458  0.98759  1.0000
  H   H27       1.0  0.18654  0.34992  0.15653  1.0000
  C   C28       1.0  0.29379  0.27179  0.22030  1.0000
  H   H28       1.0  0.22920  0.25913  0.30383  1.0000
  H   H29       1.0  0.05597  0.19547  0.25208  1.0000
  H   H30       1.0  0.07931  0.20934  0.27476  1.0000
  H   H31       1.0  0.14361  0.20793  0.29685  1.0000
  H   H32       1.0  0.06804  0.23517  0.21900  1.0000
  H   H33       1.0  0.08839  0.24980  0.24334  1.0000
  C   C29       1.0  0.27589  0.34580  0.09477  1.0000
  H   H34       1.0  0.07049  0.26177  0.28675  1.0000
  C   C30       1.0  0.36011  0.22029  0.98888  1.0000
  H   H35       1.0  0.03743  0.27878  0.27789  1.0000
  H   H36       1.0  0.42407  0.17481  0.18590  1.0000
  C   C31       1.0  0.99494  0.31293  0.19201  1.0000
  C   C32       1.0  0.25460  0.19224  0.23557  1.0000
  C   C33       1.0  0.24868  0.28835  0.24001  1.0000
  C   C34       1.0  0.21141  0.21851  0.30771  1.0000
  C   C35       1.0  0.39349  0.11235  0.19170  1.0000
  C   C36       1.0  0.44086  0.12198  0.17072  1.0000
  C   C37       1.0  0.45063  0.09391  0.17867  1.0000
  C   C38       1.0  0.46050  0.13929  0.15603  1.0000
  H   H37       1.0  0.29093  0.22515  0.99472  1.0000
  C   C39       1.0  0.28052  0.36991  0.10804  1.0000
  H   H38       1.0  0.03878  0.24907  0.30251  1.0000
  H   H39       1.0  0.42350  0.14973  0.21529  1.0000
  H   H40       1.0  0.40904  0.16281  0.14152  1.0000
  H   H41       1.0  0.39161  0.09430  0.17868  1.0000
  H   H42       1.0  0.98526  0.37947  0.17336  1.0000
  C   C40       1.0  0.00960  0.24535  0.22386  1.0000
  H   H43       1.0  0.27792  0.19030  0.23380  1.0000
  H   H44       1.0  0.30137  0.37763  0.10680  1.0000
  C   C41       1.0  0.18292  0.37180  0.14741  1.0000
  C   C42       1.0  0.23155  0.37294  0.12671  1.0000
  C   C43       1.0  0.25867  0.38351  0.12356  1.0000
  C   C44       1.0  0.22737  0.34866  0.11232  1.0000
  H   H45       1.0  0.28536  0.31224  0.23722  1.0000
  C   C45       1.0  0.24930  0.33546  0.09658  1.0000
  C   C46       1.0  0.16162  0.24834  0.29226  1.0000
  H   H46       1.0  0.20234  0.39621  0.18773  1.0000
  H   H47       1.0  0.45539  0.28819  0.12370  1.0000
  H   H48       1.0  0.22053  0.42913  0.13224  1.0000
  H   H49       1.0  0.26336  0.40201  0.13363  1.0000
  H   H50       1.0  0.20768  0.33870  0.11366  1.0000
  C   C47       1.0  0.01262  0.38767  0.20398  1.0000
  H   H51       1.0  0.17338  0.37106  0.12714  1.0000
  C   C48       1.0  0.16241  0.21901  0.29811  1.0000
  C   C49       1.0  0.28281  0.24649  0.21474  1.0000
  S   S18       1.0  0.24103  0.10379  0.29874  1.0000
  C   C50       1.0  0.41279  0.15687  0.19605  1.0000
  C   C51       1.0  0.25409  0.24161  0.22107  1.0000
  N   N2        1.0  0.20928  0.38676  0.14468  1.0000
  H   H52       1.0  0.37626  0.15197  0.15586  1.0000
  H   H53       1.0  0.39896  0.12802  0.13650  1.0000
  H   H54       1.0  0.43735  0.07919  0.19003  1.0000
  H   H55       1.0  0.21535  0.26170  0.23983  1.0000
  N   N3        1.0  0.41189  0.13345  0.17755  1.0000
  H   H56       1.0  0.03616  0.39593  0.23857  1.0000
  C   C52       1.0  0.99591  0.23239  0.27177  1.0000
  C   C53       1.0  0.20229  0.41582  0.13317  1.0000
  H   H57       1.0  0.39140  0.16567  0.20230  1.0000
  H   H58       1.0  0.40109  0.10444  0.21224  1.0000
  H   H59       1.0  0.23648  0.40258  0.17350  1.0000
  C   C54       1.0  0.21929  0.38819  0.17295  1.0000
  C   C55       1.0  0.39857  0.14447  0.15178  1.0000
  H   H60       1.0  0.04450  0.20174  0.28718  1.0000
  H   H61       1.0  0.24729  0.17114  0.23215  1.0000
  H   H62       1.0  0.14220  0.25973  0.28690  1.0000
  C   C56       1.0  0.98614  0.38846  0.19311  1.0000
  H   H63       1.0  0.99485  0.41659  0.26514  1.0000
  H   H64       1.0  0.29312  0.33461  0.08369  1.0000
  H   H65       1.0  0.30864  0.26892  0.00893  1.0000
  H   H66       1.0  0.20210  0.23191  0.20504  1.0000
  H   H67       1.0  0.24184  0.18727  0.18162  1.0000
  C   C57       1.0  0.23734  0.26335  0.23406  1.0000
  H   H68       1.0  0.24566  0.22386  0.17152  1.0000
  C   C58       1.0  0.25165  0.20653  0.18700  1.0000
  H   H69       1.0  0.20394  0.21726  0.24054  1.0000
  H   H70       1.0  0.29708  0.23083  0.20539  1.0000
  H   H71       1.0  0.02439  0.25097  0.20700  1.0000
  N   N4        1.0  0.24306  0.21435  0.21565  1.0000
  H   H72       1.0  0.27458  0.20151  0.18382  1.0000
  C   C59       1.0  0.27680  0.29263  0.23303  1.0000
  Fe  Fe9       1.0  0.28317  0.11885  0.30685  1.0000
  C   C60       1.0  0.30319  0.26753  0.98767  1.0000
  H   H73       1.0  0.03083  0.37837  0.19268  1.0000
  C   C61       1.0  0.99238  0.40903  0.24488  1.0000
  C   C62       1.0  0.01569  0.39761  0.22991  1.0000
  C   C63       1.0  0.47589  0.22742  0.09963  1.0000
  H   H74       1.0  0.99462  0.30874  0.17036  1.0000
  H   H75       1.0  0.26648  0.01390  0.30629  1.0000
  C   C64       1.0  0.18717  0.20398  0.30615  1.0000
  H   H76       1.0  0.23068  0.20720  0.31361  1.0000
  S   S19       1.0  0.18641  0.16735  0.31478  1.0000
  C   C65       1.0  0.98157  0.24538  0.21721  1.0000
  H   H77       1.0  0.46679  0.27725  0.17233  1.0000
  C   C66       1.0  0.47829  0.08400  0.17201  1.0000
  C   C67       1.0  0.25870  0.99565  0.31803  1.0000
  Fe  Fe10      1.0  0.25482  0.11803  0.57549  1.0000
  S   S20       1.0  0.22798  0.08794  0.60123  1.0000
  S   S21       1.0  0.23543  0.13314  0.53459  1.0000
  H   H78       1.0  0.17726  0.25721  0.59808  1.0000
  Fe  Fe11      1.0  0.26873  0.06620  0.61449  1.0000
  S   S22       1.0  0.28508  0.02006  0.61234  1.0000
  C   C68       1.0  0.22788  0.04630  0.50061  1.0000
  C   C69       1.0  0.17084  0.20993  0.55852  1.0000
  S   S23       1.0  0.29566  0.09554  0.58754  1.0000
  S   S24       1.0  0.25555  0.14776  0.60940  1.0000
  H   H79       1.0  0.19243  0.15842  0.57729  1.0000
  Fe  Fe12      1.0  0.26784  0.12373  0.36932  1.0000
  S   S25       1.0  0.22454  0.11038  0.36491  1.0000
  S   S26       1.0  0.28673  0.13288  0.40972  1.0000
  Fe  Fe13      1.0  0.24543  0.07660  0.33869  1.0000
  S   S27       1.0  0.23152  0.03297  0.35429  1.0000
  H   H80       1.0  0.25107  0.08411  0.42016  1.0000
  H   H81       1.0  0.20665  0.04291  0.50862  1.0000
  S   S28       1.0  0.28900  0.08916  0.34473  1.0000
  H   H82       1.0  0.28210  0.99930  0.43827  1.0000
  H   H83       1.0  0.14869  0.20590  0.55519  1.0000
  H   H84       1.0  0.28880  0.06772  0.52150  1.0000
  C   C70       1.0  0.26328  0.04727  0.46159  1.0000
  H   H85       1.0  0.30155  0.23939  0.61058  1.0000
  H   H86       1.0  0.14222  0.25565  0.38353  1.0000
  Fe  Fe14      1.0  0.29320  0.12217  0.62477  1.0000
  H   H87       1.0  0.18458  0.19838  0.54302  1.0000
  H   H88       1.0  0.22260  0.19372  0.57733  1.0000
  C   C71       1.0  0.25027  0.13071  0.50022  1.0000
  C   C72       1.0  0.27924  0.12993  0.49412  1.0000
  C   C73       1.0  0.28999  0.13029  0.46632  1.0000
  C   C74       1.0  0.27200  0.13093  0.44436  1.0000
  C   C75       1.0  0.24303  0.13115  0.45049  1.0000
  C   C76       1.0  0.23227  0.13133  0.47825  1.0000
  H   H89       1.0  0.29333  0.12976  0.51077  1.0000
  H   H90       1.0  0.31242  0.13030  0.46183  1.0000
  H   H91       1.0  0.22886  0.13170  0.43390  1.0000
  H   H92       1.0  0.20982  0.13200  0.48277  1.0000
  H   H93       1.0  0.15582  0.16302  0.58555  1.0000
  H   H94       1.0  0.32175  0.20509  0.64558  1.0000
  H   H95       1.0  0.21326  0.20246  0.61229  1.0000
  N   N5        1.0  0.23047  0.20906  0.39387  1.0000
  C   C77       1.0  0.26006  0.21020  0.38274  1.0000
  C   C78       1.0  0.23043  0.20772  0.42453  1.0000
  C   C79       1.0  0.21997  0.18257  0.38529  1.0000
  C   C80       1.0  0.21209  0.23356  0.38416  1.0000
  C   C81       1.0  0.22269  0.25782  0.36945  1.0000
  C   C82       1.0  0.18259  0.23385  0.38970  1.0000
  C   C83       1.0  0.20464  0.28025  0.35998  1.0000
  C   C84       1.0  0.16474  0.25628  0.37985  1.0000
  C   C85       1.0  0.17575  0.27931  0.36481  1.0000
  H   H96       1.0  0.27040  0.22809  0.39046  1.0000
  H   H97       1.0  0.27311  0.19089  0.38927  1.0000
  H   H98       1.0  0.26140  0.21185  0.35964  1.0000
  H   H99       1.0  0.23753  0.22751  0.43190  1.0000
  H   H100      1.0  0.24473  0.18998  0.43260  1.0000
  H   H101      1.0  0.20921  0.20448  0.43444  1.0000
  H   H102      1.0  0.21686  0.18387  0.36262  1.0000
  H   H103      1.0  0.23479  0.16411  0.39001  1.0000
  H   H104      1.0  0.19970  0.17733  0.39610  1.0000
  H   H105      1.0  0.24475  0.25978  0.36435  1.0000
  H   H106      1.0  0.17302  0.21653  0.40134  1.0000
  C   C86       1.0  0.28397  0.26787  0.64067  1.0000
  H   H107      1.0  0.22963  0.05522  0.41656  1.0000
  C   C87       1.0  0.26787  0.98811  0.61545  1.0000
  C   C88       1.0  0.29986  0.05106  0.42308  1.0000
  H   H108      1.0  0.22647  0.00670  0.62487  1.0000
  N   N6        1.0  0.17806  0.20092  0.58720  1.0000
  S   S29       1.0  0.26630  0.15469  0.33209  1.0000
  H   H109      1.0  0.27466  0.28270  0.62535  1.0000
  H   H110      1.0  0.18034  0.16203  0.61259  1.0000
  H   H111      1.0  0.27386  0.01066  0.40320  1.0000
  H   H112      1.0  0.21295  0.29808  0.34778  1.0000
  C   C89       1.0  0.24700  0.05538  0.51806  1.0000
  C   C90       1.0  0.24148  0.99918  0.34209  1.0000
  H   H113      1.0  0.25803  0.06154  0.39229  1.0000
  H   H114      1.0  0.17320  0.23284  0.55384  1.0000
  S   S30       1.0  0.32747  0.14436  0.64375  1.0000
  H   H115      1.0  0.30473  0.04844  0.40056  1.0000
  C   C91       1.0  0.26824  0.01395  0.42552  1.0000
  H   H116      1.0  0.24641  0.00742  0.42930  1.0000
  H   H117      1.0  0.13278  0.18182  0.62197  1.0000
  H   H118      1.0  0.21223  0.22901  0.58429  1.0000
  C   C92       1.0  0.13633  0.20387  0.62254  1.0000
  C   C93       1.0  0.17645  0.16983  0.59090  1.0000
  C   C94       1.0  0.25149  0.06190  0.41466  1.0000
  N   N7        1.0  0.27084  0.04364  0.43185  1.0000
  H   H119      1.0  0.30288  0.07357  0.42631  1.0000
  C   C95       1.0  0.16116  0.24578  0.60958  1.0000
  C   C96       1.0  0.15883  0.21655  0.60686  1.0000
  C   C97       1.0  0.28234  0.05637  0.48004  1.0000
  C   C98       1.0  0.20770  0.20689  0.59045  1.0000
  C   C99       1.0  0.23585  0.04214  0.47282  1.0000
  H   H120      1.0  0.22022  0.03535  0.46001  1.0000
  H   H121      1.0  0.30348  0.06133  0.47346  1.0000
  C   C100      1.0  0.29894  0.24350  0.63235  1.0000
  H   H122      1.0  0.24069  0.05917  0.53947  1.0000
  H   H123      1.0  0.16192  0.29634  0.35641  1.0000
  Fe  Fe15      1.0  0.23161  0.11653  0.63599  1.0000
  C   C101      1.0  0.27419  0.06019  0.50786  1.0000
  Fe  Fe16      1.0  0.22449  0.13862  0.32573  1.0000
  H   H124      1.0  0.31577  0.03744  0.43440  1.0000
  C   C102      1.0  0.11785  0.21948  0.64009  1.0000
  C   C103      1.0  0.14277  0.26106  0.62743  1.0000
  C   C104      1.0  0.23908  0.98728  0.62205  1.0000
  H   H125      1.0  0.14549  0.28316  0.62981  1.0000
  C   C105      1.0  0.12110  0.24798  0.64260  1.0000
  H   H126      1.0  0.21800  0.97766  0.37558  1.0000
  Fe  Fe17      1.0  0.15094  0.35339  0.71446  1.0000
  S   S31       1.0  0.12203  0.33470  0.74838  1.0000
  S   S32       1.0  0.14674  0.40021  0.69997  1.0000
  Fe  Fe18      1.0  0.17326  0.29382  0.69713  1.0000
  S   S33       1.0  0.14513  0.27216  0.72889  1.0000
  C   C106      1.0  0.17802  0.21828  0.67962  1.0000
  Fe  Fe19      1.0  0.11129  0.30503  0.71683  1.0000
  S   S34       1.0  0.06956  0.29663  0.69943  1.0000
  Fe  Fe20      1.0  0.15915  0.30361  0.75680  1.0000
  S   S35       1.0  0.17740  0.28339  0.79609  1.0000
  S   S36       1.0  0.13898  0.32467  0.68263  1.0000
  S   S37       1.0  0.18852  0.32439  0.72518  1.0000
  Fe  Fe21      1.0  0.39617  0.21805  0.81129  1.0000
  S   S38       1.0  0.38060  0.17604  0.82748  1.0000
  S   S39       1.0  0.44042  0.22379  0.79226  1.0000
  Fe  Fe22      1.0  0.33699  0.24713  0.81600  1.0000
  S   S40       1.0  0.31836  0.20756  0.83297  1.0000
  S   S41       1.0  0.30908  0.28653  0.80644  1.0000
  Fe  Fe23      1.0  0.35550  0.20140  0.85953  1.0000
  S   S42       1.0  0.34548  0.18511  0.90448  1.0000
  Fe  Fe24      1.0  0.34488  0.18672  0.79938  1.0000
  S   S43       1.0  0.32004  0.15945  0.77428  1.0000
  S   S44       1.0  0.37287  0.24288  0.84454  1.0000
  S   S45       1.0  0.36187  0.22679  0.78123  1.0000
  C   C107      1.0  0.99170  0.36178  0.73783  1.0000
  H   H127      1.0  0.19066  0.22553  0.73737  1.0000
  C   C108      1.0  0.35201  0.19902  0.93661  1.0000
  C   C109      1.0  0.36447  0.22456  0.93792  1.0000
  H   H128      1.0  0.15946  0.23126  0.68537  1.0000
  H   H129      1.0  0.37118  0.23620  0.91902  1.0000
  H   H130      1.0  0.33424  0.16432  0.96092  1.0000
  C   C110      1.0  0.32246  0.15672  0.73780  1.0000
  C   C111      1.0  0.34552  0.16539  0.72093  1.0000
  C   C112      1.0  0.34690  0.16143  0.69219  1.0000
  C   C113      1.0  0.32506  0.14930  0.67998  1.0000
  C   C114      1.0  0.30168  0.14153  0.69682  1.0000
  C   C115      1.0  0.30060  0.14486  0.72553  1.0000
  H   H131      1.0  0.36255  0.17451  0.73008  1.0000
  H   H132      1.0  0.36502  0.16767  0.67937  1.0000
  H   H133      1.0  0.28450  0.13262  0.68781  1.0000
  H   H134      1.0  0.28282  0.13780  0.73835  1.0000
  C   C116      1.0  0.21408  0.28423  0.79832  1.0000
  C   C117      1.0  0.22910  0.26135  0.81153  1.0000
  C   C118      1.0  0.25831  0.26139  0.81341  1.0000
  C   C119      1.0  0.27261  0.28490  0.80318  1.0000
  C   C120      1.0  0.25751  0.30797  0.79039  1.0000
  C   C121      1.0  0.22846  0.30749  0.78759  1.0000
  H   H135      1.0  0.21809  0.24350  0.82021  1.0000
  H   H136      1.0  0.26955  0.24346  0.82324  1.0000
  H   H137      1.0  0.26831  0.32636  0.78259  1.0000
  H   H138      1.0  0.21706  0.32553  0.77793  1.0000
  C   C122      1.0  0.98491  0.29221  0.71106  1.0000
  C   C123      1.0  0.00360  0.28731  0.75648  1.0000
  H   H139      1.0  0.02812  0.34871  0.76070  1.0000
  C   C124      1.0  0.22643  0.18219  0.74054  1.0000
  H   H140      1.0  0.29111  0.30445  0.71239  1.0000
  C   C125      1.0  0.22571  0.18433  0.66431  1.0000
  H   H141      1.0  0.44257  0.14535  0.79082  1.0000
  H   H142      1.0  0.00034  0.28426  0.77875  1.0000
  C   C126      1.0  0.15399  0.45697  0.69894  1.0000
  C   C127      1.0  0.15999  0.43046  0.71272  1.0000
  C   C128      1.0  0.17613  0.42893  0.73595  1.0000
  C   C129      1.0  0.23653  0.17433  0.84530  1.0000
  H   H143      1.0  0.14174  0.45834  0.68080  1.0000
  H   H144      1.0  0.18095  0.40871  0.74672  1.0000
  C   C130      1.0  0.98120  0.37339  0.71237  1.0000
  H   H145      1.0  0.45269  0.21183  0.85056  1.0000
  H   H146      1.0  0.25915  0.16732  0.77875  1.0000
  C   C131      1.0  0.03103  0.28993  0.74455  1.0000
  C   C132      1.0  0.03552  0.29372  0.71577  1.0000
  C   C133      1.0  0.01232  0.29477  0.69913  1.0000
  H   H147      1.0  0.24535  0.24549  0.72034  1.0000
  H   H148      1.0  0.17841  0.22639  0.77278  1.0000
  H   H149      1.0  0.04866  0.28886  0.75759  1.0000
  H   H150      1.0  0.01562  0.29744  0.67683  1.0000
  C   C134      1.0  0.25407  0.16813  0.82221  1.0000
  C   C135      1.0  0.19681  0.21988  0.75896  1.0000
  H   H151      1.0  0.28979  0.21631  0.73616  1.0000
  H   H152      1.0  0.30576  0.30531  0.92606  1.0000
  H   H153      1.0  0.17279  0.17594  0.73959  1.0000
  H   H154      1.0  0.23295  0.15928  0.74169  1.0000
  H   H155      1.0  0.27548  0.15967  0.82483  1.0000
  N   N8        1.0  0.20556  0.18952  0.76331  1.0000
  H   H156      1.0  0.25241  0.26539  0.74931  1.0000
  S   S46       1.0  0.26926  0.09143  0.65220  1.0000
  S   S47       1.0  0.20615  0.26749  0.67286  1.0000
  C   C136      1.0  0.18631  0.45359  0.74508  1.0000
  C   C137      1.0  0.28036  0.27298  0.66880  1.0000
  H   H157      1.0  0.29547  0.24168  0.76048  1.0000
  H   H158      1.0  0.15622  0.17992  0.68144  1.0000
  H   H159      1.0  0.19895  0.45207  0.76294  1.0000
  H   H160      1.0  0.45097  0.16991  0.74695  1.0000
  C   C138      1.0  0.25669  0.26340  0.72668  1.0000
  C   C139      1.0  0.47186  0.22216  0.81013  1.0000
  H   H161      1.0  0.32345  0.28391  0.71785  1.0000
  H   H162      1.0  0.18636  0.14992  0.76479  1.0000
  N   N9        1.0  0.28648  0.26045  0.90182  1.0000
  C   C140      1.0  0.31321  0.26302  0.88502  1.0000
  C   C141      1.0  0.27520  0.23334  0.89594  1.0000
  C   C142      1.0  0.26611  0.28346  0.89236  1.0000
  C   C143      1.0  0.29157  0.26261  0.93145  1.0000
  C   C144      1.0  0.28763  0.24013  0.95190  1.0000
  H   H163      1.0  0.28116  0.21990  0.94700  1.0000
  H   H164      1.0  0.17786  0.19880  0.81353  1.0000
  H   H165      1.0  0.16305  0.17889  0.77544  1.0000
  C   C145      1.0  0.18088  0.17286  0.76077  1.0000
  H   H166      1.0  0.32909  0.24613  0.89162  1.0000
  H   H167      1.0  0.31032  0.26136  0.86260  1.0000
  H   H168      1.0  0.32244  0.28353  0.88672  1.0000
  H   H169      1.0  0.29040  0.21514  0.90082  1.0000
  H   H170      1.0  0.27119  0.23257  0.87362  1.0000
  H   H171      1.0  0.25498  0.23001  0.90791  1.0000
  H   H172      1.0  0.27427  0.30462  0.89310  1.0000
  H   H173      1.0  0.26111  0.28175  0.87036  1.0000
  H   H174      1.0  0.24609  0.28308  0.90533  1.0000
  H   H175      1.0  0.08943  0.46959  0.76947  1.0000
  C   C146      1.0  0.21647  0.18387  0.79125  1.0000
  C   C147      1.0  0.24432  0.17272  0.79556  1.0000
  C   C148      1.0  0.29915  0.23669  0.73833  1.0000
  H   H176      1.0  0.32230  0.23348  0.73463  1.0000
  C   C149      1.0  0.47219  0.21511  0.83860  1.0000
  C   C150      1.0  0.22736  0.21348  0.66590  1.0000
  C   C151      1.0  0.20908  0.18515  0.84184  1.0000
  C   C152      1.0  0.34384  0.18412  0.96162  1.0000
  H   H177      1.0  0.99504  0.39073  0.67126  1.0000
  N   N10       1.0  0.28718  0.25950  0.71919  1.0000
  C   C153      1.0  0.30163  0.28759  0.94049  1.0000
  H   H178      1.0  0.21766  0.18689  0.71997  1.0000
  H   H179      1.0  0.26816  0.29195  0.67423  1.0000
  H   H180      1.0  0.10446  0.47348  0.73467  1.0000
  C   C154      1.0  0.29154  0.25366  0.68954  1.0000
  C   C155      1.0  0.31030  0.22417  0.65212  1.0000
  S   S48       1.0  0.19672  0.13620  0.66372  1.0000
  C   C156      1.0  0.17621  0.18915  0.67738  1.0000
  C   C157      1.0  0.30671  0.22902  0.68031  1.0000
  C   C158      1.0  0.02054  0.35835  0.74141  1.0000
  C   C159      1.0  0.19989  0.17219  0.66891  1.0000
  C   C160      1.0  0.30742  0.28988  0.96817  1.0000
  H   H181      1.0  0.34055  0.98458  0.67902  1.0000
  H   H182      1.0  0.24677  0.28282  0.71639  1.0000
  H   H183      1.0  0.29865  0.29036  0.74636  1.0000
  H   H184      1.0  0.24536  0.19440  0.74055  1.0000
  H   H185      1.0  0.46595  0.16723  0.80442  1.0000
  H   H186      1.0  0.04526  0.38289  0.67793  1.0000
  H   H187      1.0  0.06205  0.36195  0.72233  1.0000
  H   H188      1.0  0.37775  0.25504  0.96457  1.0000
  C   C161      1.0  0.30064  0.28569  0.72408  1.0000
  C   C162      1.0  0.19913  0.18989  0.81524  1.0000
  C   C163      1.0  0.03016  0.37745  0.69473  1.0000
  H   H189      1.0  0.31585  0.21301  0.69442  1.0000
  H   H190      1.0  0.24427  0.17066  0.86589  1.0000
  C   C164      1.0  0.20346  0.23068  0.67307  1.0000
  H   H191      1.0  0.19546  0.19010  0.85981  1.0000
  H   H192      1.0  0.21394  0.23329  0.76316  1.0000
  C   C165      1.0  0.36835  0.23513  0.96386  1.0000
  H   H193      1.0  0.31590  0.30878  0.97450  1.0000
  C   C166      1.0  0.46508  0.14687  0.79480  1.0000
  C   C167      1.0  0.00137  0.38150  0.69106  1.0000
  H   H194      1.0  0.24725  0.22267  0.66142  1.0000
  C   C168      1.0  0.03971  0.36582  0.71983  1.0000
  H   H195      1.0  0.29236  0.00652  0.67801  1.0000
  H   H196      1.0  0.45640  0.11607  0.75437  1.0000
  C   C169      1.0  0.29317  0.24281  0.97958  1.0000
  C   C170      1.0  0.29577  0.98378  0.68075  1.0000
  H   H197      1.0  0.24453  0.17131  0.65965  1.0000
  H   H198      1.0  0.47091  0.12950  0.81032  1.0000
  C   C171      1.0  0.47399  0.16929  0.74952  1.0000
  H   H199      1.0  0.47832  0.18988  0.75729  1.0000
  H   H200      1.0  0.10698  0.25990  0.65658  1.0000
  C   C172      1.0  0.47908  0.11868  0.75675  1.0000
  H   H201      1.0  0.10107  0.20936  0.65217  1.0000
  H   H202      1.0  0.25191  0.97683  0.68229  1.0000
  C   C173      1.0  0.98041  0.28848  0.73983  1.0000
  Fe  Fe25      1.0  0.34462  0.68722  0.13416  1.0000
  S   S49       1.0  0.32545  0.72951  0.12036  1.0000
  S   S50       1.0  0.31821  0.65111  0.15018  1.0000
  Fe  Fe26      1.0  0.40508  0.70626  0.12333  1.0000
  S   S51       1.0  0.38914  0.75029  0.10994  1.0000
  S   S52       1.0  0.45056  0.68823  0.11726  1.0000
  Fe  Fe27      1.0  0.35735  0.74583  0.14628  1.0000
  S   S53       1.0  0.33971  0.78079  0.17322  1.0000
  Fe  Fe28      1.0  0.35882  0.72934  0.08546  1.0000
  S   S54       1.0  0.35051  0.74677  0.04128  1.0000
  S   S55       1.0  0.37543  0.70331  0.16157  1.0000
  S   S56       1.0  0.37577  0.68556  0.09731  1.0000
  Fe  Fe29      1.0  0.10741  0.63127  0.23890  1.0000
  S   S57       1.0  0.13019  0.60989  0.27446  1.0000
  S   S58       1.0  0.06142  0.64100  0.25273  1.0000
  Fe  Fe30      1.0  0.16287  0.63266  0.20333  1.0000
  S   S59       1.0  0.18809  0.60995  0.23652  1.0000
  S   S60       1.0  0.18519  0.65353  0.16535  1.0000
  Fe  Fe31      1.0  0.15176  0.58185  0.24314  1.0000
  S   S61       1.0  0.15142  0.53582  0.25977  1.0000
  Fe  Fe32      1.0  0.16383  0.64000  0.26419  1.0000
  S   S62       1.0  0.12786  0.60231  0.20760  1.0000
  S   S63       1.0  0.13972  0.66358  0.23105  1.0000
  C   C174      1.0  0.20319  0.70974  0.31621  1.0000
  H   H203      1.0  0.05052  0.62944  0.19583  1.0000
  S   S64       1.0  0.25400  0.83303  0.29879  1.0000
  C   C175      1.0  0.33168  0.77662  0.20948  1.0000
  C   C176      1.0  0.34850  0.75925  0.22715  1.0000
  C   C177      1.0  0.34395  0.76004  0.25620  1.0000
  C   C178      1.0  0.32215  0.77760  0.26785  1.0000
  C   C179      1.0  0.30430  0.79340  0.25008  1.0000
  C   C180      1.0  0.30934  0.79336  0.22115  1.0000
  H   H204      1.0  0.36591  0.74637  0.21847  1.0000
  H   H205      1.0  0.35783  0.74752  0.26970  1.0000
  H   H206      1.0  0.28690  0.80614  0.25853  1.0000
  H   H207      1.0  0.29608  0.80669  0.20771  1.0000
  C   C181      1.0  0.28138  0.65406  0.15737  1.0000
  C   C182      1.0  0.26473  0.67763  0.14795  1.0000
  C   C183      1.0  0.23524  0.67763  0.15110  1.0000
  C   C184      1.0  0.22218  0.65455  0.16465  1.0000
  C   C185      1.0  0.23893  0.63170  0.17542  1.0000
  C   C186      1.0  0.26834  0.63133  0.17149  1.0000
  H   H208      1.0  0.27453  0.69541  0.13750  1.0000
  H   H209      1.0  0.22245  0.69535  0.14262  1.0000
  H   H210      1.0  0.22920  0.61364  0.18559  1.0000
  H   H211      1.0  0.28102  0.61302  0.17891  1.0000
  C   C187      1.0  0.15305  0.50299  0.21416  1.0000
  C   C188      1.0  0.15090  0.50386  0.24303  1.0000
  H   H212      1.0  0.15564  0.52220  0.20132  1.0000
  H   H213      1.0  0.09875  0.52719  0.22555  1.0000
  C   C189      1.0  0.45907  0.74315  0.99038  1.0000
  C   C190      1.0  0.35723  0.70184  0.00698  1.0000
  C   C191      1.0  0.35512  0.73106  0.00890  1.0000
  C   C192      1.0  0.98404  0.52063  0.26572  1.0000
  H   H214      1.0  0.35732  0.68801  0.02560  1.0000
  H   H215      1.0  0.11260  0.71665  0.26119  1.0000
  H   H216      1.0  0.07215  0.76063  0.29775  1.0000
  C   C193      1.0  0.07560  0.52660  0.22481  1.0000
  C   C194      1.0  0.44564  0.71902  0.00188  1.0000
  H   H217      1.0  0.09584  0.66017  0.29213  1.0000
  H   H218      1.0  0.06850  0.49768  0.27352  1.0000
  C   C195      1.0  0.00521  0.63235  0.25261  1.0000
  C   C196      1.0  0.03076  0.63317  0.23665  1.0000
  C   C197      1.0  0.03109  0.62865  0.20842  1.0000
  H   H219      1.0  0.00473  0.63580  0.27448  1.0000
  C   C198      1.0  0.08954  0.75510  0.31068  1.0000
  C   C199      1.0  0.01307  0.52076  0.26804  1.0000
  C   C200      1.0  0.43204  0.68478  0.04049  1.0000
  C   C201      1.0  0.09089  0.71210  0.26885  1.0000
  S   S65       1.0  0.31883  0.78052  0.30440  1.0000
  H   H220      1.0  0.09523  0.52157  0.27502  1.0000
  H   H221      1.0  0.16194  0.70942  0.26174  1.0000
  N   N11       1.0  0.06085  0.53741  0.25016  1.0000
  H   H222      1.0  0.43405  0.72765  0.07104  1.0000
  H   H223      1.0  0.06394  0.58040  0.23328  1.0000
  H   H224      1.0  0.29288  0.88837  0.22733  1.0000
  H   H225      1.0  0.39292  0.81977  0.18256  1.0000
  C   C202      1.0  0.98735  0.55132  0.22420  1.0000
  S   S66       1.0  0.18606  0.66181  0.29607  1.0000
  H   H226      1.0  0.24797  0.60833  0.11540  1.0000
  N   N12       1.0  0.26664  0.70444  0.24007  1.0000
  C   C203      1.0  0.28925  0.70280  0.21778  1.0000
  C   C204      1.0  0.28001  0.70506  0.26691  1.0000
  C   C205      1.0  0.25109  0.67840  0.24129  1.0000
  C   C206      1.0  0.24748  0.72951  0.23389  1.0000
  C   C207      1.0  0.24564  0.75363  0.24982  1.0000
  C   C208      1.0  0.23058  0.73070  0.21068  1.0000
  C   C209      1.0  0.22770  0.77712  0.24302  1.0000
  C   C210      1.0  0.21244  0.75416  0.20431  1.0000
  C   C211      1.0  0.21096  0.77731  0.22051  1.0000
  H   H227      1.0  0.30128  0.72212  0.21607  1.0000
  H   H228      1.0  0.30435  0.68430  0.22150  1.0000
  H   H229      1.0  0.28088  0.70075  0.19717  1.0000
  H   H230      1.0  0.29401  0.72280  0.26680  1.0000
  H   H231      1.0  0.29345  0.68554  0.27157  1.0000
  H   H232      1.0  0.26390  0.70695  0.28444  1.0000
  H   H233      1.0  0.26432  0.65938  0.24811  1.0000
  H   H234      1.0  0.23236  0.67994  0.25609  1.0000
  H   H235      1.0  0.24373  0.67381  0.22085  1.0000
  H   H236      1.0  0.25759  0.75490  0.26785  1.0000
  H   H237      1.0  0.23126  0.71344  0.19728  1.0000
  H   H238      1.0  0.22625  0.79504  0.25580  1.0000
  H   H239      1.0  0.19940  0.75430  0.18678  1.0000
  H   H240      1.0  0.19668  0.79538  0.21581  1.0000
  H   H241      1.0  0.31718  0.91504  0.27379  1.0000
  H   H242      1.0  0.07694  0.73088  0.26316  1.0000
  C   C212      1.0  0.17328  0.71752  0.27771  1.0000
  C   C213      1.0  0.01630  0.55184  0.22643  1.0000
  H   H243      1.0  0.19833  0.62342  0.10888  1.0000
  H   H244      1.0  0.41170  0.73883  0.04325  1.0000
  H   H245      1.0  0.16117  0.76112  0.26644  1.0000
  C   C214      1.0  0.03013  0.53651  0.24837  1.0000
  N   N13       1.0  0.32415  0.87437  0.25675  1.0000
  C   C215      1.0  0.29538  0.87495  0.24677  1.0000
  C   C216      1.0  0.32353  0.86060  0.28521  1.0000
  C   C217      1.0  0.33175  0.90376  0.25871  1.0000
  C   C218      1.0  0.34419  0.85987  0.23705  1.0000
  C   C219      1.0  0.34627  0.86962  0.20868  1.0000
  C   C220      1.0  0.36155  0.83558  0.24501  1.0000
  C   C221      1.0  0.36385  0.85541  0.18935  1.0000
  C   C222      1.0  0.37928  0.82175  0.22554  1.0000
  C   C223      1.0  0.38019  0.83143  0.19775  1.0000
  H   H246      1.0  0.05074  0.68412  0.29809  1.0000
  S   S67       1.0  0.18595  0.79456  0.30473  1.0000
  H   H247      1.0  0.30830  0.87181  0.29956  1.0000
  H   H248      1.0  0.31702  0.83866  0.28543  1.0000
  C   C224      1.0  0.07210  0.52040  0.27437  1.0000
  H   H249      1.0  0.34423  0.86027  0.29450  1.0000
  H   H250      1.0  0.33066  0.91632  0.23859  1.0000
  S   S68       1.0  0.26377  0.91081  0.31043  1.0000
  H   H251      1.0  0.35340  0.90429  0.26573  1.0000
  H   H252      1.0  0.33375  0.88792  0.20111  1.0000
  H   H253      1.0  0.36114  0.82614  0.26594  1.0000
  H   H254      1.0  0.36427  0.86250  0.16759  1.0000
  H   H255      1.0  0.39146  0.80263  0.23184  1.0000
  H   H256      1.0  0.43359  0.67890  0.06305  1.0000
  N   N14       1.0  0.27980  0.68761  0.06267  1.0000
  C   C225      1.0  0.28107  0.68724  0.03205  1.0000
  C   C226      1.0  0.27319  0.71708  0.07039  1.0000
  C   C227      1.0  0.30818  0.67878  0.07212  1.0000
  C   C228      1.0  0.25785  0.66919  0.07472  1.0000
  C   C229      1.0  0.26413  0.64351  0.09055  1.0000
  C   C230      1.0  0.22909  0.67660  0.07052  1.0000
  C   C231      1.0  0.24280  0.62710  0.10230  1.0000
  C   C232      1.0  0.20795  0.66013  0.08260  1.0000
  C   C233      1.0  0.21479  0.63555  0.09861  1.0000
  H   H257      1.0  0.28617  0.66550  0.02535  1.0000
  H   H258      1.0  0.26082  0.69496  0.02329  1.0000
  H   H259      1.0  0.29741  0.70091  0.02224  1.0000
  H   H260      1.0  0.25427  0.72711  0.06072  1.0000
  H   H261      1.0  0.29056  0.73094  0.06368  1.0000
  H   H262      1.0  0.26961  0.71798  0.09324  1.0000
  H   H263      1.0  0.31594  0.65786  0.06487  1.0000
  H   H264      1.0  0.32392  0.69387  0.06411  1.0000
  H   H265      1.0  0.30832  0.67773  0.09515  1.0000
  H   H266      1.0  0.28526  0.63605  0.09517  1.0000
  C   C234      1.0  0.18818  0.75773  0.30066  1.0000
  H   H267      1.0  0.08428  0.69482  0.25683  1.0000
  C   C235      1.0  0.00594  0.62412  0.19619  1.0000
  H   H268      1.0  0.28969  0.85346  0.24278  1.0000
  H   H269      1.0  0.46590  0.74343  0.13306  1.0000
  N   N15       1.0  0.08953  0.70445  0.29912  1.0000
  C   C236      1.0  0.06809  0.56690  0.25237  1.0000
  H   H270      1.0  0.05584  0.57678  0.26989  1.0000
  H   H271      1.0  0.06283  0.52818  0.29428  1.0000
  C   C237      1.0  0.18772  0.69883  0.29621  1.0000
  C   C238      1.0  0.17308  0.74682  0.28026  1.0000
  N   N16       1.0  0.44691  0.71058  0.03182  1.0000
  H   H272      1.0  0.00627  0.62127  0.17419  1.0000
  H   H273      1.0  0.27933  0.88354  0.26211  1.0000
  H   H274      1.0  0.09078  0.56819  0.25574  1.0000
  H   H275      1.0  0.02771  0.56467  0.21093  1.0000
  H   H276      1.0  0.27837  0.96602  0.28993  1.0000
  H   H277      1.0  0.22267  0.69541  0.05824  1.0000
  H   H278      1.0  0.40924  0.68794  0.03703  1.0000
  H   H279      1.0  0.18605  0.66670  0.08013  1.0000
  H   H280      1.0  0.07090  0.50441  0.22228  1.0000
  C   C239      1.0  0.10490  0.67653  0.30351  1.0000
  H   H281      1.0  0.02155  0.50854  0.28552  1.0000
  C   C240      1.0  0.43391  0.73359  0.04839  1.0000
  H   H282      1.0  0.35377  0.77121  0.98553  1.0000
  H   H283      1.0  0.06985  0.53933  0.20569  1.0000
  C   C241      1.0  0.26539  0.96844  0.30880  1.0000
  H   H284      1.0  0.04631  0.72069  0.30422  1.0000
  H   H285      1.0  0.44116  0.66630  0.02944  1.0000
  H   H286      1.0  0.44513  0.75325  0.04503  1.0000
  C   C242      1.0  0.05981  0.70122  0.30866  1.0000
  H   H287      1.0  0.12727  0.67720  0.29589  1.0000
  C   C243      1.0  0.10099  0.72687  0.31396  1.0000
  H   H288      1.0  0.14590  0.47908  0.28174  1.0000
  H   H289      1.0  0.47816  0.69731  0.06115  1.0000
  C   C244      1.0  0.14754  0.47864  0.25939  1.0000
  H   H290      1.0  0.47029  0.75571  0.00319  1.0000
  C   C245      1.0  0.47657  0.70507  0.03902  1.0000
  H   H291      1.0  0.42007  0.68557  0.99009  1.0000
  C   C246      1.0  0.98032  0.62352  0.21207  1.0000
  C   C247      1.0  0.15199  0.47711  0.20190  1.0000
  H   H292      1.0  0.15377  0.47666  0.17956  1.0000
  Fe  Fe33      1.0  0.23055  0.79702  0.63177  1.0000
  S   S69       1.0  0.27423  0.78064  0.61947  1.0000
  Fe  Fe34      1.0  0.24567  0.85878  0.62478  1.0000
  S   S70       1.0  0.29048  0.84659  0.61230  1.0000
  S   S71       1.0  0.22619  0.90350  0.62744  1.0000
  Fe  Fe35      1.0  0.27273  0.81578  0.58582  1.0000
  S   S72       1.0  0.29179  0.80934  0.54219  1.0000
  S   S73       1.0  0.22795  0.83001  0.59625  1.0000
  H   H293      1.0  0.29074  0.87424  0.45628  1.0000
  H   H294      1.0  0.28680  0.87953  0.50567  1.0000
  S   S74       1.0  0.28649  0.84216  0.35501  1.0000
  H   H295      1.0  0.22101  0.94686  0.53215  1.0000
  C   C248      1.0  0.22616  0.90810  0.46009  1.0000
  S   S75       1.0  0.24965  0.78692  0.35293  1.0000
  C   C249      1.0  0.28396  0.96262  0.61191  1.0000
  Fe  Fe36      1.0  0.24907  0.82435  0.37922  1.0000
  S   S76       1.0  0.23512  0.82405  0.42548  1.0000
  C   C250      1.0  0.26402  0.89079  0.55271  1.0000
  S   S77       1.0  0.21713  0.85020  0.35389  1.0000
  H   H296      1.0  0.23914  0.72774  0.63066  1.0000
  C   C251      1.0  0.22342  0.91180  0.48856  1.0000
  H   H297      1.0  0.23478  0.78166  0.55947  1.0000
  H   H298      1.0  0.13428  0.70109  0.33509  1.0000
  C   C252      1.0  0.26409  0.73157  0.56107  1.0000
  H   H299      1.0  0.20423  0.92241  0.49650  1.0000
  H   H300      1.0  0.26429  0.72712  0.58392  1.0000
  H   H301      1.0  0.18576  0.76046  0.47213  1.0000
  H   H302      1.0  0.23617  0.93838  0.56464  1.0000
  C   C253      1.0  0.23393  0.74366  0.52149  1.0000
  H   H303      1.0  0.30627  0.96309  0.60689  1.0000
  C   C254      1.0  0.23833  0.94793  0.34791  1.0000
  H   H304      1.0  0.27735  0.74979  0.55601  1.0000
  H   H305      1.0  0.18827  0.75019  0.52210  1.0000
  H   H306      1.0  0.23021  0.92971  0.35941  1.0000
  C   C255      1.0  0.21863  0.71334  0.56105  1.0000
  C   C256      1.0  0.24286  0.93572  0.62250  1.0000
  C   C257      1.0  0.24476  0.90151  0.50648  1.0000
  C   C258      1.0  0.21449  0.89238  0.54784  1.0000
  H   H307      1.0  0.20443  0.96076  0.63102  1.0000
  C   C259      1.0  0.25625  0.74936  0.47454  1.0000
  C   C260      1.0  0.27573  0.81414  0.50990  1.0000
  C   C261      1.0  0.29239  0.81067  0.48523  1.0000
  C   C262      1.0  0.28050  0.81393  0.45915  1.0000
  C   C263      1.0  0.25171  0.82059  0.45750  1.0000
  C   C264      1.0  0.23509  0.82416  0.48220  1.0000
  C   C265      1.0  0.24699  0.82103  0.50824  1.0000
  H   H308      1.0  0.31465  0.80531  0.48628  1.0000
  H   H309      1.0  0.29353  0.81102  0.44038  1.0000
  H   H310      1.0  0.21280  0.82927  0.48112  1.0000
  H   H311      1.0  0.23387  0.82374  0.52692  1.0000
  H   H312      1.0  0.27508  0.75010  0.46091  1.0000
  H   H313      1.0  0.27926  0.74051  0.51024  1.0000
  H   H314      1.0  0.22885  0.76041  0.44139  1.0000
  H   H315      1.0  0.22013  0.70751  0.58361  1.0000
  H   H316      1.0  0.21178  0.89294  0.57084  1.0000
  H   H317      1.0  0.19589  0.71751  0.55787  1.0000
  H   H318      1.0  0.22615  0.69452  0.54963  1.0000
  N   N17       1.0  0.23514  0.73788  0.55187  1.0000
  H   H319      1.0  0.26005  0.89299  0.57537  1.0000
  N   N18       1.0  0.24085  0.90477  0.53672  1.0000
  H   H320      1.0  0.15258  0.73938  0.35705  1.0000
  H   H321      1.0  0.31908  0.89338  0.64203  1.0000
  C   C266      1.0  0.27212  0.88515  0.46534  1.0000
  H   H322      1.0  0.25845  0.94527  0.53404  1.0000
  C   C267      1.0  0.25039  0.89461  0.44855  1.0000
  H   H323      1.0  0.26649  0.86778  0.54965  1.0000
  C   C268      1.0  0.13454  0.74359  0.34455  1.0000
  H   H324      1.0  0.21429  0.87001  0.54267  1.0000
  S   S78       1.0  0.19439  0.77001  0.64497  1.0000
  H   H325      1.0  0.19547  0.90387  0.53967  1.0000
  C   C269      1.0  0.23147  0.97517  0.35703  1.0000
  C   C270      1.0  0.22668  0.96118  0.62559  1.0000
  H   H326      1.0  0.13282  0.78817  0.34919  1.0000
  C   C271      1.0  0.12339  0.77114  0.34017  1.0000
  C   C272      1.0  0.26947  0.88833  0.49390  1.0000
  H   H327      1.0  0.25211  0.89093  0.42661  1.0000
  H   H328      1.0  0.21450  0.69548  0.33058  1.0000
  C   C273      1.0  0.22302  0.68759  0.64446  1.0000
  C   C274      1.0  0.23903  0.93512  0.54204  1.0000
  H   H329      1.0  0.22383  0.75945  0.58914  1.0000
  H   H330      1.0  0.20926  0.91525  0.44687  1.0000
  H   H331      1.0  0.28435  0.90022  0.54689  1.0000
  H   H332      1.0  0.20064  0.76797  0.56214  1.0000
  C   C275      1.0  0.20593  0.75535  0.48088  1.0000
  Fe  Fe37      1.0  0.28744  0.81279  0.64717  1.0000
  H   H333      1.0  0.27438  0.71270  0.55143  1.0000
  C   C276      1.0  0.27154  0.93656  0.61533  1.0000
  C   C277      1.0  0.20767  0.74959  0.50945  1.0000
  H   H334      1.0  0.28420  0.91721  0.61266  1.0000
  C   C278      1.0  0.23018  0.75517  0.46346  1.0000
  C   C279      1.0  0.25830  0.74387  0.50311  1.0000
  C   C280      1.0  0.22305  0.76280  0.56622  1.0000
  C   C281      1.0  0.22173  0.71719  0.64088  1.0000
  C   C282      1.0  0.19769  0.73295  0.65023  1.0000
  C   C283      1.0  0.12372  0.72168  0.33163  1.0000
  Fe  Fe38      1.0  0.25447  0.86673  0.32914  1.0000
  H   H335      1.0  0.21506  0.74691  0.33426  1.0000
  H   H336      1.0  0.05783  0.69585  0.33140  1.0000
  H   H337      1.0  0.24141  0.67541  0.63674  1.0000
  Fe  Fe39      1.0  0.22033  0.81364  0.32636  1.0000
  Fe  Fe40      1.0  0.28347  0.80736  0.32580  1.0000
  C   C284      1.0  0.25517  0.94444  0.32359  1.0000
  H   H338      1.0  0.10398  0.66879  0.32572  1.0000
  H   H339      1.0  0.09244  0.79844  0.31989  1.0000
  C   C285      1.0  0.10080  0.77688  0.32343  1.0000
  C   C286      1.0  0.20365  0.73899  0.31826  1.0000
  Fe  Fe41      1.0  0.19292  0.61118  0.76193  1.0000
  S   S79       1.0  0.21426  0.58903  0.72662  1.0000
  S   S80       1.0  0.21630  0.62934  0.79552  1.0000
  Fe  Fe42      1.0  0.13382  0.60224  0.74198  1.0000
  S   S81       1.0  0.15189  0.58013  0.70448  1.0000
  S   S82       1.0  0.08839  0.60586  0.75975  1.0000
  Fe  Fe43      1.0  0.18163  0.55698  0.73386  1.0000
  S   S83       1.0  0.19398  0.51032  0.74356  1.0000
  Fe  Fe44      1.0  0.18285  0.61438  0.70086  1.0000
  C   C287      1.0  0.06271  0.51494  0.74514  1.0000
  S   S84       1.0  0.16237  0.57764  0.77135  1.0000
  S   S85       1.0  0.16269  0.63810  0.73615  1.0000
  Fe  Fe45      1.0  0.36588  0.70701  0.87808  1.0000
  S   S86       1.0  0.39654  0.67916  0.85332  1.0000
  S   S87       1.0  0.35929  0.69207  0.92395  1.0000
  Fe  Fe46      1.0  0.35057  0.74388  0.82496  1.0000
  S   S88       1.0  0.38096  0.71908  0.79774  1.0000
  S   S89       1.0  0.31851  0.77638  0.80665  1.0000
  Fe  Fe47      1.0  0.36336  0.68142  0.82169  1.0000
  S   S90       1.0  0.34724  0.64662  0.79806  1.0000
  Fe  Fe48      1.0  0.41096  0.71956  0.83196  1.0000
  S   S91       1.0  0.45477  0.73648  0.82885  1.0000
  S   S92       1.0  0.33213  0.70628  0.84779  1.0000
  S   S93       1.0  0.38134  0.74737  0.85800  1.0000
  H   H340      1.0  0.45948  0.70926  0.88311  1.0000
  C   C288      1.0  0.21922  0.70496  0.76075  1.0000
  H   H341      1.0  0.11023  0.52053  0.71205  1.0000
  C   C289      1.0  0.00469  0.60189  0.75022  1.0000
  C   C290      1.0  0.27718  0.93761  0.68510  1.0000
  C   C291      1.0  0.43034  0.71274  0.95525  1.0000
  H   H342      1.0  0.02777  0.58777  0.68461  1.0000
  H   H343      1.0  0.26163  0.66430  0.88319  1.0000
  C   C292      1.0  0.35846  0.70793  0.95620  1.0000
  H   H344      1.0  0.34886  0.93334  0.68353  1.0000
  C   C293      1.0  0.28419  0.87770  0.68609  1.0000
  H   H345      1.0  0.35774  0.75090  0.93942  1.0000
  C   C294      1.0  0.31962  0.78291  0.77002  1.0000
  C   C295      1.0  0.34489  0.77993  0.75408  1.0000
  C   C296      1.0  0.34557  0.78612  0.72521  1.0000
  C   C297      1.0  0.32100  0.79500  0.71180  1.0000
  C   C298      1.0  0.29561  0.79787  0.72766  1.0000
  C   C299      1.0  0.29500  0.79210  0.75669  1.0000
  H   H346      1.0  0.36406  0.77328  0.76403  1.0000
  H   H347      1.0  0.36533  0.78395  0.71319  1.0000
  H   H348      1.0  0.27652  0.80471  0.71764  1.0000
  H   H349      1.0  0.27536  0.79455  0.76883  1.0000
  H   H350      1.0  0.15984  0.50170  0.69689  1.0000
  C   C300      1.0  0.31058  0.64349  0.79634  1.0000
  C   C301      1.0  0.30035  0.63072  0.77396  1.0000
  C   C302      1.0  0.27149  0.62655  0.77302  1.0000
  C   C303      1.0  0.25268  0.63473  0.79474  1.0000
  C   C304      1.0  0.26292  0.64745  0.81702  1.0000
  C   C305      1.0  0.29160  0.65198  0.81777  1.0000
  H   H351      1.0  0.31487  0.62387  0.75738  1.0000
  H   H352      1.0  0.26396  0.61669  0.75571  1.0000
  H   H353      1.0  0.24856  0.65349  0.83400  1.0000
  H   H354      1.0  0.29917  0.66112  0.83543  1.0000
  H   H355      1.0  0.24476  0.49672  0.77984  1.0000
  H   H356      1.0  0.25849  0.92605  0.68582  1.0000
  C   C306      1.0  0.10966  0.52887  0.73295  1.0000
  C   C307      1.0  0.00338  0.59568  0.72255  1.0000
  H   H357      1.0  0.44583  0.66130  0.89751  1.0000
  H   H358      1.0  0.22086  0.72361  0.77302  1.0000
  H   H359      1.0  0.41888  0.70117  0.94158  1.0000
  H   H360      1.0  0.34645  0.71881  0.74283  1.0000
  C   C308      1.0  0.27298  0.96697  0.68311  1.0000
  H   H361      1.0  0.27633  0.71938  0.69255  1.0000
  C   C309      1.0  0.02853  0.59264  0.70602  1.0000
  C   C310      1.0  0.05472  0.59568  0.71697  1.0000
  C   C311      1.0  0.05604  0.60191  0.74464  1.0000
  C   C312      1.0  0.03090  0.60493  0.76117  1.0000
  H   H362      1.0  0.20009  0.73082  0.71615  1.0000
  H   H363      1.0  0.07381  0.59338  0.70395  1.0000
  H   H364      1.0  0.03168  0.60980  0.78259  1.0000
  H   H365      1.0  0.31643  0.70774  0.78478  1.0000
  C   C313      1.0  0.32740  0.94197  0.68344  1.0000
  H   H366      1.0  0.21961  0.54180  0.78136  1.0000
  N   N19       1.0  0.26482  0.53573  0.78117  1.0000
  C   C314      1.0  0.26347  0.50510  0.78834  1.0000
  C   C315      1.0  0.23773  0.54981  0.79103  1.0000
  C   C316      1.0  0.26729  0.54049  0.75052  1.0000
  C   C317      1.0  0.28949  0.54621  0.79329  1.0000
  C   C318      1.0  0.31704  0.53607  0.78469  1.0000
  C   C319      1.0  0.28717  0.56685  0.81333  1.0000
  C   C320      1.0  0.34072  0.54682  0.79456  1.0000
  C   C321      1.0  0.31102  0.57718  0.82329  1.0000
  C   C322      1.0  0.33769  0.56757  0.81360  1.0000
  H   H367      1.0  0.26722  0.57608  0.82109  1.0000
  H   H368      1.0  0.10162  0.55137  0.73089  1.0000
  H   H369      1.0  0.28902  0.85450  0.68674  1.0000
  C   C323      1.0  0.18033  0.48005  0.73126  1.0000
  H   H370      1.0  0.33155  0.86170  0.66090  1.0000
  H   H371      1.0  0.35952  0.66779  0.97957  1.0000
  H   H372      1.0  0.26986  0.88173  0.70457  1.0000
  H   H373      1.0  0.24831  0.53436  0.74076  1.0000
  C   C324      1.0  0.01291  0.53067  0.75177  1.0000
  H   H374      1.0  0.32047  0.52010  0.76984  1.0000
  H   H375      1.0  0.26209  0.50055  0.81121  1.0000
  H   H376      1.0  0.36156  0.53939  0.78710  1.0000
  H   H377      1.0  0.11753  0.52176  0.78690  1.0000
  H   H378      1.0  0.35601  0.57661  0.82057  1.0000
  C   C325      1.0  0.32445  0.88340  0.71163  1.0000
  C   C326      1.0  0.32424  0.71663  0.74113  1.0000
  N   N20       1.0  0.31009  0.89315  0.68610  1.0000
  C   C327      1.0  0.10301  0.48278  0.75517  1.0000
  S   S94       1.0  0.32357  0.80337  0.67547  1.0000
  H   H379      1.0  0.15992  0.67894  0.67918  1.0000
  H   H380      1.0  0.22661  0.75224  0.72677  1.0000
  H   H381      1.0  0.32833  0.85998  0.71328  1.0000
  C   C328      1.0  0.30468  0.92416  0.68502  1.0000
  H   H382      1.0  0.23174  0.73377  0.69571  1.0000
  C   C329      1.0  0.00730  0.52030  0.72665  1.0000
  C   C330      1.0  0.45794  0.75179  0.96224  1.0000
  H   H383      1.0  0.32598  0.72537  0.69703  1.0000
  H   H384      1.0  0.28521  0.52790  0.74088  1.0000
  H   H385      1.0  0.23705  0.57289  0.78567  1.0000
  N   N21       1.0  0.09202  0.51271  0.75367  1.0000
  H   H386      1.0  0.21073  0.67799  0.71660  1.0000
  H   H387      1.0  0.12468  0.48031  0.76259  1.0000
  C   C331      1.0  0.32837  0.88501  0.66166  1.0000
  H   H388      1.0  0.19655  0.70298  0.75775  1.0000
  C   C332      1.0  0.09527  0.52396  0.78108  1.0000
  C   C333      1.0  0.35727  0.73713  0.95808  1.0000
  C   C334      1.0  0.27853  0.70772  0.76288  1.0000
  C   C335      1.0  0.30722  0.71051  0.76480  1.0000
  C   C336      1.0  0.31268  0.72016  0.71535  1.0000
  H   H389      1.0  0.34522  0.89231  0.71230  1.0000
  H   H390      1.0  0.04312  0.53790  0.77999  1.0000
  H   H391      1.0  0.08904  0.54694  0.78092  1.0000
  H   H392      1.0  0.47527  0.67916  0.81538  1.0000
  N   N22       1.0  0.28600  0.77213  0.89260  1.0000
  C   C337      1.0  0.27123  0.79315  0.87357  1.0000
  C   C338      1.0  0.27921  0.78046  0.92136  1.0000
  C   C339      1.0  0.31651  0.77383  0.88617  1.0000
  C   C340      1.0  0.27842  0.74285  0.89003  1.0000
  C   C341      1.0  0.28942  0.72061  0.90806  1.0000
  C   C342      1.0  0.26099  0.73531  0.86931  1.0000
  C   C343      1.0  0.28333  0.69268  0.90560  1.0000
  C   C344      1.0  0.25480  0.70730  0.86722  1.0000
  C   C345      1.0  0.26596  0.68604  0.88530  1.0000
  H   H393      1.0  0.24806  0.79293  0.87714  1.0000
  H   H394      1.0  0.27703  0.81498  0.87628  1.0000
  H   H395      1.0  0.27702  0.78934  0.85141  1.0000
  H   H396      1.0  0.28304  0.80296  0.92354  1.0000
  H   H397      1.0  0.29229  0.76812  0.93669  1.0000
  H   H398      1.0  0.25680  0.77746  0.92770  1.0000
  H   H399      1.0  0.32222  0.76802  0.86462  1.0000
  H   H400      1.0  0.32334  0.79546  0.88787  1.0000
  H   H401      1.0  0.32928  0.75932  0.90006  1.0000
  H   H402      1.0  0.30368  0.72446  0.92364  1.0000
  H   H403      1.0  0.25231  0.75051  0.85410  1.0000
  H   H404      1.0  0.29288  0.67604  0.91902  1.0000
  H   H405      1.0  0.24173  0.70196  0.85109  1.0000
  H   H406      1.0  0.23370  0.54613  0.81381  1.0000
  C   C346      1.0  0.16409  0.48163  0.70812  1.0000
  C   C347      1.0  0.28408  0.71714  0.71312  1.0000
  H   H407      1.0  0.26679  0.70256  0.78206  1.0000
  N   N23       1.0  0.23587  0.70758  0.73388  1.0000
  C   C348      1.0  0.26602  0.71112  0.73687  1.0000
  H   H408      1.0  0.24387  0.68256  0.69832  1.0000
  H   H409      1.0  0.27011  0.56308  0.74429  1.0000
  C   C349      1.0  0.23308  0.68168  0.71931  1.0000
  H   H410      1.0  0.24231  0.66276  0.73107  1.0000
  H   H411      1.0  0.30884  0.59361  0.83784  1.0000
  H   H412      1.0  0.31159  0.88950  0.73049  1.0000
  H   H413      1.0  0.22599  0.68564  0.77338  1.0000
  C   C350      1.0  0.22312  0.73213  0.71750  1.0000
  H   H414      1.0  0.28210  0.49267  0.77977  1.0000
  H   H415      1.0  0.27261  0.88354  0.66704  1.0000
  C   C351      1.0  0.35847  0.69041  0.98080  1.0000
  H   H416      1.0  0.08266  0.51266  0.79783  1.0000
  C   C352      1.0  0.20082  0.67363  0.65843  1.0000
  H   H417      1.0  0.13181  0.52830  0.73891  1.0000
  C   C353      1.0  0.44352  0.73665  0.94474  1.0000
  C   C354      1.0  0.46723  0.66672  0.89951  1.0000
  S   S95       1.0  0.20307  0.63648  0.66251  1.0000
  H   H418      1.0  0.44233  0.74357  0.92301  1.0000
  H   H419      1.0  0.98627  0.52315  0.71930  1.0000
  C   C355      1.0  0.04019  0.52835  0.76090  1.0000
  H   H420      1.0  0.46803  0.77051  0.95402  1.0000
  S   S96       1.0  0.24371  0.82712  0.66148  1.0000
  H   H421      1.0  0.34967  0.89285  0.66171  1.0000
  C   C356      1.0  0.47495  0.69382  0.89152  1.0000
  H   H422      1.0  0.99612  0.54153  0.76373  1.0000
  C   C357      1.0  0.43122  0.70397  0.98337  1.0000
  C   C358      1.0  0.35522  0.74857  0.98429  1.0000
  H   H423      1.0  0.07224  0.49416  0.70653  1.0000
  C   C359      1.0  0.17550  0.71898  0.66408  1.0000
  H   H424      1.0  0.15685  0.73103  0.67140  1.0000
  C   C360      1.0  0.17722  0.68948  0.66857  1.0000
  H   H425      1.0  0.98557  0.60435  0.76319  1.0000
  C   C361      1.0  0.05616  0.50426  0.71980  1.0000
  C   C362      1.0  0.32292  0.97132  0.68109  1.0000
  H   H426      1.0  0.02445  0.49923  0.69106  1.0000
  C   C363      1.0  0.02886  0.50702  0.71074  1.0000
  Fe  Fe49      1.0  0.89218  0.30984  0.20994  1.0000
  S   S97       1.0  0.87306  0.33254  0.24661  1.0000
  S   S98       1.0  0.93809  0.30698  0.19334  1.0000
  Fe  Fe50      1.0  0.83350  0.29949  0.18949  1.0000
  S   S99       1.0  0.81118  0.32233  0.22391  1.0000
  S   S100      1.0  0.81044  0.27977  0.15669  1.0000
  Fe  Fe51      1.0  0.84358  0.35462  0.21632  1.0000
  S   S101      1.0  0.83125  0.40098  0.20491  1.0000
  Fe  Fe52      1.0  0.84253  0.29781  0.25050  1.0000
  S   S102      1.0  0.82397  0.27590  0.28990  1.0000
  S   S103      1.0  0.86381  0.33321  0.17966  1.0000
  S   S104      1.0  0.86380  0.27361  0.21612  1.0000
  Fe  Fe53      1.0  0.65635  0.18104  0.12516  1.0000
  S   S105      1.0  0.62931  0.21487  0.14565  1.0000
  S   S106      1.0  0.67318  0.14277  0.15146  1.0000
  Fe  Fe54      1.0  0.66025  0.21543  0.06873  1.0000
  S   S107      1.0  0.63503  0.25166  0.08740  1.0000
  S   S108      1.0  0.67229  0.22865  0.02339  1.0000
  Fe  Fe55      1.0  0.66076  0.24342  0.12458  1.0000
  S   S109      1.0  0.67788  0.27614  0.15009  1.0000
  Fe  Fe56      1.0  0.60620  0.21931  0.10621  1.0000
  S   S110      1.0  0.56085  0.23031  0.09474  1.0000
  S   S111      1.0  0.68828  0.20965  0.10494  1.0000
  S   S112      1.0  0.63095  0.18309  0.08681  1.0000
  H   H427      1.0  0.55763  0.25448  0.18479  1.0000
  S   S113      1.0  0.67962  0.14849  0.28213  1.0000
  S   S114      1.0  0.74785  0.09855  0.29683  1.0000
  C   C364      1.0  0.52621  0.22332  0.10751  1.0000
  C   C365      1.0  0.51996  0.21307  0.13480  1.0000
  H   H428      1.0  0.72521  0.02922  0.24696  1.0000
  C   C366      1.0  0.50404  0.23008  0.08994  1.0000
  H   H429      1.0  0.53671  0.20750  0.14852  1.0000
  C   C367      1.0  0.96184  0.39978  0.20796  1.0000
  H   H430      1.0  0.50859  0.23804  0.06881  1.0000
  C   C368      1.0  0.67655  0.14583  0.18745  1.0000
  C   C369      1.0  0.69685  0.12868  0.20165  1.0000
  C   C370      1.0  0.69880  0.12982  0.23054  1.0000
  C   C371      1.0  0.67994  0.14761  0.24556  1.0000
  C   C372      1.0  0.65992  0.16488  0.23131  1.0000
  C   C373      1.0  0.65835  0.16416  0.20246  1.0000
  H   H431      1.0  0.71100  0.11437  0.19026  1.0000
  H   H432      1.0  0.71450  0.11662  0.24119  1.0000
  H   H433      1.0  0.64522  0.17867  0.24271  1.0000
  H   H434      1.0  0.64233  0.17709  0.19206  1.0000
  C   C374      1.0  0.67285  0.05624  0.23862  1.0000
  H   H435      1.0  0.91241  0.39279  0.23797  1.0000
  H   H436      1.0  0.86388  0.41223  0.25189  1.0000
  H   H437      1.0  0.95121  0.31955  0.24954  1.0000
  C   C375      1.0  0.77352  0.27787  0.15641  1.0000
  C   C376      1.0  0.75495  0.28963  0.17660  1.0000
  C   C377      1.0  0.72570  0.28890  0.17461  1.0000
  C   C378      1.0  0.71477  0.27555  0.15298  1.0000
  C   C379      1.0  0.73342  0.26311  0.13332  1.0000
  C   C380      1.0  0.76255  0.26465  0.13481  1.0000
  H   H438      1.0  0.76311  0.29943  0.19358  1.0000
  H   H439      1.0  0.71147  0.29865  0.18990  1.0000
  H   H440      1.0  0.72543  0.25313  0.11634  1.0000
  H   H441      1.0  0.77667  0.25552  0.11904  1.0000
  C   C381      1.0  0.81911  0.23927  0.29231  1.0000
  C   C382      1.0  0.96966  0.31379  0.20852  1.0000
  H   H442      1.0  0.71326  0.38933  0.15581  1.0000
  C   C383      1.0  0.48804  0.12923  0.14949  1.0000
  C   C384      1.0  0.83462  0.19096  0.28293  1.0000
  C   C385      1.0  0.83753  0.22017  0.27843  1.0000
  C   C386      1.0  0.68023  0.04194  0.21417  1.0000
  H   H443      1.0  0.74272  0.38388  0.19094  1.0000
  H   H444      1.0  0.85464  0.22783  0.26501  1.0000
  H   H445      1.0  0.64371  0.08342  0.16697  1.0000
  C   C387      1.0  0.96585  0.41030  0.23408  1.0000
  H   H446      1.0  0.56955  0.24388  0.15110  1.0000
  H   H447      1.0  0.67299  0.16954  0.00986  1.0000
  C   C388      1.0  0.51104  0.28304  0.16460  1.0000
  H   H448      1.0  0.68435  0.00220  0.25880  1.0000
  H   H449      1.0  0.80596  0.36355  0.12764  1.0000
  C   C389      1.0  0.84369  0.43213  0.21652  1.0000
  C   C390      1.0  0.85941  0.43183  0.23994  1.0000
  H   H450      1.0  0.77641  0.40871  0.12384  1.0000
  N   N24       1.0  0.75055  0.21317  0.23233  1.0000
  C   C391      1.0  0.77067  0.23282  0.24100  1.0000
  C   C392      1.0  0.72198  0.22732  0.23552  1.0000
  C   C393      1.0  0.75207  0.18755  0.25148  1.0000
  C   C394      1.0  0.75643  0.20497  0.20348  1.0000
  C   C395      1.0  0.73697  0.18971  0.19058  1.0000
  C   C396      1.0  0.78153  0.21117  0.18762  1.0000
  C   C397      1.0  0.74179  0.18206  0.16326  1.0000
  C   C398      1.0  0.78625  0.20321  0.16037  1.0000
  C   C399      1.0  0.76632  0.18892  0.14814  1.0000
  H   H451      1.0  0.77124  0.25213  0.22673  1.0000
  H   H452      1.0  0.76507  0.23981  0.26221  1.0000
  H   H453      1.0  0.79227  0.22268  0.24177  1.0000
  H   H454      1.0  0.71896  0.24477  0.21926  1.0000
  H   H455      1.0  0.71798  0.23624  0.25614  1.0000
  H   H456      1.0  0.70512  0.21264  0.23409  1.0000
  H   H457      1.0  0.77321  0.17623  0.24978  1.0000
  H   H458      1.0  0.74788  0.19271  0.27350  1.0000
  H   H459      1.0  0.73644  0.17243  0.24713  1.0000
  H   H460      1.0  0.71774  0.18370  0.20147  1.0000
  H   H461      1.0  0.79767  0.22271  0.19545  1.0000
  H   H462      1.0  0.72628  0.17091  0.15371  1.0000
  H   H463      1.0  0.80517  0.20897  0.14845  1.0000
  H   H464      1.0  0.76977  0.18333  0.12683  1.0000
  C   C400      1.0  0.49177  0.21091  0.14465  1.0000
  C   C401      1.0  0.91501  0.38401  0.21726  1.0000
  N   N25       1.0  0.76985  0.37482  0.15464  1.0000
  C   C402      1.0  0.77128  0.40525  0.14650  1.0000
  C   C403      1.0  0.79843  0.36123  0.14981  1.0000
  H   H465      1.0  0.75123  0.41749  0.15147  1.0000
  H   H466      1.0  0.78771  0.41474  0.15762  1.0000
  H   H467      1.0  0.81411  0.37074  0.16168  1.0000
  H   H468      1.0  0.79913  0.33845  0.15660  1.0000
  N   N26       1.0  0.56250  0.28862  0.15322  1.0000
  C   C404      1.0  0.56448  0.30989  0.17385  1.0000
  C   C405      1.0  0.58329  0.29486  0.12990  1.0000
  C   C406      1.0  0.53324  0.28906  0.14468  1.0000
  H   H469      1.0  0.72701  0.04041  0.28091  1.0000
  C   C407      1.0  0.55978  0.21467  0.01762  1.0000
  H   H470      1.0  0.55719  0.33124  0.16535  1.0000
  H   H471      1.0  0.55160  0.30512  0.19327  1.0000
  H   H472      1.0  0.58646  0.31091  0.17994  1.0000
  H   H473      1.0  0.57913  0.31632  0.11994  1.0000
  H   H474      1.0  0.60518  0.29367  0.13683  1.0000
  H   H475      1.0  0.58319  0.27929  0.11380  1.0000
  H   H476      1.0  0.51831  0.09388  0.15228  1.0000
  C   C408      1.0  0.86872  0.45717  0.24838  1.0000
  H   H477      1.0  0.77888  0.37863  0.19737  1.0000
  C   C409      1.0  0.67736  0.06515  0.28792  1.0000
  H   H478      1.0  0.84951  0.17633  0.27280  1.0000
  C   C410      1.0  0.76230  0.37146  0.18482  1.0000
  H   H479      1.0  0.65387  0.01767  0.27694  1.0000
  C   C411      1.0  0.65322  0.07998  0.23619  1.0000
  H   H480      1.0  0.59296  0.25929  0.17249  1.0000
  H   H481      1.0  0.91084  0.38914  0.16296  1.0000
  C   C412      1.0  0.57095  0.26041  0.16602  1.0000
  H   H482      1.0  0.60468  0.21416  0.01845  1.0000
  H   H483      1.0  0.62857  0.10804  0.20900  1.0000
  C   C413      1.0  0.74836  0.36278  0.13902  1.0000
  H   H484      1.0  0.68737  0.05748  0.30737  1.0000
  H   H485      1.0  0.77583  0.33148  0.11708  1.0000
  C   C414      1.0  0.75485  0.34092  0.12061  1.0000
  H   H486      1.0  0.51498  0.27784  0.18611  1.0000
  H   H487      1.0  0.92377  0.36183  0.22027  1.0000
  H   H488      1.0  0.75936  0.34903  0.19146  1.0000
  H   H489      1.0  0.93501  0.44342  0.18077  1.0000
  C   C415      1.0  0.93261  0.38849  0.17003  1.0000
  C   C416      1.0  0.71976  0.37269  0.14229  1.0000
  C   C417      1.0  0.97039  0.31908  0.23650  1.0000
  H   H490      1.0  0.48532  0.06252  0.17818  1.0000
  C   C418      1.0  0.73385  0.32958  0.10683  1.0000
  H   H491      1.0  0.73914  0.31236  0.09353  1.0000
  H   H492      1.0  0.64653  0.09257  0.25340  1.0000
  H   H493      1.0  0.89351  0.38353  0.20979  1.0000
  C   C419      1.0  0.65106  0.07530  0.18691  1.0000
  C   C420      1.0  0.66965  0.05155  0.18869  1.0000
  N   N27       1.0  0.93335  0.40051  0.19748  1.0000
  H   H494      1.0  0.82511  0.45850  0.18366  1.0000
  C   C421      1.0  0.83735  0.45799  0.20175  1.0000
  C   C422      1.0  0.69890  0.36087  0.12871  1.0000
  C   C423      1.0  0.70593  0.33922  0.11116  1.0000
  H   H495      1.0  0.68968  0.32941  0.10132  1.0000
  H   H496      1.0  0.67709  0.36814  0.13215  1.0000
  C   C424      1.0  0.79390  0.19974  0.31384  1.0000
  H   H497      1.0  0.51597  0.21338  0.01109  1.0000
  C   C425      1.0  0.64254  0.08917  0.21066  1.0000
  H   H498      1.0  0.55614  0.22227  0.03818  1.0000
  Fe  Fe57      1.0  0.71101  0.12635  0.31104  1.0000
  C   C426      1.0  0.53718  0.20961  0.00226  1.0000
  H   H499      1.0  0.69469  0.02352  0.21448  1.0000
  H   H500      1.0  0.93897  0.24043  0.23243  1.0000
  C   C427      1.0  0.67710  0.01793  0.27401  1.0000
  H   H501      1.0  0.88063  0.45680  0.26669  1.0000
  C   C428      1.0  0.66871  0.21209  0.99215  1.0000
  H   H502      1.0  0.91860  0.43988  0.21500  1.0000
  H   H503      1.0  0.68382  0.08698  0.28279  1.0000
  H   H504      1.0  0.78131  0.00668  0.31522  1.0000
  H   H505      1.0  0.67629  0.04092  0.17009  1.0000
  C   C429      1.0  0.81292  0.18055  0.30081  1.0000
  H   H506      1.0  0.94530  0.40035  0.15376  1.0000
  H   H507      1.0  0.65437  0.06599  0.29309  1.0000
  H   H508      1.0  0.94036  0.36586  0.17090  1.0000
  H   H509      1.0  0.72391  0.06618  0.25219  1.0000
  C   C430      1.0  0.71671  0.04558  0.26101  1.0000
  N   N28       1.0  0.68564  0.04658  0.26499  1.0000
  H   H510      1.0  0.90010  0.43144  0.18632  1.0000
  C   C431      1.0  0.58708  0.21005  0.00648  1.0000
  C   C432      1.0  0.92133  0.43004  0.19477  1.0000
  H   H511      1.0  0.68616  0.01024  0.29407  1.0000
  H   H512      1.0  0.54119  0.29945  0.10003  1.0000
  S   S115      1.0  0.81158  0.14360  0.30791  1.0000
  H   H513      1.0  0.94839  0.41923  0.24654  1.0000
  C   C433      1.0  0.52582  0.29542  0.11683  1.0000
  C   C434      1.0  0.79723  0.22888  0.30993  1.0000
  C   C435      1.0  0.96074  0.23948  0.23770  1.0000
  H   H514      1.0  0.50250  0.14304  0.13816  1.0000
  C   C436      1.0  0.49693  0.10161  0.15743  1.0000
  C   C437      1.0  0.96790  0.23280  0.26491  1.0000
  C   C438      1.0  0.67046  0.18280  0.99102  1.0000
  H   H515      1.0  0.48710  0.20384  0.16602  1.0000
  H   H516      1.0  0.97573  0.25102  0.19614  1.0000
  H   H517      1.0  0.95158  0.22819  0.28078  1.0000
  C   C439      1.0  0.49795  0.29555  0.10960  1.0000
  C   C440      1.0  0.48331  0.28293  0.15704  1.0000
  H   H518      1.0  0.49286  0.29954  0.08812  1.0000
  Fe  Fe58      1.0  0.71939  0.12129  0.62957  1.0000
  Fe  Fe59      1.0  0.75730  0.10941  0.57686  1.0000
  S   S116      1.0  0.78608  0.07931  0.60174  1.0000
  S   S117      1.0  0.77260  0.11146  0.53094  1.0000
  Fe  Fe60      1.0  0.74659  0.06194  0.62141  1.0000
  C   C441      1.0  0.75106  0.01508  0.48143  1.0000
  Fe  Fe61      1.0  0.78164  0.11174  0.63402  1.0000
  H   H519      1.0  0.69672  0.07640  0.46236  1.0000
  S   S118      1.0  0.71787  0.09121  0.59577  1.0000
  S   S119      1.0  0.75591  0.14284  0.60794  1.0000
  C   C442      1.0  0.71611  0.05126  0.49559  1.0000
  S   S120      1.0  0.69981  0.09736  0.34798  1.0000
  N   N29       1.0  0.73977  0.02090  0.53301  1.0000
  C   C443      1.0  0.81438  0.19884  0.39133  1.0000
  S   S121      1.0  0.73496  0.15250  0.33692  1.0000
  Fe  Fe62      1.0  0.72807  0.12035  0.37259  1.0000
  S   S122      1.0  0.71323  0.13274  0.41613  1.0000
  H   H520      1.0  0.83411  0.16381  0.43180  1.0000
  S   S123      1.0  0.76643  0.09263  0.36181  1.0000
  H   H521      1.0  0.78308  0.24344  0.32102  1.0000
  C   C444      1.0  0.75465  0.11555  0.49972  1.0000
  C   C445      1.0  0.76866  0.10662  0.47511  1.0000
  C   C446      1.0  0.75600  0.11091  0.44949  1.0000
  C   C447      1.0  0.72942  0.12492  0.44807  1.0000
  C   C448      1.0  0.71530  0.13358  0.47271  1.0000
  C   C449      1.0  0.72768  0.12867  0.49845  1.0000
  H   H522      1.0  0.78946  0.09630  0.47592  1.0000
  H   H523      1.0  0.76691  0.10357  0.43086  1.0000
  H   H524      1.0  0.69470  0.14437  0.47188  1.0000
  H   H525      1.0  0.71673  0.13585  0.51714  1.0000
  N   N30       1.0  0.79909  0.17627  0.40694  1.0000
  C   C450      1.0  0.71240  0.01542  0.54787  1.0000
  C   C451      1.0  0.78164  0.16317  0.38780  1.0000
  H   H526      1.0  0.79019  0.99554  0.63004  1.0000
  C   C452      1.0  0.78018  0.18639  0.43023  1.0000
  S   S124      1.0  0.73184  0.01705  0.62311  1.0000
  Fe  Fe63      1.0  0.73850  0.07049  0.33542  1.0000
  H   H527      1.0  0.85281  0.25760  0.34610  1.0000
  C   C453      1.0  0.74966  0.98334  0.62040  1.0000
  H   H528      1.0  0.73804  0.06408  0.54421  1.0000
  C   C454      1.0  0.74152  0.99171  0.33055  1.0000
  H   H529      1.0  0.80292  0.17600  0.62257  1.0000
  C   C455      1.0  0.73566  0.02877  0.50334  1.0000
  H   H530      1.0  0.69825  0.03480  0.54930  1.0000
  H   H531      1.0  0.75537  0.03946  0.56796  1.0000
  C   C456      1.0  0.84834  0.21314  0.35372  1.0000
  H   H532      1.0  0.75890  0.01302  0.43716  1.0000
  H   H533      1.0  0.76094  0.98981  0.56041  1.0000
  H   H534      1.0  0.76304  0.20142  0.42272  1.0000
  C   C457      1.0  0.82337  0.24865  0.38047  1.0000
  C   C458      1.0  0.83431  0.19218  0.36940  1.0000
  C   C459      1.0  0.84274  0.24133  0.35909  1.0000
  H   H535      1.0  0.79196  0.19649  0.44557  1.0000
  C   C460      1.0  0.80937  0.22783  0.39649  1.0000
  H   H536      1.0  0.81669  0.22529  0.62196  1.0000
  H   H537      1.0  0.79430  0.15367  0.37034  1.0000
  H   H538      1.0  0.83849  0.17076  0.36348  1.0000
  H   H539      1.0  0.81883  0.27070  0.38424  1.0000
  H   H540      1.0  0.79441  0.23506  0.41247  1.0000
  H   H541      1.0  0.76965  0.14610  0.39861  1.0000
  C   C461      1.0  0.72699  0.04519  0.44682  1.0000
  H   H542      1.0  0.83188  0.14293  0.40252  1.0000
  H   H543      1.0  0.77240  0.04952  0.53493  1.0000
  H   H544      1.0  0.76943  0.16880  0.44184  1.0000
  H   H545      1.0  0.80846  0.13799  0.43212  1.0000
  C   C462      1.0  0.75189  0.04442  0.54557  1.0000
  C   C463      1.0  0.81930  0.15437  0.41878  1.0000
  H   H546      1.0  0.71499  0.00729  0.56972  1.0000
  H   H547      1.0  0.76610  0.17901  0.37863  1.0000
  C   C464      1.0  0.77807  0.97830  0.62536  1.0000
  H   H548      1.0  0.67930  0.20959  0.64864  1.0000
  H   H549      1.0  0.70449  0.06348  0.51100  1.0000
  H   H550      1.0  0.70133  0.99962  0.53754  1.0000
  C   C465      1.0  0.81469  0.18243  0.63913  1.0000
  C   C466      1.0  0.74671  0.02334  0.45362  1.0000
  C   C467      1.0  0.71163  0.05899  0.46777  1.0000
  H   H551      1.0  0.72906  0.19749  0.63600  1.0000
  C   C468      1.0  0.75890  0.99536  0.53783  1.0000
  H   H552      1.0  0.86272  0.20760  0.33646  1.0000
  C   C469      1.0  0.82256  0.21043  0.63883  1.0000
  H   H553      1.0  0.72388  0.05184  0.42528  1.0000
  S   S125      1.0  0.72589  0.02478  0.33999  1.0000
  C   C470      1.0  0.72348  0.21434  0.64971  1.0000
  H   H554      1.0  0.77735  0.19221  0.32792  1.0000
  H   H555      1.0  0.76680  0.99820  0.48523  1.0000
  Fe  Fe64      1.0  0.77161  0.12365  0.32443  1.0000
  H   H556      1.0  0.78058  0.99871  0.52913  1.0000
  S   S126      1.0  0.68436  0.14870  0.65004  1.0000
  H   H557      1.0  0.78750  0.26395  0.65024  1.0000
  H   H558      1.0  0.76238  0.29364  0.64907  1.0000
  H   H559      1.0  0.75104  0.97671  0.52892  1.0000
  C   C471      1.0  0.76892  0.98852  0.31895  1.0000
  Fe  Fe65      1.0  0.86113  0.27768  0.69504  1.0000
  S   S127      1.0  0.87303  0.25750  0.73613  1.0000
  H   H560      1.0  0.86790  0.39768  0.75294  1.0000
  Fe  Fe66      1.0  0.86286  0.33783  0.71486  1.0000
  S   S128      1.0  0.87302  0.32137  0.75796  1.0000
  S   S129      1.0  0.85952  0.38324  0.69614  1.0000
  Fe  Fe67      1.0  0.90400  0.29113  0.73639  1.0000
  S   S130      1.0  0.94636  0.28507  0.75599  1.0000
  Fe  Fe68      1.0  0.84122  0.28919  0.75392  1.0000
  S   S131      1.0  0.81193  0.26861  0.78693  1.0000
  S   S132      1.0  0.89498  0.30872  0.69337  1.0000
  S   S133      1.0  0.82827  0.30839  0.71282  1.0000
  Fe  Fe69      1.0  0.60034  0.20785  0.83638  1.0000
  S   S134      1.0  0.62094  0.16520  0.84759  1.0000
  S   S135      1.0  0.55499  0.21176  0.85397  1.0000
  Fe  Fe70      1.0  0.65731  0.23014  0.81591  1.0000
  S   S136      1.0  0.68111  0.18913  0.82696  1.0000
  S   S137      1.0  0.67947  0.26824  0.79713  1.0000
  Fe  Fe71      1.0  0.64622  0.17031  0.80711  1.0000
  S   S138      1.0  0.65627  0.13325  0.78033  1.0000
  Fe  Fe72      1.0  0.65352  0.18841  0.86640  1.0000
  S   S139      1.0  0.66769  0.17098  0.90871  1.0000
  S   S140      1.0  0.62324  0.21132  0.79417  1.0000
  S   S141      1.0  0.63221  0.23092  0.85693  1.0000
  C   C472      1.0  0.84585  0.19967  0.68146  1.0000
  C   C473      1.0  0.73717  0.15345  0.75485  1.0000
  C   C474      1.0  0.52341  0.21602  0.83638  1.0000
  C   C475      1.0  0.49783  0.21223  0.85166  1.0000
  H   H561      1.0  0.76381  0.10406  0.74343  1.0000
  H   H562      1.0  0.96737  0.29255  0.69799  1.0000
  H   H563      1.0  0.93746  0.34293  0.73523  1.0000
  C   C476      1.0  0.52311  0.22303  0.80790  1.0000
  H   H564      1.0  0.49781  0.20695  0.87373  1.0000
  N   N31       1.0  0.75943  0.14876  0.73261  1.0000
  H   H565      1.0  0.54262  0.22612  0.79592  1.0000
  C   C477      1.0  0.66734  0.18754  0.94052  1.0000
  C   C478      1.0  0.67018  0.17064  0.96529  1.0000
  C   C479      1.0  0.66472  0.21683  0.94173  1.0000
  H   H566      1.0  0.67231  0.14795  0.96461  1.0000
  H   H567      1.0  0.66222  0.23015  0.92297  1.0000
  C   C480      1.0  0.66287  0.13775  0.74400  1.0000
  C   C481      1.0  0.67530  0.11507  0.72960  1.0000
  C   C482      1.0  0.68219  0.11825  0.70092  1.0000
  C   C483      1.0  0.67612  0.14399  0.68620  1.0000
  C   C484      1.0  0.66298  0.16644  0.70052  1.0000
  C   C485      1.0  0.65684  0.16352  0.72935  1.0000
  H   H568      1.0  0.67989  0.09500  0.74075  1.0000
  H   H569      1.0  0.69162  0.10058  0.69010  1.0000
  H   H570      1.0  0.65751  0.18622  0.68936  1.0000
  H   H571      1.0  0.64713  0.18112  0.74015  1.0000
  H   H572      1.0  0.66602  0.24666  0.68120  1.0000
  C   C486      1.0  0.77534  0.26799  0.78432  1.0000
  C   C487      1.0  0.76241  0.24284  0.79185  1.0000
  C   C488      1.0  0.73308  0.24240  0.79471  1.0000
  C   C489      1.0  0.71628  0.26729  0.79050  1.0000
  C   C490      1.0  0.72913  0.29230  0.78191  1.0000
  C   C491      1.0  0.75858  0.29266  0.77871  1.0000
  H   H573      1.0  0.77515  0.22371  0.79637  1.0000
  H   H574      1.0  0.72358  0.22294  0.80098  1.0000
  H   H575      1.0  0.71629  0.31168  0.77861  1.0000
  H   H576      1.0  0.76830  0.31228  0.77336  1.0000
  C   C492      1.0  0.83864  0.17186  0.75970  1.0000
  C   C493      1.0  0.87133  0.44287  0.75045  1.0000
  C   C494      1.0  0.86768  0.41677  0.73952  1.0000
  C   C495      1.0  0.86348  0.41554  0.71132  1.0000
  C   C496      1.0  0.86325  0.44065  0.69422  1.0000
  H   H577      1.0  0.94717  0.41940  0.72244  1.0000
  C   C497      1.0  0.49743  0.22627  0.79491  1.0000
  N   N32       1.0  0.73104  0.24503  0.88074  1.0000
  C   C498      1.0  0.70278  0.24154  0.87097  1.0000
  C   C499      1.0  0.72926  0.24347  0.91148  1.0000
  C   C500      1.0  0.73891  0.27375  0.87075  1.0000
  C   C501      1.0  0.75117  0.22232  0.87097  1.0000
  C   C502      1.0  0.74541  0.19361  0.87676  1.0000
  C   C503      1.0  0.77717  0.22775  0.85639  1.0000
  C   C504      1.0  0.76412  0.17180  0.86789  1.0000
  C   C505      1.0  0.79581  0.20575  0.84775  1.0000
  C   C506      1.0  0.78925  0.17786  0.85335  1.0000
  H   H578      1.0  0.69368  0.22189  0.87988  1.0000
  H   H579      1.0  0.68742  0.25908  0.87673  1.0000
  H   H580      1.0  0.70352  0.24113  0.84802  1.0000
  H   H581      1.0  0.72176  0.22301  0.92046  1.0000
  H   H582      1.0  0.71439  0.26024  0.91984  1.0000
  H   H583      1.0  0.75014  0.24569  0.91974  1.0000
  H   H584      1.0  0.74073  0.27606  0.84762  1.0000
  H   H585      1.0  0.72291  0.29030  0.87757  1.0000
  H   H586      1.0  0.75909  0.27886  0.87886  1.0000
  H   H587      1.0  0.72639  0.18773  0.88834  1.0000
  H   H588      1.0  0.78353  0.24880  0.85081  1.0000
  H   H589      1.0  0.75907  0.15008  0.87245  1.0000
  H   H590      1.0  0.81528  0.21055  0.83623  1.0000
  H   H591      1.0  0.80371  0.16092  0.84645  1.0000
  H   H592      1.0  0.73342  0.17596  0.75938  1.0000
  H   H593      1.0  0.77458  0.11435  0.70780  1.0000
  H   H594      1.0  0.86010  0.43993  0.67235  1.0000
  C   C507      1.0  0.68796  0.24203  0.67516  1.0000
  C   C508      1.0  0.83604  0.14450  0.75222  1.0000
  C   C509      1.0  0.74939  0.29118  0.70460  1.0000
  H   H595      1.0  0.73838  0.11415  0.71852  1.0000
  H   H596      1.0  0.55489  0.16994  0.90107  1.0000
  H   H597      1.0  0.74239  0.14126  0.77449  1.0000
  H   H598      1.0  0.85416  0.12954  0.75241  1.0000
  C   C510      1.0  0.66588  0.22899  0.96735  1.0000
  H   H599      1.0  0.85805  0.20603  0.69776  1.0000
  H   H600      1.0  0.49743  0.23195  0.77291  1.0000
  H   H601      1.0  0.92033  0.41220  0.70009  1.0000
  H   H602      1.0  0.77267  0.19920  0.75049  1.0000
  C   C511      1.0  0.57176  0.15093  0.78079  1.0000
  C   C512      1.0  0.79000  0.18355  0.75043  1.0000
  C   C513      1.0  0.54175  0.19982  0.97565  1.0000
  H   H603      1.0  0.78846  0.23068  0.69255  1.0000
  H   H604      1.0  0.76786  0.24029  0.72326  1.0000
  N   N33       1.0  0.57524  0.18416  0.93573  1.0000
  C   C514      1.0  0.54963  0.17820  0.92188  1.0000
  C   C515      1.0  0.58999  0.20549  0.91772  1.0000
  C   C516      1.0  0.59344  0.15767  0.93743  1.0000
  C   C517      1.0  0.56940  0.19461  0.96375  1.0000
  C   C518      1.0  0.82298  0.16267  0.66023  1.0000
  H   H605      1.0  0.55940  0.15832  0.82317  1.0000
  H   H606      1.0  0.85860  0.17812  0.76584  1.0000
  H   H607      1.0  0.73788  0.28329  0.72395  1.0000
  H   H608      1.0  0.95469  0.41829  0.68571  1.0000
  C   C519      1.0  0.75919  0.11899  0.72539  1.0000
  H   H609      1.0  0.53747  0.16213  0.93418  1.0000
  H   H610      1.0  0.53583  0.19770  0.91800  1.0000
  H   H611      1.0  0.59475  0.19827  0.89650  1.0000
  H   H612      1.0  0.76898  0.16454  0.69066  1.0000
  H   H613      1.0  0.57700  0.22574  0.91563  1.0000
  H   H614      1.0  0.58365  0.14136  0.95168  1.0000
  H   H615      1.0  0.59774  0.14890  0.91672  1.0000
  H   H616      1.0  0.61439  0.16078  0.94495  1.0000
  C   C520      1.0  0.81566  0.19135  0.75878  1.0000
  C   C521      1.0  0.55228  0.15409  0.80311  1.0000
  H   H617      1.0  0.74935  0.18948  0.71171  1.0000
  C   C522      1.0  0.56266  0.14647  0.75479  1.0000
  H   H618      1.0  0.95440  0.37327  0.66338  1.0000
  H   H619      1.0  0.73229  0.16120  0.69920  1.0000
  H   H620      1.0  0.71668  0.14680  0.74905  1.0000
  C   C523      1.0  0.81063  0.13667  0.74318  1.0000
  C   C524      1.0  0.69537  0.22101  0.65698  1.0000
  H   H621      1.0  0.81790  0.21270  0.76443  1.0000
  H   H622      1.0  0.52328  0.19659  0.96486  1.0000
  H   H623      1.0  0.70134  0.27311  0.69952  1.0000
  S   S142      1.0  0.81397  0.12698  0.66137  1.0000
  H   H624      1.0  0.91005  0.36878  0.72684  1.0000
  C   C525      1.0  0.93266  0.36598  0.73123  1.0000
  C   C526      1.0  0.94300  0.40820  0.70383  1.0000
  H   H625      1.0  0.61036  0.20999  0.92564  1.0000
  H   H626      1.0  0.66456  0.25168  0.96803  1.0000
  C   C527      1.0  0.70863  0.25712  0.68555  1.0000
  C   C528      1.0  0.73752  0.25152  0.67774  1.0000
  N   N34       1.0  0.48346  0.14565  0.76896  1.0000
  C   C529      1.0  0.77909  0.24871  0.70407  1.0000
  C   C530      1.0  0.94428  0.36375  0.68267  1.0000
  H   H627      1.0  0.59396  0.15218  0.78358  1.0000
  C   C531      1.0  0.83888  0.17144  0.68114  1.0000
  H   H628      1.0  0.84625  0.15616  0.69693  1.0000
  H   H629      1.0  0.72989  0.99007  0.68309  1.0000
  N   N35       1.0  0.75999  0.26775  0.68728  1.0000
  H   H630      1.0  0.92131  0.36542  0.67952  1.0000
  H   H631      1.0  0.61338  0.19714  0.97223  1.0000
  C   C532      1.0  0.75224  0.16685  0.70755  1.0000
  N   N36       1.0  0.95082  0.37763  0.70782  1.0000
  C   C533      1.0  0.83797  0.21929  0.66009  1.0000
  H   H632      1.0  0.57797  0.14437  0.73744  1.0000
  H   H633      1.0  0.81052  0.11553  0.73651  1.0000
  H   H634      1.0  0.79712  0.25975  0.71051  1.0000
  C   C534      1.0  0.52363  0.15249  0.79967  1.0000
  C   C535      1.0  0.78673  0.15609  0.74203  1.0000
  S   S143      1.0  0.84668  0.25500  0.65899  1.0000
  H   H635      1.0  0.87438  0.44358  0.77233  1.0000
  H   H636      1.0  0.73536  0.30678  0.69303  1.0000
  H   H637      1.0  0.76682  0.30292  0.71139  1.0000
  C   C536      1.0  0.86710  0.46673  0.70513  1.0000
  H   H638      1.0  0.50978  0.15581  0.81777  1.0000
  C   C537      1.0  0.77623  0.28019  0.66290  1.0000
  C   C538      1.0  0.53405  0.14495  0.75106  1.0000
  H   H639      1.0  0.93484  0.37665  0.75062  1.0000
  H   H640      1.0  0.79284  0.29335  0.66909  1.0000
  C   C539      1.0  0.87105  0.46798  0.73337  1.0000
  C   C540      1.0  0.51362  0.14754  0.77348  1.0000
  H   H641      1.0  0.48951  0.11720  0.73572  1.0000
  H   H642      1.0  0.52804  0.14196  0.73038  1.0000
  S   S144      1.0  0.74504  0.09101  0.65644  1.0000
  H   H643      1.0  0.70622  0.99862  0.72892  1.0000
  H   H644      1.0  0.95122  0.34097  0.68430  1.0000
  C   C541      1.0  0.74430  0.22930  0.65988  1.0000
  H   H645      1.0  0.97816  0.35442  0.75510  1.0000
  C   C542      1.0  0.59186  0.20022  0.97997  1.0000
  C   C543      1.0  0.71404  0.97747  0.72431  1.0000
  H   H646      1.0  0.48740  0.10041  0.77006  1.0000
  H   H647      1.0  0.76580  0.22342  0.65345  1.0000
  H   H648      1.0  0.48465  0.16823  0.72856  1.0000
  Fe  Fe73      1.0  0.90516  0.60903  0.21241  1.0000
  S   S145      1.0  0.88956  0.59011  0.25391  1.0000
  S   S146      1.0  0.94931  0.61846  0.19521  1.0000
  Fe  Fe74      1.0  0.84674  0.60869  0.18859  1.0000
  S   S147      1.0  0.82783  0.58828  0.22782  1.0000
  S   S148      1.0  0.82349  0.62866  0.15172  1.0000
  Fe  Fe75      1.0  0.85086  0.61959  0.24905  1.0000
  H   H649      1.0  0.72648  0.72597  0.18300  1.0000
  Fe  Fe76      1.0  0.86786  0.56034  0.22918  1.0000
  S   S149      1.0  0.87484  0.51421  0.24523  1.0000
  S   S150      1.0  0.86834  0.64085  0.20977  1.0000
  S   S151      1.0  0.88498  0.57824  0.18786  1.0000
  Fe  Fe77      1.0  0.66991  0.68865  0.12760  1.0000
  S   S152      1.0  0.69664  0.72148  0.10706  1.0000
  S   S153      1.0  0.69082  0.64771  0.14602  1.0000
  Fe  Fe78      1.0  0.61551  0.72610  0.11951  1.0000
  S   S154      1.0  0.64006  0.76131  0.09860  1.0000
  S   S155      1.0  0.56907  0.73997  0.12859  1.0000
  Fe  Fe79      1.0  0.66414  0.72745  0.07509  1.0000
  S   S156      1.0  0.68317  0.73248  0.03058  1.0000
  Fe  Fe80      1.0  0.67011  0.75177  0.13251  1.0000
  S   S157      1.0  0.69159  0.78501  0.15377  1.0000
  S   S158      1.0  0.63840  0.69247  0.09420  1.0000
  S   S159      1.0  0.64462  0.71870  0.15477  1.0000
  S   S160      1.0  0.69170  0.79693  0.28419  1.0000
  S   S161      1.0  0.76759  0.82702  0.28793  1.0000
  H   H650      1.0  0.63582  0.84097  0.27301  1.0000
  C   C544      1.0  0.53644  0.72520  0.12464  1.0000
  C   C545      1.0  0.53473  0.69788  0.11632  1.0000
  C   C546      1.0  0.51137  0.74150  0.13053  1.0000
  H   H651      1.0  0.55376  0.68503  0.11182  1.0000
  H   H652      1.0  0.51239  0.76266  0.13696  1.0000
  H   H653      1.0  0.97724  0.56332  0.20731  1.0000
  C   C547      1.0  0.59440  0.75904  0.19846  1.0000
  C   C548      1.0  0.82337  0.73518  0.30174  1.0000
  H   H654      1.0  0.63125  0.70922  0.01600  1.0000
  C   C549      1.0  0.74663  0.68434  0.05382  1.0000
  C   C550      1.0  0.69195  0.78745  0.19014  1.0000
  C   C551      1.0  0.70765  0.80789  0.20048  1.0000
  C   C552      1.0  0.70857  0.81040  0.22925  1.0000
  C   C553      1.0  0.69311  0.79298  0.24797  1.0000
  C   C554      1.0  0.67711  0.77280  0.23761  1.0000
  C   C555      1.0  0.67689  0.76973  0.20888  1.0000
  H   H655      1.0  0.71914  0.82188  0.18614  1.0000
  H   H656      1.0  0.72057  0.82633  0.23693  1.0000
  H   H657      1.0  0.66499  0.75934  0.25193  1.0000
  H   H658      1.0  0.66513  0.75365  0.20126  1.0000
  H   H659      1.0  0.58836  0.74648  0.18147  1.0000
  C   C556      1.0  0.86238  0.48307  0.23361  1.0000
  H   H660      1.0  0.76414  0.61041  0.23224  1.0000
  H   H661      1.0  0.71167  0.63487  0.21127  1.0000
  C   C557      1.0  0.71206  0.63364  0.23425  1.0000
  H   H662      1.0  0.94867  0.53598  0.24223  1.0000
  H   H663      1.0  0.68364  0.66134  0.01866  1.0000
  H   H664      1.0  0.69375  0.64016  0.06257  1.0000
  H   H665      1.0  0.84165  0.50307  0.19863  1.0000
  H   H666      1.0  0.74838  0.68671  0.07632  1.0000
  C   C558      1.0  0.78659  0.63324  0.15064  1.0000
  C   C559      1.0  0.77487  0.65785  0.13719  1.0000
  C   C560      1.0  0.74566  0.66267  0.13611  1.0000
  C   C561      1.0  0.72777  0.64233  0.14730  1.0000
  C   C562      1.0  0.73951  0.61720  0.15997  1.0000
  C   C563      1.0  0.76881  0.61272  0.16181  1.0000
  H   H667      1.0  0.78847  0.67332  0.12758  1.0000
  H   H668      1.0  0.73710  0.68210  0.12650  1.0000
  H   H669      1.0  0.72591  0.60116  0.16845  1.0000
  H   H670      1.0  0.77766  0.59333  0.17164  1.0000
  H   H671      1.0  0.70826  0.65949  0.08788  1.0000
  H   H672      1.0  0.77198  0.63310  0.05083  1.0000
  H   H673      1.0  0.57519  0.78940  0.24501  1.0000
  C   C564      1.0  0.60383  0.81515  0.26142  1.0000
  C   C565      1.0  0.73537  0.67703  0.23790  1.0000
  N   N37       1.0  0.82258  0.71666  0.18740  1.0000
  C   C566      1.0  0.81951  0.71336  0.15748  1.0000
  C   C567      1.0  0.85305  0.71547  0.19191  1.0000
  C   C568      1.0  0.81002  0.69238  0.20315  1.0000
  C   C569      1.0  0.80897  0.74327  0.19725  1.0000
  C   C570      1.0  0.81042  0.74957  0.22530  1.0000
  C   C571      1.0  0.79421  0.76359  0.17971  1.0000
  C   C572      1.0  0.79838  0.77476  0.23514  1.0000
  C   C573      1.0  0.78213  0.78872  0.18979  1.0000
  C   C574      1.0  0.78432  0.79435  0.21740  1.0000
  H   H674      1.0  0.82948  0.73036  0.14427  1.0000
  H   H675      1.0  0.82979  0.69298  0.15081  1.0000
  H   H676      1.0  0.79705  0.71326  0.15282  1.0000
  H   H677      1.0  0.86274  0.73471  0.18250  1.0000
  H   H678      1.0  0.86451  0.69700  0.18254  1.0000
  H   H679      1.0  0.85741  0.71359  0.21430  1.0000
  H   H680      1.0  0.78693  0.69380  0.20191  1.0000
  H   H681      1.0  0.81794  0.67197  0.19478  1.0000
  H   H682      1.0  0.81463  0.69095  0.22547  1.0000
  H   H683      1.0  0.82100  0.73502  0.23984  1.0000
  H   H684      1.0  0.79162  0.76067  0.15813  1.0000
  H   H685      1.0  0.80007  0.77913  0.25665  1.0000
  H   H686      1.0  0.77084  0.80388  0.17613  1.0000
  H   H687      1.0  0.77495  0.81386  0.22511  1.0000
  H   H688      1.0  0.96062  0.62678  0.25294  1.0000
  H   H689      1.0  0.57960  0.75399  0.21637  1.0000
  C   C575      1.0  0.73716  0.73553  0.22356  1.0000
  C   C576      1.0  0.48493  0.73066  0.12833  1.0000
  H   H690      1.0  0.73801  0.75780  0.21813  1.0000
  H   H691      1.0  0.74592  0.73955  0.26595  1.0000
  H   H692      1.0  0.73860  0.61439  0.27822  1.0000
  C   C577      1.0  0.74179  0.72510  0.25052  1.0000
  H   H693      1.0  0.76820  0.68452  0.04398  1.0000
  H   H694      1.0  0.55558  0.78875  0.16877  1.0000
  H   H695      1.0  0.75123  0.63317  0.08255  1.0000
  H   H696      1.0  0.80176  0.95931  0.30351  1.0000
  C   C578      1.0  0.56427  0.79984  0.18561  1.0000
  H   H697      1.0  0.56276  0.82281  0.17958  1.0000
  C   C579      1.0  0.73841  0.63768  0.27416  1.0000
  C   C580      1.0  0.76260  0.63385  0.22970  1.0000
  C   C581      1.0  0.74084  0.69630  0.25773  1.0000
  H   H698      1.0  0.74446  0.68972  0.27898  1.0000
  S   S162      1.0  0.78066  0.90427  0.30910  1.0000
  N   N38       1.0  0.73267  0.65848  0.04881  1.0000
  C   C582      1.0  0.74997  0.63355  0.05959  1.0000
  C   C583      1.0  0.73084  0.71747  0.20379  1.0000
  C   C584      1.0  0.70543  0.65908  0.06528  1.0000
  C   C585      1.0  0.72974  0.65721  0.01864  1.0000
  C   C586      1.0  0.59278  0.80218  0.23983  1.0000
  H   H699      1.0  0.78149  0.68005  0.30751  1.0000
  H   H700      1.0  0.86584  0.73313  0.28395  1.0000
  Fe  Fe81      1.0  0.72627  0.81405  0.30733  1.0000
  C   C587      1.0  0.48323  0.70320  0.12040  1.0000
  H   H701      1.0  0.74095  0.61365  0.05480  1.0000
  H   H702      1.0  0.75820  0.64375  0.28248  1.0000
  H   H703      1.0  0.76338  0.63990  0.20720  1.0000
  H   H704      1.0  0.73460  0.70350  0.04529  1.0000
  C   C588      1.0  0.64401  0.71346  0.99715  1.0000
  N   N39       1.0  0.59370  0.78963  0.19013  1.0000
  C   C589      1.0  0.66990  0.72504  0.99851  1.0000
  C   C590      1.0  0.79951  0.69192  0.30133  1.0000
  H   H705      1.0  0.48856  0.72431  0.03638  1.0000
  H   H706      1.0  0.69197  0.67829  0.05956  1.0000
  H   H707      1.0  0.59511  0.81187  0.28250  1.0000
  C   C591      1.0  0.50829  0.68697  0.11429  1.0000
  C   C592      1.0  0.60465  0.80507  0.21225  1.0000
  H   H708      1.0  0.63804  0.82629  0.18729  1.0000
  C   C593      1.0  0.70326  0.65883  0.00657  1.0000
  C   C594      1.0  0.62736  0.82289  0.20743  1.0000
  C   C595      1.0  0.84669  0.69382  0.28076  1.0000
  C   C596      1.0  0.63800  0.83601  0.22913  1.0000
  C   C597      1.0  0.62658  0.83179  0.25611  1.0000
  H   H709      1.0  0.65603  0.84859  0.22521  1.0000
  H   H710      1.0  0.78187  0.64134  0.23778  1.0000
  H   H711      1.0  0.72018  0.64715  0.28647  1.0000
  H   H712      1.0  0.86503  0.68372  0.27049  1.0000
  C   C598      1.0  0.84709  0.72179  0.28844  1.0000
  C   C599      1.0  0.60999  0.79304  0.16312  1.0000
  H   H713      1.0  0.60932  0.81536  0.15474  1.0000
  H   H714      1.0  0.48756  0.68884  0.02609  1.0000
  H   H715      1.0  0.60151  0.78101  0.14699  1.0000
  H   H716      1.0  0.61576  0.75096  0.20415  1.0000
  H   H717      1.0  0.63225  0.78516  0.16490  1.0000
  C   C600      1.0  0.73008  0.68859  0.21072  1.0000
  N   N40       1.0  0.73695  0.64614  0.24414  1.0000
  H   H718      1.0  0.69224  0.64445  0.24251  1.0000
  H   H719      1.0  0.55018  0.79621  0.20443  1.0000
  H   H720      1.0  0.77476  0.65445  0.00775  1.0000
  H   H721      1.0  0.71157  0.61080  0.24066  1.0000
  H   H722      1.0  0.50726  0.66568  0.10821  1.0000
  C   C601      1.0  0.82293  0.67868  0.28749  1.0000
  H   H723      1.0  0.72586  0.67541  0.19439  1.0000
  S   S163      1.0  0.82156  0.64306  0.27986  1.0000
  C   C602      1.0  0.84668  0.48333  0.21018  1.0000
  C   C603      1.0  0.79938  0.72026  0.30771  1.0000
  S   S164      1.0  0.82505  0.76984  0.31214  1.0000
  C   C604      1.0  0.97122  0.53590  0.24386  1.0000
  C   C605      1.0  0.78047  0.96161  0.31238  1.0000
  H   H724      1.0  0.97129  0.50880  0.28104  1.0000
  C   C606      1.0  0.75394  0.65522  0.00019  1.0000
  C   C607      1.0  0.76481  0.93766  0.31729  1.0000
  H   H725      1.0  0.78106  0.73023  0.31810  1.0000
  C   C608      1.0  0.98014  0.62726  0.24047  1.0000
  C   C609      1.0  0.74134  0.88917  0.46131  1.0000
  Fe  Fe82      1.0  0.78617  0.79840  0.32174  1.0000
  C   C610      1.0  0.78936  0.89739  0.44586  1.0000
  H   H726      1.0  0.76388  0.86610  0.39661  1.0000
  S   S165      1.0  0.72124  0.85005  0.33568  1.0000
  H   H727      1.0  0.75283  0.94422  0.38323  1.0000
  Fe  Fe83      1.0  0.74395  0.82077  0.36667  1.0000
  S   S166      1.0  0.72571  0.82070  0.41145  1.0000
  H   H728      1.0  0.73870  0.74583  0.48879  1.0000
  S   S167      1.0  0.78683  0.83304  0.35108  1.0000
  Fe  Fe84      1.0  0.77131  0.80706  0.57325  1.0000
  S   S168      1.0  0.80791  0.82019  0.59548  1.0000
  S   S169      1.0  0.78432  0.80326  0.52705  1.0000
  Fe  Fe85      1.0  0.73568  0.80291  0.62834  1.0000
  Fe  Fe86      1.0  0.77647  0.84943  0.61739  1.0000
  S   S170      1.0  0.79094  0.89304  0.62446  1.0000
  Fe  Fe87      1.0  0.79752  0.78653  0.62853  1.0000
  H   H729      1.0  0.78534  0.87196  0.51334  1.0000
  S   S171      1.0  0.74006  0.83781  0.59416  1.0000
  S   S172      1.0  0.76335  0.77109  0.60519  1.0000
  C   C611      1.0  0.77500  0.92775  0.62026  1.0000
  C   C612      1.0  0.74690  0.93300  0.61401  1.0000
  C   C613      1.0  0.88825  0.72906  0.61222  1.0000
  C   C614      1.0  0.79056  0.95062  0.62554  1.0000
  C   C615      1.0  0.92244  0.68524  0.63834  1.0000
  H   H730      1.0  0.78885  0.73646  0.49711  1.0000
  H   H731      1.0  0.71622  0.91219  0.38605  1.0000
  H   H732      1.0  0.88452  0.70045  0.58056  1.0000
  H   H733      1.0  0.92022  0.62755  0.63419  1.0000
  H   H734      1.0  0.74895  0.95085  0.41938  1.0000
  C   C616      1.0  0.73424  0.96058  0.61447  1.0000
  H   H735      1.0  0.79048  0.89084  0.38950  1.0000
  H   H736      1.0  0.73526  0.87316  0.50389  1.0000
  H   H737      1.0  0.81928  0.66454  0.62104  1.0000
  C   C617      1.0  0.74246  0.81727  0.44340  1.0000
  C   C618      1.0  0.72582  0.81600  0.46841  1.0000
  C   C619      1.0  0.73816  0.81219  0.49425  1.0000
  C   C620      1.0  0.76737  0.80955  0.49533  1.0000
  C   C621      1.0  0.78399  0.81120  0.47030  1.0000
  C   C622      1.0  0.77165  0.81525  0.44450  1.0000
  H   H738      1.0  0.70321  0.81755  0.46781  1.0000
  H   H739      1.0  0.72511  0.81085  0.51328  1.0000
  H   H740      1.0  0.80659  0.80923  0.47092  1.0000
  H   H741      1.0  0.78466  0.81650  0.42551  1.0000
  H   H742      1.0  0.83068  0.77198  0.37061  1.0000
  H   H743      1.0  0.85828  0.73128  0.38999  1.0000
  C   C623      1.0  0.79803  0.88834  0.47225  1.0000
  H   H744      1.0  0.79460  0.77857  0.38138  1.0000
  C   C624      1.0  0.75390  0.74392  0.47137  1.0000
  C   C625      1.0  0.78225  0.73860  0.47598  1.0000
  C   C626      1.0  0.73728  0.94092  0.32860  1.0000
  C   C627      1.0  0.76075  0.89788  0.43948  1.0000
  C   C628      1.0  0.91659  0.71164  0.65025  1.0000
  H   H745      1.0  0.80533  0.90356  0.43032  1.0000
  H   H746      1.0  0.78237  0.93894  0.40381  1.0000
  S   S173      1.0  0.74510  0.78373  0.33996  1.0000
  N   N41       1.0  0.81463  0.74156  0.40159  1.0000
  H   H747      1.0  0.72334  0.75352  0.44088  1.0000
  C   C629      1.0  0.75943  0.93648  0.40419  1.0000
  N   N42       1.0  0.75228  0.90695  0.41115  1.0000
  C   C630      1.0  0.74529  0.74812  0.44438  1.0000
  H   H748      1.0  0.81036  0.71672  0.61895  1.0000
  H   H749      1.0  0.82374  0.73358  0.45883  1.0000
  H   H750      1.0  0.75729  0.75203  0.40149  1.0000
  C   C631      1.0  0.84363  0.73197  0.40879  1.0000
  C   C632      1.0  0.91094  0.68212  0.61246  1.0000
  C   C633      1.0  0.80215  0.73725  0.45362  1.0000
  H   H751      1.0  0.91457  0.66277  0.60207  1.0000
  H   H752      1.0  0.78658  0.73081  0.37094  1.0000
  H   H753      1.0  0.97939  0.63868  0.64445  1.0000
  H   H754      1.0  0.70887  0.91944  0.42155  1.0000
  H   H755      1.0  0.82235  0.72133  0.36295  1.0000
  C   C634      1.0  0.76501  0.74716  0.42189  1.0000
  H   H756      1.0  0.71528  0.88343  0.41158  1.0000
  H   H757      1.0  0.76049  0.89363  0.36946  1.0000
  H   H758      1.0  0.89454  0.75271  0.64711  1.0000
  H   H759      1.0  0.85242  0.74658  0.42248  1.0000
  C   C635      1.0  0.77850  0.87983  0.49311  1.0000
  H   H760      1.0  0.82125  0.78545  0.40396  1.0000
  C   C636      1.0  0.79406  0.74139  0.42576  1.0000
  H   H761      1.0  0.84435  0.71037  0.41915  1.0000
  C   C637      1.0  0.75023  0.88051  0.48771  1.0000
  C   C638      1.0  0.76748  0.88863  0.39088  1.0000
  C   C639      1.0  0.72180  0.90544  0.40761  1.0000
  H   H762      1.0  0.87430  0.74543  0.60290  1.0000
  H   H763      1.0  0.82006  0.88740  0.47651  1.0000
  C   C640      1.0  0.81534  0.77064  0.38884  1.0000
  C   C641      1.0  0.80631  0.72290  0.38058  1.0000
  H   H764      1.0  0.71927  0.88806  0.45841  1.0000
  H   H765      1.0  0.80339  0.70122  0.38986  1.0000
  H   H766      1.0  0.71219  0.96423  0.61071  1.0000
  C   C642      1.0  0.72574  0.96780  0.33522  1.0000
  C   C643      1.0  0.82677  0.67652  0.63695  1.0000
  H   H767      1.0  0.73466  0.91569  0.60980  1.0000
  C   C644      1.0  0.89974  0.73311  0.63724  1.0000
  H   H768      1.0  0.81233  0.94682  0.63038  1.0000
  C   C645      1.0  0.89391  0.70365  0.59980  1.0000
  H   H769      1.0  0.97819  0.67515  0.63182  1.0000
  C   C646      1.0  0.96584  0.65611  0.63464  1.0000
  C   C647      1.0  0.82157  0.70608  0.63578  1.0000
  H   H770      1.0  0.70446  0.97009  0.34407  1.0000
  H   H771      1.0  0.96167  0.64976  0.61370  1.0000
  H   H772      1.0  0.72487  0.92275  0.33211  1.0000
  H   H773      1.0  0.60612  0.77237  0.64763  1.0000
  Fe  Fe88      1.0  0.76429  0.86067  0.31889  1.0000
  Fe  Fe89      1.0  0.62024  0.69380  0.81908  1.0000
  S   S174      1.0  0.62733  0.73392  0.83833  1.0000
  S   S175      1.0  0.57821  0.67944  0.80744  1.0000
  Fe  Fe90      1.0  0.68298  0.67297  0.82169  1.0000
  S   S176      1.0  0.69376  0.71112  0.84254  1.0000
  S   S177      1.0  0.71237  0.63711  0.80653  1.0000
  Fe  Fe91      1.0  0.65307  0.70657  0.86869  1.0000
  S   S178      1.0  0.63752  0.70449  0.91463  1.0000
  Fe  Fe92      1.0  0.66703  0.73447  0.81030  1.0000
  S   S179      1.0  0.68312  0.77228  0.78420  1.0000
  S   S180      1.0  0.64456  0.66631  0.84980  1.0000
  S   S181      1.0  0.65781  0.69641  0.78888  1.0000
  Fe  Fe93      1.0  0.86916  0.60293  0.75778  1.0000
  S   S182      1.0  0.84443  0.57954  0.73029  1.0000
  S   S183      1.0  0.84582  0.62740  0.79202  1.0000
  Fe  Fe94      1.0  0.92524  0.58918  0.72365  1.0000
  S   S184      1.0  0.90245  0.56560  0.69403  1.0000
  C   C648      1.0  0.70136  0.65834  0.97790  1.0000
  Fe  Fe95      1.0  0.86950  0.60184  0.69584  1.0000
  H   H774      1.0  0.82054  0.52410  0.75896  1.0000
  Fe  Fe96      1.0  0.87992  0.54593  0.73192  1.0000
  S   S185      1.0  0.87516  0.50019  0.74867  1.0000
  S   S186      1.0  0.89339  0.62618  0.72330  1.0000
  S   S187      1.0  0.90380  0.56836  0.76162  1.0000
  H   H775      1.0  0.63937  0.82324  0.70556  1.0000
  H   H776      1.0  0.55447  0.72217  0.87478  1.0000
  H   H777      1.0  0.58313  0.68765  0.93693  1.0000
  H   H778      1.0  0.85422  0.71965  0.69325  1.0000
  H   H779      1.0  0.72023  0.71637  0.75099  1.0000
  H   H780      1.0  0.54724  0.69487  0.94895  1.0000
  C   C649      1.0  0.48715  0.64654  0.90955  1.0000
  H   H781      1.0  0.52966  0.63690  0.91901  1.0000
  C   C650      1.0  0.76665  0.58409  0.84712  1.0000
  H   H782      1.0  0.71693  0.86942  0.73220  1.0000
  H   H783      1.0  0.92854  0.67161  0.69403  1.0000
  H   H784      1.0  0.62143  0.79352  0.74410  1.0000
  C   C651      1.0  0.72738  0.97265  0.69855  1.0000
  H   H785      1.0  0.59875  0.69959  0.75392  1.0000
  C   C652      1.0  0.54407  0.69536  0.81443  1.0000
  C   C653      1.0  0.52062  0.67954  0.81238  1.0000
  C   C654      1.0  0.51227  0.73561  0.82531  1.0000
  C   C655      1.0  0.53975  0.72346  0.82109  1.0000
  H   H786      1.0  0.52370  0.65781  0.80712  1.0000
  C   C656      1.0  0.51488  0.65340  0.91154  1.0000
  H   H787      1.0  0.55749  0.73597  0.82271  1.0000
  C   C657      1.0  0.68931  0.77420  0.74757  1.0000
  C   C658      1.0  0.70409  0.79648  0.73473  1.0000
  C   C659      1.0  0.70783  0.79985  0.70562  1.0000
  C   C660      1.0  0.69630  0.78129  0.68896  1.0000
  C   C661      1.0  0.68203  0.75864  0.70181  1.0000
  C   C662      1.0  0.67892  0.75488  0.73095  1.0000
  H   H788      1.0  0.71228  0.81148  0.74740  1.0000
  H   H789      1.0  0.71857  0.81748  0.69598  1.0000
  H   H790      1.0  0.67286  0.74429  0.68912  1.0000
  H   H791      1.0  0.66780  0.73752  0.74049  1.0000
  C   C663      1.0  0.74928  0.63745  0.80093  1.0000
  C   C664      1.0  0.76286  0.61905  0.78229  1.0000
  C   C665      1.0  0.79223  0.61711  0.77832  1.0000
  C   C666      1.0  0.80861  0.63248  0.79392  1.0000
  C   C667      1.0  0.79505  0.65116  0.81248  1.0000
  C   C668      1.0  0.76547  0.65399  0.81568  1.0000
  H   H792      1.0  0.75060  0.60595  0.77101  1.0000
  H   H793      1.0  0.80208  0.60301  0.76378  1.0000
  H   H794      1.0  0.80749  0.66320  0.82470  1.0000
  H   H795      1.0  0.75528  0.66806  0.83034  1.0000
  H   H796      1.0  0.58690  0.74168  0.68555  1.0000
  C   C669      1.0  0.65077  0.71285  0.94647  1.0000
  C   C670      1.0  0.67674  0.72430  0.94784  1.0000
  C   C671      1.0  0.74887  0.62816  0.69904  1.0000
  H   H797      1.0  0.68952  0.72855  0.92901  1.0000
  H   H798      1.0  0.73653  0.86403  0.67439  1.0000
  C   C672      1.0  0.78970  0.57050  0.83332  1.0000
  H   H799      1.0  0.59396  0.67433  0.88780  1.0000
  H   H800      1.0  0.74816  0.84999  0.72053  1.0000
  C   C673      1.0  0.73436  0.92207  0.71193  1.0000
  H   H801      1.0  0.57109  0.64643  0.89450  1.0000
  H   H802      1.0  0.72073  0.66836  0.74962  1.0000
  C   C674      1.0  0.49311  0.69159  0.81701  1.0000
  H   H803      1.0  0.78530  0.51839  0.77001  1.0000
  H   H804      1.0  0.72379  0.65683  0.93817  1.0000
  H   H805      1.0  0.73946  0.73134  0.70242  1.0000
  H   H806      1.0  0.71557  0.54274  0.83197  1.0000
  H   H807      1.0  0.62728  0.71398  0.73304  1.0000
  H   H808      1.0  0.74763  0.94288  0.67220  1.0000
  H   H809      1.0  0.71449  0.62446  0.72955  1.0000
  H   H810      1.0  0.83438  0.56884  0.79307  1.0000
  H   H811      1.0  0.50912  0.75746  0.83015  1.0000
  C   C675      1.0  0.74001  0.57423  0.84642  1.0000
  C   C676      1.0  0.52350  0.68085  0.90355  1.0000
  C   C677      1.0  0.77544  0.89278  0.69764  1.0000
  H   H812      1.0  0.74365  0.69801  0.77501  1.0000
  H   H813      1.0  0.90290  0.64001  0.66505  1.0000
  H   H814      1.0  0.82091  0.50228  0.83507  1.0000
  C   C678      1.0  0.62359  0.79984  0.67428  1.0000
  H   H815      1.0  0.79532  0.72411  0.75441  1.0000
  H   H816      1.0  0.79723  0.49018  0.81177  1.0000
  H   H817      1.0  0.71727  0.91136  0.75425  1.0000
  H   H818      1.0  0.70728  0.88795  0.68350  1.0000
  N   N43       1.0  0.74475  0.89342  0.70448  1.0000
  C   C679      1.0  0.83672  0.54676  0.80197  1.0000
  C   C680      1.0  0.81556  0.50303  0.81298  1.0000
  C   C681      1.0  0.73491  0.66293  0.73230  1.0000
  H   H819      1.0  0.59554  0.70666  0.71785  1.0000
  H   H820      1.0  0.78391  0.87178  0.69098  1.0000
  C   C682      1.0  0.73106  0.63740  0.72090  1.0000
  H   H821      1.0  0.85393  0.53606  0.78934  1.0000
  C   C683      1.0  0.56118  0.68211  0.93468  1.0000
  N   N44       1.0  0.81009  0.53250  0.80183  1.0000
  H   H822      1.0  0.73610  0.89948  0.66112  1.0000
  H   H823      1.0  0.75043  0.87502  0.74590  1.0000
  C   C684      1.0  0.68621  0.73034  0.97372  1.0000
  C   C685      1.0  0.78661  0.54638  0.81828  1.0000
  C   C686      1.0  0.57163  0.66911  0.88775  1.0000
  C   C687      1.0  0.75933  0.53629  0.81889  1.0000
  H   H824      1.0  0.72205  0.58566  0.85609  1.0000
  C   C688      1.0  0.48879  0.71979  0.82328  1.0000
  H   H825      1.0  0.76926  0.60316  0.85740  1.0000
  H   H826      1.0  0.79596  0.55371  0.76408  1.0000
  S   S188      1.0  0.97112  0.59146  0.70740  1.0000
  C   C689      1.0  0.73050  0.88594  0.67990  1.0000
  H   H827      1.0  0.61449  0.69852  0.97068  1.0000
  H   H828      1.0  0.95960  0.64898  0.68995  1.0000
  H   H829      1.0  0.74610  0.60818  0.69051  1.0000
  S   S189      1.0  0.76966  0.81695  0.65275  1.0000
  C   C690      1.0  0.62731  0.80568  0.70154  1.0000
  H   H830      1.0  0.68096  0.66026  0.96909  1.0000
  H   H831      1.0  0.80947  0.58005  0.83389  1.0000
  C   C691      1.0  0.63454  0.70745  0.97131  1.0000
  C   C692      1.0  0.83165  0.72181  0.65598  1.0000
  C   C693      1.0  0.71074  0.95507  0.74404  1.0000
  H   H832      1.0  0.58102  0.72135  0.89894  1.0000
  N   N45       1.0  0.59257  0.74395  0.74148  1.0000
  C   C694      1.0  0.60110  0.75045  0.76920  1.0000
  C   C695      1.0  0.56151  0.74447  0.74272  1.0000
  C   C696      1.0  0.60404  0.71491  0.73628  1.0000
  C   C697      1.0  0.60250  0.76395  0.71881  1.0000
  C   C698      1.0  0.61692  0.78815  0.72360  1.0000
  C   C699      1.0  0.59814  0.75929  0.69079  1.0000
  C   C700      1.0  0.84628  0.70769  0.67758  1.0000
  C   C701      1.0  0.60880  0.77687  0.66892  1.0000
  H   H833      1.0  0.70033  0.95897  0.76407  1.0000
  H   H834      1.0  0.59151  0.77111  0.77554  1.0000
  H   H835      1.0  0.59428  0.73447  0.78558  1.0000
  H   H836      1.0  0.62432  0.75063  0.76972  1.0000
  H   H837      1.0  0.55197  0.76594  0.74646  1.0000
  H   H838      1.0  0.55332  0.72972  0.75973  1.0000
  H   H839      1.0  0.55341  0.73807  0.72323  1.0000
  H   H840      1.0  0.86197  0.66794  0.69594  1.0000
  C   C702      1.0  0.77425  0.67024  0.69934  1.0000
  H   H841      1.0  0.80742  0.70217  0.72722  1.0000
  H   H842      1.0  0.79119  0.68225  0.69025  1.0000
  H   H843      1.0  0.77669  0.72830  0.69504  1.0000
  C   C703      1.0  0.74222  0.71419  0.75736  1.0000
  H   H844      1.0  0.83342  0.49221  0.80108  1.0000
  H   H845      1.0  0.78445  0.63733  0.67136  1.0000
  C   C704      1.0  0.85101  0.67823  0.67898  1.0000
  C   C705      1.0  0.79086  0.70486  0.74414  1.0000
  C   C706      1.0  0.73975  0.87113  0.72687  1.0000
  C   C707      1.0  0.75686  0.68010  0.72190  1.0000
  H   H846      1.0  0.79371  0.68647  0.75942  1.0000
  N   N46       1.0  0.76219  0.70690  0.73380  1.0000
  C   C708      1.0  0.76008  0.73036  0.71205  1.0000
  C   C709      1.0  0.73639  0.55020  0.83259  1.0000
  H   H847      1.0  0.74634  0.73467  0.76560  1.0000
  H   H848      1.0  0.78112  0.90807  0.68019  1.0000
  H   H849      1.0  0.76225  0.75117  0.72052  1.0000
  H   H850      1.0  0.50711  0.72217  0.88619  1.0000
  C   C710      1.0  0.50260  0.70095  0.89342  1.0000
  C   C711      1.0  0.55863  0.71710  0.89693  1.0000
  H   H851      1.0  0.56546  0.67153  0.86589  1.0000
  C   C712      1.0  0.72551  0.65652  0.96042  1.0000
  C   C713      1.0  0.80259  0.53219  0.77255  1.0000
  H   H852      1.0  0.56044  0.65962  0.94212  1.0000
  H   H853      1.0  0.54584  0.73216  0.90988  1.0000
  N   N47       1.0  0.55309  0.68741  0.90561  1.0000
  H   H854      1.0  0.84429  0.54683  0.82321  1.0000
  H   H855      1.0  0.86678  0.48584  0.69172  1.0000
  H   H856      1.0  0.75542  0.51793  0.80818  1.0000
  C   C714      1.0  0.75177  0.65488  0.97153  1.0000
  H   H857      1.0  0.78702  0.89797  0.71566  1.0000
  C   C715      1.0  0.77041  0.64458  0.68826  1.0000
  H   H858      1.0  0.70634  0.73919  0.97453  1.0000
  C   C716      1.0  0.73745  0.94545  0.69245  1.0000
  C   C717      1.0  0.72067  0.92770  0.73808  1.0000
  H   H859      1.0  0.77053  0.65378  0.95781  1.0000
  H   H860      1.0  0.92417  0.71610  0.66990  1.0000
  C   C718      1.0  0.94746  0.66734  0.68002  1.0000
  S   S190      1.0  0.84804  0.62519  0.65941  1.0000
  C   C719      1.0  0.84163  0.66242  0.65852  1.0000
  H   H861      1.0  0.93502  0.61828  0.66650  1.0000
  H   H862      1.0  0.63276  0.81280  0.65726  1.0000
  H   H863      1.0  0.96113  0.68533  0.67957  1.0000
  S   S191      1.0  0.82797  0.75909  0.65464  1.0000
  C   C720      1.0  0.92383  0.63584  0.65444  1.0000
  S   S192      1.0  0.69659  0.78770  0.65240  1.0000
  H   H864      1.0  0.48113  0.62535  0.91540  1.0000
  N   N48       1.0  0.93959  0.66171  0.65179  1.0000
