data_image0
_chemical_formula_structural       H2CFeS2HC3HSCFeCSFeS2FeS2FeSFeS2FeC6H4C6H4C6H4CHFeH2C2HCH3C2FeHCFeH2CHNC9H12SCNCHC2HCHSHS2HCH2NCH4CH3CHC2HSHNC4H3CSH4CH4CH3CH2C2HCS2HFeHCHCH2CHCHC2HSCH2FeHCH2SFeHSHC2HSCH2CH3SH2CH2CHFeHSCSFeSCFeS2FeSFeS3HSCFeH2CFeSCSFeS2FeS2FeSFeS3HSC2HSFeSFeSHSHC2H2C8H4C2H2C2HNCHC7H3NC6H4C6H4C4HCH2CH2C2H2NC6H6SH4NC4SCHCHCH2NH2CH2C2H2CNC6H14C2H4CH3CH2C4SH2CH2CHCH4CH3CH2CHC5HFeCHCHC2H4C2H6C2HFeHNCHCHC2H2CNHSNH2CHSCHCHCH3CH2CHFeH3CHCSCH5FeH4FeSFeSCHFeS2FeSFeSFeCS2HC2H2C2SHSC7H4C2SC6HCH3C2SC2H2FeH2SH2C2H2NHCH2C4NHCH2NH5C6H2CH7CH3CHCHCHSCH2C2H4CH3C2H2C3H7FeS2FeS2FeSFeS3CSFeHSCHCH2C2SFeS2FeSCFeSFeS3H2C6H3CH3C10H4C6H4C2H2C2H5C4HCH4C3HCH5CHNHNCHC5H5CHC2H2C2HNCH2C2HC4HNCHCHCH2SN2C9H14C2HCFeCSCHCH7SC3H7SCHCHCHCH3CH7C2HSH3CH2C3FeCHFeHCHCNHNSCHCHC3H3SC2HC2HC2HSH4C2H3FeSHFeS2FeSFeCS2HS3CFeSH2CH5CS2FeSFeS2FeS2FeSFeS3C6H5CH2C6H4C6H4C3HFeSFeC7H4C7H2CSCH2CH2CH3FeHC2H3CHCH3CNHCHC2HSNH2CNC9H12C3HSH2C2H3CHCHCSHCH6CHNC9H15CHSCHNHS2CH2CHSH4CH3SH2CHCHCHNH2CHC3H2C3H4CH3CH2CH4FeHC2SHFeS2FeS2FeSFeS5FeSFeHS4FeSH2CS2FeSH2CH2S3CNHFeCSHSHC6H4CH2FeSH2CH2C2SC5H2CH3C2HC4NH5S2C6H4C6H4C6H4CHCHCH2CH2CSH2CNC9H15CH3C2FeH5CHCHCH3CHCHC3HCHCH2NHCFeCHCHNSHCFeCSFeCH2CHC2HSCH4FeHCN2HCH2C4H3CHCHSCHC3H2SC3H3CFeHCH2CH3FeCH2CHCSCH2CH2CHCH4FeH4CHNH2NH3Fe2S2FeSFeS3FeSCSFeS2FeS2FeSFeS3H2SHNHC2HFeS2FeS2FeSFeS3C2HSHC3H2CNHC4HC8H4C4H4C6H7C5H4CH3C6H4C6H4C2HCFeCH3C4H4NC9H18C2NHCHC7FeCH11CHCH4C2HC3SCH2C2H3C2SCNC3SNC3HCH2CHCHCSC2HNC2HSCHCHCFeCH8CHFeH5CHCFeC2H3C2H4FeCHCHC2H3CH2SCH2C3HSHCHCHNSHCH4SNH2C2HC2H4NH3CHCH3CHCHFeCH3CNC2H5C3H2CH3CHCSCHC2H3SH2C2HSC2FeCH2SNC4H9C2H2SCSFeHC2HCHCSCH3SHC2H2C2HC2H4CH3SC3NCFeHC3HC2HC2H2SHCH4C2HC2H3SC3H4CHCHSC2HC3NH4CHFeHC2HC2H4C2HC2H5C2HCSHFeC3HC2H3FeH2S2C2H5CHCFeCFeHCH2C2H2SCHSH2CH5NHFeHCSHCHNHFeSHCH2CHC2HNH3C2HC2SHCHCSC3SH5SHFeSFeSFeS2H3CH2CSC2H4C2NHCSHCH2C4HCSHCFeHCHCH2CHFe2CHCH2CHCNCSCH4SHCH4SC2HC2H2CHNC2HCHC2HC3SFe2HCH2CHCH3SCSC2H3SC4H2CHCH2C2HC2H5FeCSHCHNCHC2SC2HCH2NH6C3HC6HSHCH2CHSCHCH3CHCHCFeSCS2CSH2SNC2SH3FeH2SH3CH2FeS2FeSFeHFeS6FeS2FeS2FeSFeS3C6H4SCHC6H4SFeH3C2HCH3SHCFeC4H4C8H8C3H5CHCHCHC2SHC4HNC3HFeHCH2NCH2CSFeCHCHCH4CHCHCHCHCH8NC9H13CNC9H4NH2CH6NC6HNCH4C2H2C6H2CHC4H4C3H4SCH2CHCHC2H5C2H3CH2CHCSH2C3H2CH2CHC2HCHC2H2CHSCSH3FeS2FeS2FeSFeS3CS2HFeS2FeS2FeSFeS3HFeH3CH2FeHSHSFeCH2FeH2SNHCH2C2NHC2HCHCNFeHC7H2CHC2HC3H4C2H3C5HCHC6H4CNH2SC6H5NC9H13SC2H2CH2C2SHCH2C4H3C3H2C2SC5HC3HCH4CHCSNC6H12CH4CH4CSFeHC4H2C3H4CHC2H4SH2CNHSHCHSCH3CFeSC3H4CH3C2HC2HCH2CHC2H2C5H4CHC3HCHCFeH3NC2H4C4HSC2HCHCHCFeS2FeHSH2FeHS2FeSCFeSFe2SFeS3FeSFeS2FeSFeS3H2SNSC2HCHC2HFeC4HSC2HCHSH3C2H2CHCH2C5H2C6H4C6H4SH2C3HSH2NHNC9H15CH2SCHCHCNCH3C2H4SCHCHCHCH2C2SHCHCH3CH2CH3CHCH2CH4NC3HCH2CH5FeHCHCNCHC2SCH2C3H3CH3CH2C2HSHC3H7SHC2SC2SHC4H2CH2C2HCFeCH5CH2CHSHC2HSH4CH2C3SCNFeS2FeS2FeSFeS3CHS2C2SHFeS2Fe2SFeCS2H2CH3CSH2C4H4C6H4C2HCH3CHC7H3C5H7CH3C3HCHC3HC2SCH2NCH3SHCH2C2H3C3NH2CNCHCHC7HCHCH5FeH6NH2C2H3SHCH3CHSH4CHCNCHC3H2CHCHC3H2CH4CH4CHCHC2HNHCSC2FeH3C2H2C3HCHSFeS2FeSFeS2CH2C6H4CHNH2C2HC3H3C2HCH2SCH2C2H5FeNHFeH3C2FeC2HC2HC3H4C2HC2HC2HCHCH2C2H3SH2SHFeHCSHCH3CSHSH2FeCHCH3SHCH2FeHCHCH3NCNH2SHC4HCSHNHC2HCH2CH2CFeS2FeS3FeS2FeS2FeSFeS3FeS2FeS2FeHFeS3H4C2HSH3C2H2C3H2FeSFeS2FeSFeS3H2C3H4SC2H4C2HNC11H3C3H2CH2CH5C7H2CHC6H4CH3C6H5CH2C2FeCH2C4NCHCH2CH2FeCH5CHC2SHCHSH3C2HCH5CNC2HCHNCHNH2C2HC3HNH8CNC9H15C2HC2H3CHC2H2CH2CH2CHC2H4C2H2CH2CHCH2C2HCH5C2HSH2CHCSHC3H2CSHFeHCHCH2C2FeS2FeS2FeSFeS3HFeS2FeHS2FeSHCSCFeCFeSHSH2C3HCHC3H3C2HCFeH2C2NCH2C6H4C6H4C6H4CH2C4HS2H3FeCHNHCH5CHSCHNCH2CH2CH3C3NC7HCH10NHC2HCHC2FeH2C2SHC2H4CH3CH2CSCH6NC9H17C2NHCHCH2CHCH2SH2C2H2CSH2CH3FeSFeCHC4H2SC2HCFeSFeS2FeS2FeSFeS3HCHSFeS2FeS2FeSFeS3C4H3SFeC7H3C6H2C5H6C6H5C6H4CHC4H3NC6H7CHCH3C2H3C2H2NCH2CH2CH2C2H2CH2CHCH2C2HNSFeHCNC8HCH10CHCH5NC6H14C2H2CHC3H5CSCHC3H4C3H2C2HC2H3CH4NSH3C3SCHCHCH3CH3CHC4HCHCNH2C2HFeCSHCHS2FeSFeSFeS2FeSFeS2HFeSFeS2FeSHFeHFeS3HFeS2FeS2FeHFeCS2C3H2SHC2H2SH2CH2C2HC4SH3SHSH3C3NC2H2C2H3SHC2HCH4C6H4C4H3C7H3CNHNHSC6H6NC9H2CH10CH2CH4CHNC9H12CHFeH2CFeH2C2H2C2HSNH5CFeC6H3CHC5H3C2HNH5CH2C3H3C2H3C2H2CH5SHSC2H2NC2H3CH5C4HCHC5H3CH6CSC3H2NHCH7C2HCH4C4SHFeCS2H3CHSC3SHSFeH3NHCH2SC2FeCHC2S2NC2HCHCHFeHFeC2HCHC7H4CS2C3HCHC2HSCH2CHCHSFeHC3HCHSCH2C4SHC2H2SH2CHCH2CH2C2HCHCH3FeCHFeHC2H4NSNHCSH2CHCSCSH4CH2CH2C2HCHCHFeHFeC2H5NH5SCHC3HCFeC2FeS2CHSHFeSH2FeS2FeH2FeSFeCS3CSCFeHFeHCSHFeS2FeS2FeHFeS3FeSCFeSFe2SFeCS2CHC2H6C2HCH2CHCHCH2C6H4C2H2C2HCSH4CHC3H2C6H4C6H6C3FeH3CH4CHCH3N2H2CH3CHCNHCHCHC2HC2SH3C4SHCHSCHCH4C3H2CH2C2HC3HNC8H9NCH3SCHCH3SH2C2H4C2SCH2C3H2CH2NCHCNCSCHCHCHCHSC3HC2SHCSHC3H3CHCH2C4HCH2CHFeS2FeS2Fe2S3HFeS2NHSC3FeSCHC2FeSH3FeS2H2SFeC6H5CHCHFeSCHCHFeHS2HC6H2CHC4H3CH2C2H4C2FeC2HC3H2CSH2CHC3HC2HC4HC2NCH2CH4CHFeHCHSH3CH2C2H4C5H2CSHFeH2SHCH2NHCHC4HCHNHC3H3C2HSFeH3CNHSH3C3H2CSCSCHCH2CH3CSCH8NC7H3CHCH3NHC2HCHCH5C3SHC2H4CSH3C
_chemical_formula_sum              "H2592 C2160 Fe288 S576 N144"
_cell_length_a       64.2848
_cell_length_b       64.9079
_cell_length_c       97.9202
_cell_angle_alpha    76.81
_cell_angle_beta     77.3555
_cell_angle_gamma    101.75

_space_group_name_H-M_alt    "P 1"
_space_group_IT_number       1

loop_
  _space_group_symop_operation_xyz
  'x, y, z'

loop_
  _atom_site_type_symbol
  _atom_site_label
  _atom_site_symmetry_multiplicity
  _atom_site_fract_x
  _atom_site_fract_y
  _atom_site_fract_z
  _atom_site_occupancy
  H   H1        1.0  0.24529  0.24528  0.05849  1.0000
  H   H2        1.0  0.10253  0.15102  0.00919  1.0000
  C   C1        1.0  0.26494  0.28133  0.02441  1.0000
  Fe  Fe1       1.0  0.03361  0.07069  0.11515  1.0000
  S   S1        1.0  0.03572  0.04994  0.13633  1.0000
  S   S2        1.0  0.06707  0.08896  0.09942  1.0000
  H   H3        1.0  0.10655  0.15270  0.04616  1.0000
  C   C2        1.0  0.35544  0.19944  0.03645  1.0000
  C   C3        1.0  0.15876  0.15152  0.22762  1.0000
  C   C4        1.0  0.05250  0.09617  0.03573  1.0000
  H   H4        1.0  0.23723  0.18411  0.22570  1.0000
  S   S3        1.0  0.41846  0.31983  0.20984  1.0000
  C   C5        1.0  0.49300  0.30703  0.20588  1.0000
  Fe  Fe2       1.0  0.06965  0.08515  0.22165  1.0000
  C   C6        1.0  0.15541  0.16767  0.23442  1.0000
  S   S4        1.0  0.07997  0.08626  0.19778  1.0000
  Fe  Fe3       1.0  0.16351  0.24546  0.02648  1.0000
  S   S5        1.0  0.18833  0.22759  0.01915  1.0000
  S   S6        1.0  0.17138  0.28230  0.01748  1.0000
  Fe  Fe4       1.0  0.13135  0.20406  0.04888  1.0000
  S   S7        1.0  0.15385  0.18319  0.04343  1.0000
  S   S8        1.0  0.09726  0.19029  0.06503  1.0000
  Fe  Fe5       1.0  0.18126  0.21093  0.04301  1.0000
  S   S9        1.0  0.20575  0.20258  0.05508  1.0000
  Fe  Fe6       1.0  0.15859  0.20156  0.02021  1.0000
  S   S10       1.0  0.15846  0.23062  0.05047  1.0000
  S   S11       1.0  0.13420  0.22079  0.02548  1.0000
  Fe  Fe7       1.0  0.32122  0.24470  0.00203  1.0000
  C   C7        1.0  0.23296  0.20573  0.04490  1.0000
  C   C8        1.0  0.24136  0.21825  0.03022  1.0000
  C   C9        1.0  0.26364  0.22130  0.02276  1.0000
  C   C10       1.0  0.27735  0.21151  0.02992  1.0000
  C   C11       1.0  0.26876  0.19874  0.04447  1.0000
  C   C12       1.0  0.24675  0.19608  0.05197  1.0000
  H   H5        1.0  0.23092  0.22604  0.02477  1.0000
  H   H6        1.0  0.08660  0.18711  0.03091  1.0000
  H   H7        1.0  0.27921  0.19105  0.05004  1.0000
  H   H8        1.0  0.24034  0.18643  0.06330  1.0000
  C   C13       1.0  0.07491  0.11729  0.09048  1.0000
  C   C14       1.0  0.05985  0.13010  0.09117  1.0000
  C   C15       1.0  0.06691  0.15260  0.08350  1.0000
  C   C16       1.0  0.08899  0.16232  0.07512  1.0000
  C   C17       1.0  0.10399  0.14949  0.07469  1.0000
  C   C18       1.0  0.09696  0.12707  0.08227  1.0000
  H   H9        1.0  0.04275  0.12264  0.09741  1.0000
  H   H10       1.0  0.05521  0.16246  0.08391  1.0000
  H   H11       1.0  0.12110  0.15682  0.06866  1.0000
  H   H12       1.0  0.10871  0.11728  0.08177  1.0000
  C   C19       1.0  0.05823  0.08177  0.18954  1.0000
  C   C20       1.0  0.06051  0.07234  0.17792  1.0000
  C   C21       1.0  0.04348  0.06898  0.17107  1.0000
  C   C22       1.0  0.02428  0.07550  0.17559  1.0000
  C   C23       1.0  0.02203  0.08494  0.18719  1.0000
  C   C24       1.0  0.03886  0.08793  0.19421  1.0000
  H   H13       1.0  0.07538  0.06738  0.17433  1.0000
  H   H14       1.0  0.04515  0.06118  0.16242  1.0000
  H   H15       1.0  0.46475  0.31250  0.21868  1.0000
  H   H16       1.0  0.03702  0.09539  0.20307  1.0000
  C   C25       1.0  0.34969  0.23281  0.04108  1.0000
  H   H17       1.0  0.49935  0.27113  0.11891  1.0000
  Fe  Fe8       1.0  0.49421  0.27451  0.05025  1.0000
  H   H18       1.0  0.38824  0.19309  0.04581  1.0000
  H   H19       1.0  0.07371  0.16687  0.04792  1.0000
  C   C26       1.0  0.01414  0.02374  0.20134  1.0000
  C   C27       1.0  0.41605  0.30959  0.01616  1.0000
  H   H20       1.0  0.10405  0.17851  0.00951  1.0000
  C   C28       1.0  0.43731  0.30787  0.01684  1.0000
  H   H21       1.0  0.28087  0.28932  0.01656  1.0000
  H   H22       1.0  0.07220  0.13181  0.05953  1.0000
  H   H23       1.0  0.06976  0.12310  0.01711  1.0000
  C   C29       1.0  0.40527  0.29965  0.00726  1.0000
  C   C30       1.0  0.26593  0.31040  0.99738  1.0000
  Fe  Fe9       1.0  0.49134  0.30895  0.06656  1.0000
  H   H24       1.0  0.07803  0.16119  0.01033  1.0000
  C   C31       1.0  0.43711  0.28658  0.99928  1.0000
  Fe  Fe10      1.0  0.01029  0.02368  0.13307  1.0000
  H   H25       1.0  0.06010  0.16842  0.03371  1.0000
  H   H26       1.0  0.20987  0.24986  0.05424  1.0000
  C   C32       1.0  0.15670  0.19570  0.98739  1.0000
  H   H27       1.0  0.35781  0.22993  0.01324  1.0000
  N   N1        1.0  0.07820  0.12175  0.13337  1.0000
  C   C33       1.0  0.05513  0.11500  0.13250  1.0000
  C   C34       1.0  0.08718  0.10230  0.13391  1.0000
  C   C35       1.0  0.07772  0.12750  0.14722  1.0000
  C   C36       1.0  0.09139  0.14114  0.12093  1.0000
  C   C37       1.0  0.08373  0.16027  0.11788  1.0000
  C   C38       1.0  0.11242  0.14206  0.11194  1.0000
  C   C39       1.0  0.09600  0.17885  0.10632  1.0000
  C   C40       1.0  0.12472  0.16089  0.10057  1.0000
  C   C41       1.0  0.11646  0.17916  0.09770  1.0000
  H   H28       1.0  0.04594  0.12748  0.13378  1.0000
  H   H29       1.0  0.05491  0.11177  0.12184  1.0000
  H   H30       1.0  0.04520  0.09975  0.14129  1.0000
  H   H31       1.0  0.10379  0.10531  0.13588  1.0000
  H   H32       1.0  0.08821  0.09743  0.12361  1.0000
  H   H33       1.0  0.07650  0.08774  0.14297  1.0000
  H   H34       1.0  0.06800  0.11341  0.15692  1.0000
  H   H35       1.0  0.09472  0.13258  0.14838  1.0000
  H   H36       1.0  0.07001  0.14121  0.14794  1.0000
  H   H37       1.0  0.06814  0.16103  0.12435  1.0000
  H   H38       1.0  0.11966  0.12839  0.11328  1.0000
  H   H39       1.0  0.08951  0.19300  0.10382  1.0000
  S   S12       1.0  0.48490  0.30995  0.09000  1.0000
  C   C42       1.0  0.02611  0.00858  0.20454  1.0000
  N   N2        1.0  0.08762  0.15421  0.03037  1.0000
  C   C43       1.0  0.07648  0.16975  0.03595  1.0000
  H   H40       1.0  0.23171  0.32605  0.99993  1.0000
  C   C44       1.0  0.09312  0.16139  0.01416  1.0000
  C   C45       1.0  0.07338  0.13147  0.03714  1.0000
  H   H41       1.0  0.23128  0.29369  0.98939  1.0000
  C   C46       1.0  0.06698  0.12236  0.05254  1.0000
  H   H42       1.0  0.42170  0.20157  0.05346  1.0000
  S   S13       1.0  0.01043  0.04332  0.11095  1.0000
  H   H43       1.0  0.14050  0.16113  0.09363  1.0000
  S   S14       1.0  0.46637  0.28756  0.05938  1.0000
  S   S15       1.0  0.45052  0.32156  0.02777  1.0000
  H   H44       1.0  0.34009  0.19706  0.03275  1.0000
  C   C47       1.0  0.21385  0.20852  0.99124  1.0000
  H   H45       1.0  0.38563  0.22769  0.01169  1.0000
  H   H46       1.0  0.33391  0.22904  0.03801  1.0000
  N   N3        1.0  0.24385  0.29813  0.00756  1.0000
  C   C48       1.0  0.23033  0.19521  0.23141  1.0000
  H   H47       1.0  0.21078  0.15164  0.22924  1.0000
  H   H48       1.0  0.28051  0.26507  0.03945  1.0000
  H   H49       1.0  0.04684  0.08589  0.02925  1.0000
  H   H50       1.0  0.37832  0.25162  0.01487  1.0000
  C   C49       1.0  0.37225  0.23349  0.01771  1.0000
  H   H51       1.0  0.36639  0.19135  0.03033  1.0000
  H   H52       1.0  0.47745  0.19383  0.07037  1.0000
  H   H53       1.0  0.36951  0.32785  0.98890  1.0000
  C   C50       1.0  0.24526  0.25647  0.04842  1.0000
  H   H54       1.0  0.35534  0.25101  0.03810  1.0000
  C   C51       1.0  0.18203  0.29266  0.99837  1.0000
  C   C52       1.0  0.17882  0.14601  0.22578  1.0000
  H   H55       1.0  0.22197  0.21559  0.99869  1.0000
  S   S16       1.0  0.30527  0.21475  0.02111  1.0000
  H   H56       1.0  0.34572  0.22639  0.05316  1.0000
  N   N4        1.0  0.36630  0.22310  0.03366  1.0000
  C   C53       1.0  0.42553  0.23629  0.04788  1.0000
  C   C54       1.0  0.39788  0.24898  0.03760  1.0000
  C   C55       1.0  0.41484  0.21474  0.04909  1.0000
  C   C56       1.0  0.44763  0.29596  0.00852  1.0000
  H   H57       1.0  0.20891  0.27347  0.03128  1.0000
  H   H58       1.0  0.46396  0.29448  0.00890  1.0000
  H   H59       1.0  0.06886  0.02154  0.23362  1.0000
  C   C57       1.0  0.38643  0.22721  0.03876  1.0000
  S   S17       1.0  0.32216  0.32313  0.99733  1.0000
  H   H60       1.0  0.35038  0.19058  0.04830  1.0000
  H   H61       1.0  0.27008  0.23101  0.01149  1.0000
  H   H62       1.0  0.19170  0.32633  0.99865  1.0000
  H   H63       1.0  0.23927  0.32457  0.01671  1.0000
  C   C58       1.0  0.39556  0.21012  0.04463  1.0000
  H   H64       1.0  0.22656  0.20778  0.22317  1.0000
  H   H65       1.0  0.48310  0.29452  0.20252  1.0000
  H   H66       1.0  0.18133  0.13342  0.22046  1.0000
  H   H67       1.0  0.04959  0.09425  0.07108  1.0000
  C   C59       1.0  0.22527  0.25904  0.04599  1.0000
  H   H68       1.0  0.42550  0.27015  0.04120  1.0000
  H   H69       1.0  0.04089  0.01329  0.20794  1.0000
  H   H70       1.0  0.17445  0.26105  0.99450  1.0000
  C   C60       1.0  0.05394  0.10083  0.05928  1.0000
  H   H71       1.0  0.44053  0.23982  0.05128  1.0000
  H   H72       1.0  0.12567  0.19341  0.08852  1.0000
  C   C61       1.0  0.23221  0.28402  0.00011  1.0000
  C   C62       1.0  0.22493  0.27256  0.03276  1.0000
  H   H73       1.0  0.38888  0.30097  0.00698  1.0000
  C   C63       1.0  0.41703  0.25336  0.04219  1.0000
  S   S18       1.0  0.15663  0.18094  0.00475  1.0000
  S   S19       1.0  0.34327  0.27255  0.00627  1.0000
  H   H74       1.0  0.39227  0.26287  0.03296  1.0000
  Fe  Fe11      1.0  0.47806  0.31343  0.03774  1.0000
  H   H75       1.0  0.01965  0.04008  0.20241  1.0000
  C   C64       1.0  0.41595  0.28849  0.99851  1.0000
  H   H76       1.0  0.49035  0.31586  0.11714  1.0000
  C   C65       1.0  0.24478  0.28425  0.02158  1.0000
  H   H77       1.0  0.21493  0.27540  0.00668  1.0000
  H   H78       1.0  0.00644  0.07124  0.22434  1.0000
  C   C66       1.0  0.04667  0.08776  0.05089  1.0000
  H   H79       1.0  0.21405  0.30695  0.01645  1.0000
  C   C67       1.0  0.23171  0.31459  0.01030  1.0000
  H   H80       1.0  0.14561  0.14312  0.22392  1.0000
  C   C68       1.0  0.10879  0.15603  0.03424  1.0000
  C   C69       1.0  0.26503  0.26754  0.03765  1.0000
  H   H81       1.0  0.24059  0.27111  0.99825  1.0000
  S   S20       1.0  0.04023  0.05759  0.23533  1.0000
  C   C70       1.0  0.06571  0.11769  0.02888  1.0000
  H   H82       1.0  0.45699  0.31824  0.18951  1.0000
  H   H83       1.0  0.11994  0.17285  0.02920  1.0000
  Fe  Fe12      1.0  0.40161  0.32537  0.23088  1.0000
  H   H84       1.0  0.11773  0.14450  0.03040  1.0000
  C   C71       1.0  0.49467  0.20195  0.06864  1.0000
  H   H85       1.0  0.27544  0.32147  0.00237  1.0000
  H   H86       1.0  0.50044  0.27142  0.09557  1.0000
  S   S21       1.0  0.00267  0.07189  0.16715  1.0000
  Fe  Fe13      1.0  0.00725  0.06130  0.14654  1.0000
  H   H87       1.0  0.03655  0.07105  0.05617  1.0000
  S   S22       1.0  0.05821  0.11086  0.23104  1.0000
  H   H88       1.0  0.20685  0.19054  0.99659  1.0000
  C   C72       1.0  0.19553  0.15650  0.23089  1.0000
  C   C73       1.0  0.48263  0.31760  0.21523  1.0000
  H   H89       1.0  0.40786  0.31863  0.02261  1.0000
  S   S23       1.0  0.00660  0.08399  0.12565  1.0000
  C   C74       1.0  0.18194  0.27844  0.98961  1.0000
  H   H90       1.0  0.24382  0.20391  0.23521  1.0000
  H   H91       1.0  0.44551  0.27792  0.99262  1.0000
  C   C75       1.0  0.49516  0.33453  0.21949  1.0000
  H   H92       1.0  0.19967  0.21565  0.99042  1.0000
  H   H93       1.0  0.15620  0.22585  0.99296  1.0000
  H   H94       1.0  0.27581  0.29920  0.99416  1.0000
  S   S24       1.0  0.48542  0.23812  0.05387  1.0000
  H   H95       1.0  0.26470  0.32099  0.98705  1.0000
  H   H96       1.0  0.00720  0.08995  0.19082  1.0000
  C   C76       1.0  0.49928  0.25354  0.09819  1.0000
  H   H97       1.0  0.44163  0.32638  0.12180  1.0000
  H   H98       1.0  0.25520  0.20821  0.98729  1.0000
  C   C77       1.0  0.19179  0.31525  0.99191  1.0000
  H   H99       1.0  0.49532  0.24836  0.08873  1.0000
  Fe  Fe14      1.0  0.32933  0.29366  0.99137  1.0000
  H   H100      1.0  0.48488  0.24466  0.10788  1.0000
  S   S25       1.0  0.30443  0.26585  0.98926  1.0000
  C   C78       1.0  0.45883  0.33511  0.18968  1.0000
  S   S26       1.0  0.40384  0.27751  0.98608  1.0000
  Fe  Fe15      1.0  0.36690  0.29180  0.35472  1.0000
  S   S27       1.0  0.34701  0.26534  0.37523  1.0000
  C   C79       1.0  0.50097  0.03531  0.28052  1.0000
  Fe  Fe16      1.0  0.39119  0.26187  0.34290  1.0000
  S   S28       1.0  0.37340  0.23327  0.36256  1.0000
  S   S29       1.0  0.41531  0.25669  0.32460  1.0000
  Fe  Fe17      1.0  0.34303  0.24434  0.35999  1.0000
  S   S30       1.0  0.31107  0.21935  0.36206  1.0000
  Fe  Fe18      1.0  0.37962  0.25766  0.37534  1.0000
  S   S31       1.0  0.39179  0.25129  0.39576  1.0000
  S   S32       1.0  0.36075  0.27156  0.33954  1.0000
  S   S33       1.0  0.39956  0.28534  0.35564  1.0000
  H   H101      1.0  0.08382  0.02313  0.28724  1.0000
  S   S34       1.0  0.40484  0.30329  0.25113  1.0000
  C   C80       1.0  0.09232  0.03429  0.29268  1.0000
  Fe  Fe19      1.0  0.02969  0.08247  0.24569  1.0000
  H   H102      1.0  0.11032  0.03617  0.28834  1.0000
  H   H103      1.0  0.32922  0.20525  0.27660  1.0000
  C   C81       1.0  0.32713  0.20252  0.28823  1.0000
  Fe  Fe20      1.0  0.36884  0.29954  0.26032  1.0000
  S   S35       1.0  0.34559  0.26870  0.27642  1.0000
  C   C82       1.0  0.26601  0.26389  0.36484  1.0000
  S   S36       1.0  0.47372  0.27303  0.44627  1.0000
  Fe  Fe21      1.0  0.22594  0.19903  0.31047  1.0000
  S   S37       1.0  0.23525  0.23451  0.29813  1.0000
  S   S38       1.0  0.24136  0.18676  0.32859  1.0000
  Fe  Fe22      1.0  0.19080  0.18608  0.29363  1.0000
  S   S39       1.0  0.19788  0.22147  0.28063  1.0000
  S   S40       1.0  0.17089  0.15602  0.28849  1.0000
  Fe  Fe23      1.0  0.23349  0.22232  0.27864  1.0000
  S   S41       1.0  0.26021  0.23666  0.25753  1.0000
  Fe  Fe24      1.0  0.19896  0.23003  0.30159  1.0000
  S   S42       1.0  0.18344  0.25477  0.30977  1.0000
  S   S43       1.0  0.22695  0.18696  0.29056  1.0000
  S   S44       1.0  0.18906  0.19459  0.31505  1.0000
  H   H104      1.0  0.29416  0.18126  0.29427  1.0000
  S   S45       1.0  0.47472  0.31084  0.40768  1.0000
  C   C83       1.0  0.22281  0.32313  0.30853  1.0000
  C   C84       1.0  0.25509  0.27896  0.35939  1.0000
  H   H105      1.0  0.25204  0.31283  0.30124  1.0000
  S   S46       1.0  0.37430  0.32816  0.26936  1.0000
  Fe  Fe25      1.0  0.07716  0.10213  0.24769  1.0000
  S   S47       1.0  0.09629  0.12872  0.25624  1.0000
  Fe  Fe26      1.0  0.05974  0.05285  0.25142  1.0000
  S   S48       1.0  0.05614  0.01820  0.26448  1.0000
  H   H106      1.0  0.21792  0.20666  0.25561  1.0000
  S   S49       1.0  0.04718  0.07582  0.26306  1.0000
  H   H107      1.0  0.32595  0.30721  0.33505  1.0000
  C   C85       1.0  0.48029  0.25606  0.39630  1.0000
  C   C86       1.0  0.11800  0.10215  0.30943  1.0000
  H   H108      1.0  0.20091  0.15565  0.26289  1.0000
  H   H109      1.0  0.12648  0.11435  0.31373  1.0000
  C   C87       1.0  0.19968  0.31683  0.31287  1.0000
  C   C88       1.0  0.29612  0.33594  0.36246  1.0000
  C   C89       1.0  0.15100  0.14968  0.27863  1.0000
  C   C90       1.0  0.14906  0.13041  0.27408  1.0000
  C   C91       1.0  0.13285  0.12396  0.26701  1.0000
  C   C92       1.0  0.11789  0.13643  0.26459  1.0000
  C   C93       1.0  0.12010  0.15590  0.26892  1.0000
  C   C94       1.0  0.13654  0.16255  0.27578  1.0000
  H   H110      1.0  0.16003  0.12022  0.27619  1.0000
  H   H111      1.0  0.13183  0.10922  0.26356  1.0000
  H   H112      1.0  0.10881  0.16585  0.26707  1.0000
  H   H113      1.0  0.13758  0.17733  0.27922  1.0000
  C   C95       1.0  0.19923  0.28071  0.30950  1.0000
  C   C96       1.0  0.18798  0.29569  0.31353  1.0000
  H   H114      1.0  0.30149  0.30009  0.32913  1.0000
  H   H115      1.0  0.46400  0.24723  0.33876  1.0000
  C   C97       1.0  0.23419  0.30782  0.30513  1.0000
  C   C98       1.0  0.22244  0.28672  0.30552  1.0000
  H   H116      1.0  0.17008  0.29126  0.31661  1.0000
  N   N5        1.0  0.28098  0.30919  0.26425  1.0000
  C   C99       1.0  0.24096  0.29122  0.26749  1.0000
  H   H117      1.0  0.23135  0.27553  0.30217  1.0000
  C   C100      1.0  0.32319  0.25762  0.27047  1.0000
  C   C101      1.0  0.32325  0.26444  0.25583  1.0000
  C   C102      1.0  0.30426  0.25699  0.25160  1.0000
  C   C103      1.0  0.28529  0.24259  0.26200  1.0000
  C   C104      1.0  0.28585  0.23457  0.27641  1.0000
  C   C105      1.0  0.30460  0.24240  0.28070  1.0000
  C   C106      1.0  0.38649  0.31303  0.40768  1.0000
  H   H118      1.0  0.35884  0.27426  0.40718  1.0000
  H   H119      1.0  0.27171  0.22259  0.28435  1.0000
  H   H120      1.0  0.30453  0.23686  0.29201  1.0000
  N   N6        1.0  0.36861  0.30972  0.40044  1.0000
  C   C107      1.0  0.41523  0.26792  0.39869  1.0000
  C   C108      1.0  0.42780  0.28801  0.38863  1.0000
  C   C109      1.0  0.44603  0.30079  0.39148  1.0000
  C   C110      1.0  0.45212  0.29362  0.40435  1.0000
  C   C111      1.0  0.43964  0.27347  0.41438  1.0000
  C   C112      1.0  0.42126  0.26079  0.41159  1.0000
  H   H121      1.0  0.42339  0.29392  0.37873  1.0000
  H   H122      1.0  0.47504  0.02437  0.33554  1.0000
  H   H123      1.0  0.44400  0.26774  0.42437  1.0000
  H   H124      1.0  0.41170  0.24531  0.41949  1.0000
  C   C113      1.0  0.29300  0.21219  0.35139  1.0000
  C   C114      1.0  0.27792  0.19143  0.35702  1.0000
  C   C115      1.0  0.26258  0.18437  0.34976  1.0000
  C   C116      1.0  0.26155  0.19796  0.33674  1.0000
  C   C117      1.0  0.27651  0.21904  0.33093  1.0000
  C   C118      1.0  0.29234  0.22612  0.33822  1.0000
  H   H125      1.0  0.27808  0.18054  0.36716  1.0000
  H   H126      1.0  0.25128  0.16810  0.35437  1.0000
  H   H127      1.0  0.27605  0.22968  0.32080  1.0000
  H   H128      1.0  0.30373  0.24231  0.33378  1.0000
  C   C119      1.0  0.42263  0.27986  0.30946  1.0000
  C   C120      1.0  0.42245  0.27730  0.29568  1.0000
  C   C121      1.0  0.42646  0.29578  0.28379  1.0000
  C   C122      1.0  0.40395  0.33271  0.40226  1.0000
  H   H129      1.0  0.42823  0.30302  0.32179  1.0000
  C   C123      1.0  0.42793  0.30093  0.31119  1.0000
  H   H130      1.0  0.41863  0.26106  0.29426  1.0000
  H   H131      1.0  0.42593  0.29365  0.27326  1.0000
  C   C124      1.0  0.10256  0.10691  0.30208  1.0000
  H   H132      1.0  0.19484  0.30910  0.27578  1.0000
  H   H133      1.0  0.13527  0.07855  0.31644  1.0000
  C   C125      1.0  0.29979  0.31588  0.36881  1.0000
  C   C126      1.0  0.32110  0.31281  0.36525  1.0000
  H   H134      1.0  0.28606  0.30260  0.37615  1.0000
  H   H135      1.0  0.32366  0.29707  0.36972  1.0000
  N   N7        1.0  0.21112  0.24256  0.34803  1.0000
  C   C127      1.0  0.19834  0.25895  0.34509  1.0000
  C   C128      1.0  0.22010  0.23790  0.33413  1.0000
  C   C129      1.0  0.19529  0.22211  0.35838  1.0000
  C   C130      1.0  0.22967  0.25011  0.35396  1.0000
  C   C131      1.0  0.23716  0.27229  0.35403  1.0000
  C   C132      1.0  0.24155  0.23535  0.35927  1.0000
  H   H136      1.0  0.20861  0.27417  0.33646  1.0000
  H   H137      1.0  0.18419  0.25268  0.34093  1.0000
  H   H138      1.0  0.19143  0.26342  0.35512  1.0000
  H   H139      1.0  0.23245  0.25265  0.32614  1.0000
  H   H140      1.0  0.20680  0.23273  0.32902  1.0000
  H   H141      1.0  0.22847  0.22449  0.33570  1.0000
  S   S50       1.0  0.48073  0.29499  0.48005  1.0000
  H   H142      1.0  0.20246  0.20781  0.35950  1.0000
  H   H143      1.0  0.18966  0.22428  0.36943  1.0000
  H   H144      1.0  0.22953  0.28490  0.35001  1.0000
  H   H145      1.0  0.23756  0.21847  0.35898  1.0000
  N   N8        1.0  0.45492  0.25565  0.35890  1.0000
  C   C133      1.0  0.43210  0.24129  0.36254  1.0000
  C   C134      1.0  0.45467  0.27814  0.35121  1.0000
  C   C135      1.0  0.46971  0.24766  0.34869  1.0000
  C   C136      1.0  0.46322  0.25575  0.37189  1.0000
  S   S51       1.0  0.09075  0.07839  0.23698  1.0000
  C   C137      1.0  0.38731  0.29708  0.42009  1.0000
  H   H146      1.0  0.08144  0.09682  0.28958  1.0000
  C   C138      1.0  0.40442  0.30087  0.42666  1.0000
  H   H147      1.0  0.48918  0.17831  0.44943  1.0000
  C   C139      1.0  0.49713  0.00323  0.30015  1.0000
  H   H148      1.0  0.42574  0.24242  0.35276  1.0000
  H   H149      1.0  0.43123  0.22365  0.36688  1.0000
  N   N9        1.0  0.21031  0.18322  0.24372  1.0000
  H   H150      1.0  0.44630  0.27811  0.34235  1.0000
  H   H151      1.0  0.47149  0.28929  0.34575  1.0000
  C   C140      1.0  0.43310  0.31942  0.29910  1.0000
  H   H152      1.0  0.47030  0.23075  0.35400  1.0000
  H   H153      1.0  0.42039  0.24597  0.37071  1.0000
  C   C141      1.0  0.21222  0.30952  0.27290  1.0000
  C   C142      1.0  0.49932  0.04769  0.29042  1.0000
  H   H154      1.0  0.48696  0.25833  0.34495  1.0000
  H   H155      1.0  0.28877  0.17596  0.32070  1.0000
  C   C143      1.0  0.25759  0.30989  0.26681  1.0000
  N   N10       1.0  0.35923  0.22269  0.31316  1.0000
  C   C144      1.0  0.36383  0.24670  0.30657  1.0000
  C   C145      1.0  0.35395  0.21855  0.32926  1.0000
  C   C146      1.0  0.37965  0.21585  0.30841  1.0000
  C   C147      1.0  0.34130  0.21086  0.30828  1.0000
  C   C148      1.0  0.32101  0.19680  0.31812  1.0000
  C   C149      1.0  0.34382  0.21335  0.29317  1.0000
  H   H156      1.0  0.45541  0.31642  0.38371  1.0000
  H   H157      1.0  0.34323  0.28688  0.41906  1.0000
  H   H158      1.0  0.36513  0.30812  0.37932  1.0000
  H   H159      1.0  0.37126  0.25175  0.29455  1.0000
  H   H160      1.0  0.34836  0.25212  0.30861  1.0000
  H   H161      1.0  0.37578  0.25630  0.31100  1.0000
  H   H162      1.0  0.36787  0.22743  0.33256  1.0000
  H   H163      1.0  0.35067  0.20083  0.33502  1.0000
  H   H164      1.0  0.33934  0.22431  0.33348  1.0000
  H   H165      1.0  0.37664  0.19776  0.31272  1.0000
  H   H166      1.0  0.38599  0.22031  0.29632  1.0000
  H   H167      1.0  0.39332  0.22391  0.31231  1.0000
  H   H168      1.0  0.31736  0.19396  0.32980  1.0000
  H   H169      1.0  0.35851  0.22422  0.28500  1.0000
  C   C150      1.0  0.30435  0.18620  0.31304  1.0000
  C   C151      1.0  0.09241  0.09176  0.29584  1.0000
  H   H170      1.0  0.34318  0.32503  0.39559  1.0000
  H   H171      1.0  0.22789  0.17350  0.25954  1.0000
  H   H172      1.0  0.09916  0.12285  0.30062  1.0000
  H   H173      1.0  0.30312  0.31837  0.30287  1.0000
  C   C152      1.0  0.37302  0.33411  0.30387  1.0000
  H   H174      1.0  0.31362  0.32850  0.26248  1.0000
  H   H175      1.0  0.24505  0.27641  0.26590  1.0000
  H   H176      1.0  0.05601  0.04416  0.30654  1.0000
  C   C153      1.0  0.21862  0.29107  0.27058  1.0000
  H   H177      1.0  0.09029  0.08171  0.27034  1.0000
  H   H178      1.0  0.50082  0.06511  0.28653  1.0000
  C   C154      1.0  0.30736  0.18910  0.29814  1.0000
  C   C155      1.0  0.25914  0.24213  0.36488  1.0000
  C   C156      1.0  0.46134  0.24003  0.39763  1.0000
  C   C157      1.0  0.28288  0.29104  0.27584  1.0000
  S   S52       1.0  0.36544  0.32671  0.35045  1.0000
  H   H179      1.0  0.49637  0.04871  0.31216  1.0000
  H   H180      1.0  0.11310  0.06980  0.26961  1.0000
  C   C158      1.0  0.21596  0.16615  0.25411  1.0000
  H   H181      1.0  0.37538  0.32003  0.30026  1.0000
  H   H182      1.0  0.40510  0.28829  0.43586  1.0000
  C   C159      1.0  0.22814  0.32826  0.27201  1.0000
  H   H183      1.0  0.31844  0.28712  0.31039  1.0000
  C   C160      1.0  0.09720  0.07111  0.29697  1.0000
  H   H184      1.0  0.27988  0.26901  0.36902  1.0000
  H   H185      1.0  0.19073  0.32870  0.31505  1.0000
  H   H186      1.0  0.38662  0.29717  0.38455  1.0000
  H   H187      1.0  0.37527  0.28131  0.42474  1.0000
  C   C161      1.0  0.49028  0.01888  0.33574  1.0000
  H   H188      1.0  0.43497  0.32278  0.42583  1.0000
  H   H189      1.0  0.34327  0.30267  0.29676  1.0000
  H   H190      1.0  0.44582  0.28573  0.35894  1.0000
  C   C162      1.0  0.45275  0.23985  0.38569  1.0000
  H   H191      1.0  0.11772  0.05150  0.30607  1.0000
  H   H192      1.0  0.18959  0.19111  0.26120  1.0000
  C   C163      1.0  0.35154  0.28840  0.40750  1.0000
  H   H193      1.0  0.08691  0.02565  0.30458  1.0000
  C   C164      1.0  0.29623  0.32971  0.26428  1.0000
  C   C165      1.0  0.49993  0.01312  0.28538  1.0000
  C   C166      1.0  0.11283  0.06662  0.30474  1.0000
  C   C167      1.0  0.42129  0.32033  0.42103  1.0000
  C   C168      1.0  0.09479  0.06602  0.27366  1.0000
  H   H194      1.0  0.05669  0.06618  0.29144  1.0000
  Fe  Fe27      1.0  0.49121  0.30007  0.42559  1.0000
  C   C169      1.0  0.19251  0.17274  0.23814  1.0000
  H   H195      1.0  0.26767  0.23046  0.36918  1.0000
  C   C170      1.0  0.37815  0.31040  0.38508  1.0000
  H   H196      1.0  0.05429  0.03942  0.28933  1.0000
  C   C171      1.0  0.33439  0.29946  0.30845  1.0000
  C   C172      1.0  0.28876  0.30532  0.24987  1.0000
  H   H197      1.0  0.20611  0.27637  0.27158  1.0000
  H   H198      1.0  0.18037  0.21713  0.35462  1.0000
  H   H199      1.0  0.27935  0.28926  0.24934  1.0000
  H   H200      1.0  0.43760  0.22737  0.38771  1.0000
  C   C173      1.0  0.48290  0.27146  0.37083  1.0000
  C   C174      1.0  0.06248  0.05123  0.29448  1.0000
  H   H201      1.0  0.45281  0.22814  0.40816  1.0000
  H   H202      1.0  0.27373  0.27470  0.27562  1.0000
  H   H203      1.0  0.26042  0.29594  0.35941  1.0000
  H   H204      1.0  0.30407  0.26290  0.24037  1.0000
  H   H205      1.0  0.34392  0.29159  0.31528  1.0000
  H   H206      1.0  0.08759  0.05501  0.26771  1.0000
  C   C175      1.0  0.31677  0.31328  0.32724  1.0000
  C   C176      1.0  0.12305  0.08202  0.31082  1.0000
  H   H207      1.0  0.39029  0.32629  0.37857  1.0000
  Fe  Fe28      1.0  0.49424  0.29309  0.45709  1.0000
  H   H208      1.0  0.45403  0.32188  0.24018  1.0000
  N   N11       1.0  0.08695  0.05581  0.28967  1.0000
  C   C177      1.0  0.17189  0.17811  0.23969  1.0000
  H   H209      1.0  0.30039  0.29048  0.27459  1.0000
  C   C178      1.0  0.20421  0.19919  0.25151  1.0000
  H   H210      1.0  0.28705  0.31836  0.24092  1.0000
  C   C179      1.0  0.43157  0.31688  0.28550  1.0000
  C   C180      1.0  0.35725  0.32746  0.40052  1.0000
  H   H211      1.0  0.27614  0.29278  0.28687  1.0000
  H   H212      1.0  0.01101  0.00946  0.25098  1.0000
  C   C181      1.0  0.33886  0.33015  0.35587  1.0000
  N   N12       1.0  0.49384  0.00469  0.32597  1.0000
  H   H213      1.0  0.33783  0.27555  0.24778  1.0000
  S   S53       1.0  0.36475  0.31858  0.23941  1.0000
  N   N13       1.0  0.33096  0.31986  0.31194  1.0000
  H   H214      1.0  0.48850  0.01008  0.34732  1.0000
  H   H215      1.0  0.33834  0.28645  0.40181  1.0000
  C   C182      1.0  0.49538  0.01531  0.31055  1.0000
  H   H216      1.0  0.31110  0.32704  0.33038  1.0000
  S   S54       1.0  0.49821  0.22494  0.43973  1.0000
  C   C183      1.0  0.49664  0.03796  0.30522  1.0000
  H   H217      1.0  0.30651  0.30522  0.24740  1.0000
  C   C184      1.0  0.31909  0.32987  0.30196  1.0000
  H   H218      1.0  0.48634  0.25660  0.40577  1.0000
  C   C185      1.0  0.49103  0.27177  0.38294  1.0000
  H   H219      1.0  0.32939  0.33506  0.29037  1.0000
  H   H220      1.0  0.22362  0.15513  0.24875  1.0000
  H   H221      1.0  0.20059  0.21307  0.24424  1.0000
  C   C186      1.0  0.05926  0.00487  0.23950  1.0000
  H   H222      1.0  0.49212  0.28377  0.36068  1.0000
  H   H223      1.0  0.16779  0.18997  0.24523  1.0000
  C   C187      1.0  0.25052  0.32859  0.26898  1.0000
  H   H224      1.0  0.48808  0.32569  0.24842  1.0000
  Fe  Fe29      1.0  0.41015  0.33360  0.25850  1.0000
  H   H225      1.0  0.35065  0.32817  0.41186  1.0000
  H   H226      1.0  0.29165  0.33355  0.27488  1.0000
  H   H227      1.0  0.43763  0.33568  0.30043  1.0000
  C   C188      1.0  0.42110  0.33619  0.40884  1.0000
  H   H228      1.0  0.13957  0.17159  0.23601  1.0000
  C   C189      1.0  0.27384  0.30766  0.70322  1.0000
  S   S55       1.0  0.00589  0.07630  0.71698  1.0000
  C   C190      1.0  0.12395  0.16047  0.68262  1.0000
  H   H229      1.0  0.16536  0.30020  0.61660  1.0000
  H   H230      1.0  0.07405  0.12295  0.72717  1.0000
  H   H231      1.0  0.39559  0.33581  0.67811  1.0000
  H   H232      1.0  0.15150  0.16027  0.69166  1.0000
  H   H233      1.0  0.39524  0.32425  0.64810  1.0000
  Fe  Fe30      1.0  0.38099  0.32887  0.62361  1.0000
  H   H234      1.0  0.30062  0.28333  0.69699  1.0000
  H   H235      1.0  0.06484  0.07842  0.68203  1.0000
  H   H236      1.0  0.25058  0.31818  0.59009  1.0000
  H   H237      1.0  0.27348  0.26562  0.70486  1.0000
  Fe  Fe31      1.0  0.02692  0.05326  0.72142  1.0000
  S   S56       1.0  0.03987  0.03789  0.70401  1.0000
  Fe  Fe32      1.0  0.02674  0.09778  0.72682  1.0000
  S   S57       1.0  0.03740  0.13488  0.71719  1.0000
  C   C191      1.0  0.45201  0.32392  0.60028  1.0000
  H   H238      1.0  0.27357  0.32744  0.59688  1.0000
  Fe  Fe33      1.0  0.15156  0.22645  0.69933  1.0000
  S   S58       1.0  0.17167  0.24269  0.71202  1.0000
  S   S59       1.0  0.13514  0.18990  0.71026  1.0000
  Fe  Fe34      1.0  0.16603  0.26820  0.67387  1.0000
  S   S60       1.0  0.18699  0.28750  0.68440  1.0000
  Fe  Fe35      1.0  0.19834  0.25734  0.69087  1.0000
  S   S61       1.0  0.23418  0.26332  0.69068  1.0000
  Fe  Fe36      1.0  0.15882  0.27164  0.70462  1.0000
  C   C192      1.0  0.25721  0.32978  0.59586  1.0000
  S   S62       1.0  0.17967  0.23881  0.67857  1.0000
  S   S63       1.0  0.13633  0.25449  0.69366  1.0000
  H   H239      1.0  0.28788  0.31610  0.69320  1.0000
  C   C193      1.0  0.17529  0.30677  0.72122  1.0000
  C   C194      1.0  0.07929  0.08763  0.68473  1.0000
  H   H240      1.0  0.11232  0.09716  0.69457  1.0000
  H   H241      1.0  0.26475  0.32972  0.64948  1.0000
  C   C195      1.0  0.08264  0.11907  0.66518  1.0000
  C   C196      1.0  0.14830  0.33014  0.67998  1.0000
  S   S64       1.0  0.29918  0.29854  0.62674  1.0000
  H   H242      1.0  0.26822  0.32064  0.70750  1.0000
  S   S65       1.0  0.35154  0.30771  0.64208  1.0000
  C   C197      1.0  0.31005  0.33393  0.73037  1.0000
  C   C198      1.0  0.25203  0.27258  0.67287  1.0000
  C   C199      1.0  0.24494  0.26767  0.66117  1.0000
  C   C200      1.0  0.25964  0.27500  0.64706  1.0000
  C   C201      1.0  0.28115  0.28802  0.64451  1.0000
  C   C202      1.0  0.28809  0.29303  0.65621  1.0000
  C   C203      1.0  0.27370  0.28505  0.67035  1.0000
  H   H243      1.0  0.22833  0.25775  0.66305  1.0000
  H   H244      1.0  0.25438  0.27034  0.63819  1.0000
  H   H245      1.0  0.30460  0.30300  0.65444  1.0000
  H   H246      1.0  0.27940  0.28888  0.67924  1.0000
  C   C204      1.0  0.06083  0.11482  0.68956  1.0000
  C   C205      1.0  0.02472  0.01317  0.70207  1.0000
  S   S66       1.0  0.16404  0.28425  0.65140  1.0000
  C   C206      1.0  0.06461  0.15009  0.71528  1.0000
  C   C207      1.0  0.07923  0.14022  0.72129  1.0000
  C   C208      1.0  0.10063  0.15277  0.71979  1.0000
  C   C209      1.0  0.10773  0.17525  0.71219  1.0000
  C   C210      1.0  0.09314  0.18516  0.70619  1.0000
  C   C211      1.0  0.07164  0.17260  0.70775  1.0000
  H   H247      1.0  0.27689  0.32215  0.73022  1.0000
  C   C212      1.0  0.24055  0.30419  0.61959  1.0000
  H   H248      1.0  0.09843  0.20245  0.70027  1.0000
  H   H249      1.0  0.06042  0.18039  0.70309  1.0000
  H   H250      1.0  0.25266  0.29238  0.73142  1.0000
  C   C213      1.0  0.18022  0.31372  0.61176  1.0000
  C   C214      1.0  0.19353  0.29824  0.71850  1.0000
  S   S67       1.0  0.41048  0.31527  0.61847  1.0000
  C   C215      1.0  0.32078  0.30547  0.71409  1.0000
  C   C216      1.0  0.45020  0.32408  0.56097  1.0000
  H   H251      1.0  0.24792  0.27009  0.72391  1.0000
  H   H252      1.0  0.25715  0.30318  0.62084  1.0000
  Fe  Fe37      1.0  0.33132  0.31935  0.62750  1.0000
  H   H253      1.0  0.40749  0.32013  0.56365  1.0000
  H   H254      1.0  0.08159  0.13628  0.66173  1.0000
  S   S68       1.0  0.04986  0.07634  0.72913  1.0000
  H   H255      1.0  0.14368  0.11977  0.69900  1.0000
  H   H256      1.0  0.07648  0.08041  0.69667  1.0000
  C   C217      1.0  0.11496  0.11472  0.69089  1.0000
  C   C218      1.0  0.17757  0.32651  0.72506  1.0000
  H   H257      1.0  0.25610  0.32197  0.67625  1.0000
  H   H258      1.0  0.43938  0.31944  0.57238  1.0000
  N   N14       1.0  0.08130  0.11161  0.68093  1.0000
  H   H259      1.0  0.22932  0.30047  0.63079  1.0000
  C   C219      1.0  0.21994  0.32856  0.60838  1.0000
  H   H260      1.0  0.09848  0.11809  0.65830  1.0000
  H   H261      1.0  0.12719  0.17822  0.67983  1.0000
  C   C220      1.0  0.49942  0.30707  0.48860  1.0000
  C   C221      1.0  0.44893  0.33501  0.52404  1.0000
  C   C222      1.0  0.49300  0.30341  0.50381  1.0000
  C   C223      1.0  0.15082  0.32106  0.64217  1.0000
  N   N15       1.0  0.24162  0.32617  0.61033  1.0000
  H   H262      1.0  0.25993  0.29875  0.69990  1.0000
  C   C224      1.0  0.20037  0.31086  0.61390  1.0000
  H   H263      1.0  0.32623  0.29555  0.70731  1.0000
  H   H264      1.0  0.12114  0.24467  0.73111  1.0000
  N   N16       1.0  0.28054  0.29256  0.71418  1.0000
  H   H265      1.0  0.09418  0.08391  0.67867  1.0000
  H   H266      1.0  0.44664  0.31881  0.65870  1.0000
  H   H267      1.0  0.45174  0.30746  0.60603  1.0000
  H   H268      1.0  0.13511  0.30980  0.64348  1.0000
  H   H269      1.0  0.19989  0.29479  0.62036  1.0000
  C   C225      1.0  0.13315  0.12754  0.69352  1.0000
  C   C226      1.0  0.21385  0.30910  0.71968  1.0000
  C   C227      1.0  0.16774  0.31295  0.64632  1.0000
  C   C228      1.0  0.10071  0.12456  0.68392  1.0000
  C   C229      1.0  0.10560  0.14784  0.68007  1.0000
  C   C230      1.0  0.28745  0.27572  0.70754  1.0000
  H   H270      1.0  0.04566  0.10471  0.68815  1.0000
  H   H271      1.0  0.09504  0.15648  0.67531  1.0000
  C   C231      1.0  0.33729  0.31915  0.71767  1.0000
  H   H272      1.0  0.06882  0.10889  0.66246  1.0000
  H   H273      1.0  0.06008  0.13219  0.68661  1.0000
  H   H274      1.0  0.29347  0.26428  0.71507  1.0000
  H   H275      1.0  0.05975  0.11013  0.70139  1.0000
  H   H276      1.0  0.04491  0.01994  0.68007  1.0000
  H   H277      1.0  0.19206  0.28315  0.71550  1.0000
  H   H278      1.0  0.12521  0.20748  0.73414  1.0000
  C   C232      1.0  0.33194  0.33334  0.72579  1.0000
  H   H279      1.0  0.47668  0.29315  0.51015  1.0000
  H   H280      1.0  0.20147  0.32146  0.64727  1.0000
  H   H281      1.0  0.23496  0.29095  0.61468  1.0000
  C   C233      1.0  0.03136  0.00837  0.68883  1.0000
  H   H282      1.0  0.39736  0.31136  0.66574  1.0000
  C   C234      1.0  0.29343  0.32033  0.72688  1.0000
  H   H283      1.0  0.16351  0.33325  0.72709  1.0000
  C   C235      1.0  0.21641  0.32892  0.72327  1.0000
  H   H284      1.0  0.45250  0.30878  0.55830  1.0000
  S   S69       1.0  0.15035  0.29331  0.71875  1.0000
  C   C236      1.0  0.29821  0.30556  0.71868  1.0000
  H   H285      1.0  0.22766  0.30214  0.71760  1.0000
  H   H286      1.0  0.11186  0.14492  0.72439  1.0000
  C   C237      1.0  0.13767  0.15035  0.68934  1.0000
  C   C238      1.0  0.26093  0.28093  0.72692  1.0000
  H   H287      1.0  0.35442  0.31912  0.71381  1.0000
  H   H288      1.0  0.41817  0.30749  0.55028  1.0000
  H   H289      1.0  0.13888  0.31312  0.68500  1.0000
  H   H290      1.0  0.44451  0.33163  0.63365  1.0000
  C   C239      1.0  0.18824  0.32770  0.64429  1.0000
  H   H291      1.0  0.15272  0.18917  0.73450  1.0000
  H   H292      1.0  0.41296  0.30657  0.64991  1.0000
  H   H293      1.0  0.46657  0.33353  0.56110  1.0000
  C   C240      1.0  0.43364  0.33203  0.60416  1.0000
  C   C241      1.0  0.40700  0.31947  0.65418  1.0000
  H   H294      1.0  0.17364  0.32579  0.68989  1.0000
  H   H295      1.0  0.43248  0.32503  0.52564  1.0000
  C   C242      1.0  0.17885  0.33414  0.60423  1.0000
  C   C243      1.0  0.43941  0.33188  0.66177  1.0000
  C   C244      1.0  0.41815  0.32370  0.55229  1.0000
  H   H296      1.0  0.04132  0.00586  0.73075  1.0000
  H   H297      1.0  0.45820  0.33427  0.50160  1.0000
  H   H298      1.0  0.42981  0.32520  0.67347  1.0000
  H   H299      1.0  0.48459  0.33028  0.58572  1.0000
  H   H300      1.0  0.40989  0.33258  0.54491  1.0000
  H   H301      1.0  0.26560  0.27063  0.73588  1.0000
  H   H302      1.0  0.31805  0.23358  0.91040  1.0000
  Fe  Fe38      1.0  0.22020  0.24280  0.89513  1.0000
  S   S70       1.0  0.22836  0.21049  0.89585  1.0000
  S   S71       1.0  0.23828  0.27252  0.87600  1.0000
  Fe  Fe39      1.0  0.18616  0.22462  0.92445  1.0000
  S   S72       1.0  0.19192  0.19121  0.92752  1.0000
  S   S73       1.0  0.16383  0.23529  0.94099  1.0000
  Fe  Fe40      1.0  0.22814  0.20934  0.91914  1.0000
  S   S74       1.0  0.25432  0.20019  0.93015  1.0000
  Fe  Fe41      1.0  0.19122  0.19572  0.90396  1.0000
  S   S75       1.0  0.16870  0.16705  0.89931  1.0000
  S   S76       1.0  0.22214  0.24236  0.91768  1.0000
  S   S77       1.0  0.18339  0.22840  0.90162  1.0000
  C   C245      1.0  0.31278  0.28630  0.90153  1.0000
  S   S78       1.0  0.00552  0.03450  0.74388  1.0000
  Fe  Fe42      1.0  0.33108  0.26683  0.96976  1.0000
  H   H303      1.0  0.33654  0.30038  0.91988  1.0000
  S   S79       1.0  0.32177  0.26850  0.94838  1.0000
  C   C246      1.0  0.32922  0.32441  0.88734  1.0000
  H   H304      1.0  0.13956  0.15377  0.77215  1.0000
  C   C247      1.0  0.12575  0.21442  0.74312  1.0000
  H   H305      1.0  0.01845  0.00641  0.85323  1.0000
  H   H306      1.0  0.34773  0.32801  0.90864  1.0000
  C   C248      1.0  0.15699  0.21788  0.98438  1.0000
  C   C249      1.0  0.06574  0.18878  0.75619  1.0000
  S   S80       1.0  0.35508  0.29665  0.97104  1.0000
  Fe  Fe43      1.0  0.10170  0.12706  0.84202  1.0000
  S   S81       1.0  0.11282  0.10385  0.82974  1.0000
  S   S82       1.0  0.12910  0.15162  0.84639  1.0000
  Fe  Fe44      1.0  0.05333  0.11057  0.84106  1.0000
  S   S83       1.0  0.06127  0.08580  0.82976  1.0000
  C   C250      1.0  0.03941  0.17023  0.80246  1.0000
  Fe  Fe45      1.0  0.08197  0.07908  0.84487  1.0000
  S   S84       1.0  0.08023  0.04420  0.85620  1.0000
  Fe  Fe46      1.0  0.09089  0.11276  0.81563  1.0000
  S   S85       1.0  0.09727  0.12045  0.79106  1.0000
  S   S86       1.0  0.07160  0.10159  0.85786  1.0000
  S   S87       1.0  0.08232  0.13822  0.82634  1.0000
  H   H307      1.0  0.16876  0.19492  0.74663  1.0000
  H   H308      1.0  0.00917  0.12596  0.79612  1.0000
  C   C251      1.0  0.08040  0.10057  0.78562  1.0000
  C   C252      1.0  0.07462  0.10661  0.77253  1.0000
  C   C253      1.0  0.23341  0.27102  0.95413  1.0000
  C   C254      1.0  0.05906  0.06306  0.78991  1.0000
  C   C255      1.0  0.07260  0.07872  0.79426  1.0000
  C   C256      1.0  0.28603  0.26094  0.89441  1.0000
  H   H309      1.0  0.05342  0.04614  0.79654  1.0000
  H   H310      1.0  0.07757  0.07368  0.80406  1.0000
  H   H311      1.0  0.01116  0.00545  0.77743  1.0000
  C   C257      1.0  0.07219  0.02552  0.84657  1.0000
  H   H312      1.0  0.12352  0.26278  0.75046  1.0000
  H   H313      1.0  0.08486  0.04937  0.82543  1.0000
  H   H314      1.0  0.07260  0.02301  0.81213  1.0000
  C   C258      1.0  0.01061  0.04509  0.85589  1.0000
  C   C259      1.0  0.07620  0.03249  0.83140  1.0000
  C   C260      1.0  0.04820  0.13647  0.80139  1.0000
  C   C261      1.0  0.12467  0.24597  0.75219  1.0000
  C   C262      1.0  0.15653  0.16479  0.88471  1.0000
  C   C263      1.0  0.16658  0.17795  0.87031  1.0000
  C   C264      1.0  0.15776  0.17379  0.85886  1.0000
  C   C265      1.0  0.13862  0.15663  0.86156  1.0000
  C   C266      1.0  0.12817  0.14392  0.87604  1.0000
  C   C267      1.0  0.13720  0.14784  0.88745  1.0000
  H   H315      1.0  0.18152  0.19094  0.86793  1.0000
  H   H316      1.0  0.16600  0.18389  0.84778  1.0000
  H   H317      1.0  0.11316  0.13103  0.87851  1.0000
  H   H318      1.0  0.12926  0.13749  0.89850  1.0000
  C   C268      1.0  0.27191  0.21886  0.93626  1.0000
  C   C269      1.0  0.26991  0.24016  0.93533  1.0000
  C   C270      1.0  0.28457  0.25477  0.93979  1.0000
  C   C271      1.0  0.30119  0.24830  0.94553  1.0000
  C   C272      1.0  0.30297  0.22684  0.94674  1.0000
  C   C273      1.0  0.28846  0.21225  0.94208  1.0000
  H   H319      1.0  0.25744  0.24565  0.93085  1.0000
  H   H320      1.0  0.28310  0.27127  0.93864  1.0000
  H   H321      1.0  0.31605  0.22172  0.95076  1.0000
  H   H322      1.0  0.29026  0.19585  0.94281  1.0000
  C   C274      1.0  0.25055  0.29683  0.87958  1.0000
  C   C275      1.0  0.24449  0.30027  0.89337  1.0000
  H   H323      1.0  0.13346  0.20598  0.77728  1.0000
  H   H324      1.0  0.05719  0.17830  0.80074  1.0000
  C   C276      1.0  0.06146  0.00346  0.85416  1.0000
  C   C277      1.0  0.18837  0.29355  0.89545  1.0000
  H   H325      1.0  0.23159  0.28798  0.90206  1.0000
  H   H326      1.0  0.24347  0.18561  0.98169  1.0000
  H   H327      1.0  0.28781  0.29475  0.89106  1.0000
  H   H328      1.0  0.04270  0.13104  0.81354  1.0000
  H   H329      1.0  0.22832  0.20597  0.95637  1.0000
  C   C278      1.0  0.15744  0.18536  0.97630  1.0000
  C   C279      1.0  0.15937  0.19743  0.96204  1.0000
  C   C280      1.0  0.16019  0.21975  0.95892  1.0000
  C   C281      1.0  0.15852  0.22986  0.97016  1.0000
  H   H330      1.0  0.15662  0.27120  0.92120  1.0000
  C   C282      1.0  0.13704  0.17044  0.77149  1.0000
  H   H331      1.0  0.15999  0.18940  0.95350  1.0000
  H   H332      1.0  0.15883  0.24705  0.96781  1.0000
  H   H333      1.0  0.04531  0.12138  0.79773  1.0000
  H   H334      1.0  0.27171  0.31051  0.85759  1.0000
  C   C283      1.0  0.19795  0.29996  0.88036  1.0000
  C   C284      1.0  0.24833  0.20389  0.97853  1.0000
  C   C285      1.0  0.20147  0.30927  0.96801  1.0000
  H   H335      1.0  0.01672  0.04896  0.82118  1.0000
  C   C286      1.0  0.17834  0.32004  0.92625  1.0000
  H   H336      1.0  0.12923  0.24296  0.77355  1.0000
  H   H337      1.0  0.11759  0.14883  0.75630  1.0000
  H   H338      1.0  0.19071  0.27571  0.96772  1.0000
  H   H339      1.0  0.08061  0.12339  0.76574  1.0000
  H   H340      1.0  0.17054  0.31395  0.93828  1.0000
  C   C287      1.0  0.29452  0.24364  0.89970  1.0000
  H   H341      1.0  0.29959  0.30520  0.92303  1.0000
  N   N17       1.0  0.13395  0.18085  0.75716  1.0000
  H   H342      1.0  0.05161  0.01043  0.77414  1.0000
  N   N18       1.0  0.17975  0.30167  0.91971  1.0000
  C   C288      1.0  0.19393  0.28945  0.92628  1.0000
  H   H343      1.0  0.11295  0.17096  0.74392  1.0000
  C   C289      1.0  0.32102  0.26823  0.90689  1.0000
  C   C290      1.0  0.18919  0.30902  0.90363  1.0000
  C   C291      1.0  0.15432  0.18308  0.74569  1.0000
  C   C292      1.0  0.19129  0.28678  0.97445  1.0000
  C   C293      1.0  0.29503  0.28194  0.89526  1.0000
  H   H344      1.0  0.34128  0.31921  0.87974  1.0000
  H   H345      1.0  0.06035  0.19482  0.77683  1.0000
  H   H346      1.0  0.21103  0.30005  0.92372  1.0000
  H   H347      1.0  0.18732  0.28315  0.93840  1.0000
  H   H348      1.0  0.19514  0.27499  0.92219  1.0000
  C   C294      1.0  0.00609  0.05822  0.86505  1.0000
  H   H349      1.0  0.03437  0.03869  0.83125  1.0000
  C   C295      1.0  0.25511  0.31977  0.89583  1.0000
  C   C296      1.0  0.04334  0.14494  0.77080  1.0000
  H   H350      1.0  0.41995  0.33452  0.98154  1.0000
  H   H351      1.0  0.03211  0.16376  0.81456  1.0000
  C   C297      1.0  0.31203  0.24730  0.90586  1.0000
  C   C298      1.0  0.06932  0.01752  0.82388  1.0000
  H   H352      1.0  0.00507  0.13657  0.81136  1.0000
  N   N19       1.0  0.03669  0.15236  0.79529  1.0000
  C   C299      1.0  0.30467  0.31563  0.91154  1.0000
  H   H353      1.0  0.03520  0.12767  0.77597  1.0000
  H   H354      1.0  0.26188  0.20968  0.96821  1.0000
  C   C300      1.0  0.04574  0.16002  0.77919  1.0000
  C   C301      1.0  0.05742  0.18221  0.77142  1.0000
  H   H355      1.0  0.15708  0.16815  0.97862  1.0000
  C   C302      1.0  0.27220  0.33554  0.88458  1.0000
  C   C303      1.0  0.25354  0.25075  0.97389  1.0000
  C   C304      1.0  0.05312  0.06912  0.77693  1.0000
  C   C305      1.0  0.11515  0.16562  0.75501  1.0000
  H   H356      1.0  0.31053  0.33300  0.91155  1.0000
  N   N20       1.0  0.22945  0.21316  0.97668  1.0000
  C   C306      1.0  0.12333  0.23572  0.74128  1.0000
  H   H357      1.0  0.28707  0.22722  0.89941  1.0000
  C   C307      1.0  0.26023  0.27357  0.96784  1.0000
  H   H358      1.0  0.28955  0.31455  0.90775  1.0000
  C   C308      1.0  0.06279  0.17359  0.74829  1.0000
  H   H359      1.0  0.14613  0.29502  0.91839  1.0000
  H   H360      1.0  0.09939  0.16397  0.76317  1.0000
  S   S88       1.0  0.21264  0.31882  0.94893  1.0000
  N   N21       1.0  0.32193  0.30881  0.90224  1.0000
  N   N22       1.0  0.14112  0.08613  0.86591  1.0000
  C   C309      1.0  0.11809  0.08797  0.86832  1.0000
  C   C310      1.0  0.15278  0.09673  0.85018  1.0000
  C   C311      1.0  0.14061  0.06251  0.86901  1.0000
  C   C312      1.0  0.15159  0.09613  0.87576  1.0000
  C   C313      1.0  0.16944  0.11555  0.87056  1.0000
  C   C314      1.0  0.14357  0.08673  0.89114  1.0000
  C   C315      1.0  0.17892  0.12447  0.88020  1.0000
  C   C316      1.0  0.15309  0.09592  0.90067  1.0000
  C   C317      1.0  0.17078  0.11470  0.89520  1.0000
  H   H361      1.0  0.11773  0.10547  0.86548  1.0000
  H   H362      1.0  0.10943  0.07993  0.86147  1.0000
  H   H363      1.0  0.10799  0.08011  0.87982  1.0000
  H   H364      1.0  0.15190  0.11408  0.84668  1.0000
  H   H365      1.0  0.14522  0.08818  0.84309  1.0000
  H   H366      1.0  0.17045  0.09647  0.84769  1.0000
  H   H367      1.0  0.13371  0.05484  0.86127  1.0000
  H   H368      1.0  0.15752  0.06026  0.86815  1.0000
  H   H369      1.0  0.12983  0.05267  0.88004  1.0000
  H   H370      1.0  0.17595  0.12462  0.85915  1.0000
  H   H371      1.0  0.12954  0.07248  0.89594  1.0000
  H   H372      1.0  0.19198  0.13972  0.87610  1.0000
  H   H373      1.0  0.14643  0.08880  0.91238  1.0000
  H   H374      1.0  0.17767  0.12230  0.90260  1.0000
  C   C318      1.0  0.06087  0.09097  0.76824  1.0000
  C   C319      1.0  0.21805  0.20138  0.96789  1.0000
  H   H375      1.0  0.14932  0.28199  0.93592  1.0000
  C   C320      1.0  0.00801  0.09217  0.82528  1.0000
  Fe  Fe47      1.0  0.02613  0.05966  0.75133  1.0000
  C   C321      1.0  0.13052  0.21348  0.76710  1.0000
  S   S89       1.0  0.03625  0.04888  0.77185  1.0000
  C   C322      1.0  0.26703  0.31302  0.86828  1.0000
  H   H376      1.0  0.18109  0.27620  0.90069  1.0000
  C   C323      1.0  0.15700  0.28696  0.92389  1.0000
  H   H377      1.0  0.25507  0.30137  0.95344  1.0000
  H   H378      1.0  0.35499  0.30628  0.90179  1.0000
  H   H379      1.0  0.22550  0.27894  0.94653  1.0000
  H   H380      1.0  0.05646  0.09574  0.75815  1.0000
  H   H381      1.0  0.25054  0.32230  0.90651  1.0000
  H   H382      1.0  0.06919  0.17877  0.73650  1.0000
  H   H383      1.0  0.06637  0.14392  0.79809  1.0000
  S   S90       1.0  0.00417  0.08224  0.74957  1.0000
  C   C324      1.0  0.23682  0.23727  0.96995  1.0000
  C   C325      1.0  0.34119  0.31089  0.90837  1.0000
  C   C326      1.0  0.22657  0.24822  0.96010  1.0000
  H   H384      1.0  0.33393  0.26960  0.91233  1.0000
  H   H385      1.0  0.07452  0.20579  0.75043  1.0000
  H   H386      1.0  0.04952  0.13989  0.74939  1.0000
  H   H387      1.0  0.15183  0.18020  0.77351  1.0000
  H   H388      1.0  0.19761  0.28769  0.87444  1.0000
  H   H389      1.0  0.20182  0.20475  0.96788  1.0000
  H   H390      1.0  0.03097  0.18279  0.79849  1.0000
  S   S91       1.0  0.01819  0.11407  0.84517  1.0000
  C   C327      1.0  0.20187  0.32352  0.97677  1.0000
  H   H391      1.0  0.12218  0.16803  0.78065  1.0000
  C   C328      1.0  0.05166  0.15171  0.75558  1.0000
  H   H392      1.0  0.02350  0.02366  0.82022  1.0000
  C   C329      1.0  0.25008  0.28368  0.95804  1.0000
  H   H393      1.0  0.27222  0.25802  0.88976  1.0000
  C   C330      1.0  0.12803  0.23481  0.76513  1.0000
  H   H394      1.0  0.27354  0.28345  0.97061  1.0000
  H   H395      1.0  0.21320  0.23958  0.95680  1.0000
  H   H396      1.0  0.31442  0.31876  0.96989  1.0000
  C   C331      1.0  0.12974  0.20272  0.75600  1.0000
  H   H397      1.0  0.02497  0.09185  0.82238  1.0000
  H   H398      1.0  0.03938  0.01083  0.75492  1.0000
  H   H399      1.0  0.00362  0.15236  0.79413  1.0000
  H   H400      1.0  0.21420  0.18322  0.97228  1.0000
  H   H401      1.0  0.40106  0.32205  0.97316  1.0000
  H   H402      1.0  0.31519  0.32582  0.88259  1.0000
  H   H403      1.0  0.16850  0.33036  0.92136  1.0000
  C   C332      1.0  0.01935  0.03376  0.82769  1.0000
  C   C333      1.0  0.27798  0.33217  0.87080  1.0000
  H   H404      1.0  0.02698  0.04251  0.85369  1.0000
  S   S92       1.0  0.34655  0.24369  0.98252  1.0000
  H   H405      1.0  0.26175  0.24384  0.98159  1.0000
  H   H406      1.0  0.21738  0.32643  0.86143  1.0000
  H   H407      1.0  0.19500  0.33063  0.92496  1.0000
  C   C334      1.0  0.01266  0.14139  0.79933  1.0000
  H   H408      1.0  0.01894  0.06585  0.86928  1.0000
  H   H409      1.0  0.15839  0.16707  0.74633  1.0000
  C   C335      1.0  0.31426  0.33513  0.97056  1.0000
  C   C336      1.0  0.20082  0.33120  0.89580  1.0000
  C   C337      1.0  0.20920  0.32177  0.87302  1.0000
  Fe  Fe48      1.0  0.36771  0.27345  0.98595  1.0000
  C   C338      1.0  0.48109  0.37289  0.18184  1.0000
  H   H410      1.0  0.48299  0.37992  0.22751  1.0000
  Fe  Fe49      1.0  0.02633  0.66098  0.99612  1.0000
  H   H411      1.0  0.49190  0.34645  0.17528  1.0000
  C   C339      1.0  0.45756  0.35495  0.12713  1.0000
  H   H412      1.0  0.47450  0.41979  0.11780  1.0000
  C   C340      1.0  0.46797  0.40899  0.12923  1.0000
  N   N23       1.0  0.47759  0.39000  0.13153  1.0000
  H   H413      1.0  0.49159  0.40168  0.10152  1.0000
  N   N24       1.0  0.48485  0.34662  0.22898  1.0000
  S   S93       1.0  0.01510  0.65977  0.01979  1.0000
  C   C341      1.0  0.45230  0.34300  0.11756  1.0000
  H   H414      1.0  0.45031  0.34677  0.13864  1.0000
  C   C342      1.0  0.46106  0.35212  0.10253  1.0000
  H   H415      1.0  0.46560  0.39551  0.19042  1.0000
  C   C343      1.0  0.46379  0.37862  0.19027  1.0000
  C   C344      1.0  0.47520  0.37324  0.09696  1.0000
  C   C345      1.0  0.47191  0.37662  0.12180  1.0000
  H   H416      1.0  0.48242  0.38003  0.08525  1.0000
  H   H417      1.0  0.47604  0.36330  0.14986  1.0000
  H   H418      1.0  0.43114  0.36693  0.20542  1.0000
  S   S94       1.0  0.50091  0.33656  0.04583  1.0000
  C   C346      1.0  0.49155  0.37041  0.22111  1.0000
  C   C347      1.0  0.44432  0.36248  0.19878  1.0000
  H   H419      1.0  0.47402  0.38817  0.15428  1.0000
  C   C348      1.0  0.46919  0.37772  0.14730  1.0000
  C   C349      1.0  0.48050  0.38540  0.10640  1.0000
  H   H420      1.0  0.47175  0.41941  0.13646  1.0000
  C   C350      1.0  0.38046  0.34326  0.98928  1.0000
  C   C351      1.0  0.47858  0.35110  0.18156  1.0000
  H   H421      1.0  0.44965  0.40341  0.13160  1.0000
  S   S95       1.0  0.02429  0.62913  0.99036  1.0000
  H   H422      1.0  0.32032  0.36751  0.99308  1.0000
  H   H423      1.0  0.45345  0.34166  0.22402  1.0000
  H   H424      1.0  0.45081  0.37208  0.15103  1.0000
  H   H425      1.0  0.48750  0.37324  0.21047  1.0000
  C   C352      1.0  0.46031  0.33939  0.23355  1.0000
  C   C353      1.0  0.44189  0.34066  0.19857  1.0000
  H   H426      1.0  0.45735  0.34257  0.09517  1.0000
  H   H427      1.0  0.38754  0.33900  0.99863  1.0000
  H   H428      1.0  0.36953  0.35392  0.99190  1.0000
  Fe  Fe50      1.0  0.26882  0.36341  0.34496  1.0000
  S   S96       1.0  0.23829  0.37121  0.34005  1.0000
  H   H429      1.0  0.20014  0.64383  0.44525  1.0000
  Fe  Fe51      1.0  0.29912  0.39297  0.31599  1.0000
  S   S97       1.0  0.27136  0.40338  0.30861  1.0000
  S   S98       1.0  0.33472  0.40498  0.30284  1.0000
  Fe  Fe52      1.0  0.25975  0.40621  0.33136  1.0000
  S   S99       1.0  0.24913  0.43632  0.33512  1.0000
  Fe  Fe53      1.0  0.25295  0.36758  0.31788  1.0000
  C   C354      1.0  0.35109  0.35569  0.31447  1.0000
  S   S100      1.0  0.28907  0.39838  0.33796  1.0000
  S   S101      1.0  0.28178  0.35718  0.32358  1.0000
  H   H430      1.0  0.39214  0.66285  0.45774  1.0000
  S   S102      1.0  0.01764  0.61605  0.29997  1.0000
  S   S103      1.0  0.00438  0.56414  0.31682  1.0000
  S   S104      1.0  0.23674  0.35132  0.30331  1.0000
  C   C355      1.0  0.26964  0.65344  0.45613  1.0000
  Fe  Fe54      1.0  0.02665  0.59504  0.31826  1.0000
  S   S105      1.0  0.06243  0.59957  0.31957  1.0000
  H   H431      1.0  0.02881  0.64748  0.31648  1.0000
  H   H432      1.0  0.06405  0.64381  0.35451  1.0000
  C   C356      1.0  0.23216  0.62701  0.35748  1.0000
  H   H433      1.0  0.30106  0.50887  0.44834  1.0000
  H   H434      1.0  0.38488  0.65432  0.43722  1.0000
  H   H435      1.0  0.26261  0.62069  0.45513  1.0000
  H   H436      1.0  0.18458  0.64446  0.42341  1.0000
  H   H437      1.0  0.04587  0.66015  0.32616  1.0000
  C   C357      1.0  0.18612  0.62736  0.42505  1.0000
  S   S106      1.0  0.33108  0.57755  0.45147  1.0000
  S   S107      1.0  0.13027  0.64234  0.39129  1.0000
  Fe  Fe55      1.0  0.15817  0.62682  0.38735  1.0000
  S   S108      1.0  0.15713  0.59421  0.40172  1.0000
  Fe  Fe56      1.0  0.27040  0.53975  0.39942  1.0000
  S   S109      1.0  0.30443  0.54661  0.38435  1.0000
  S   S110      1.0  0.26102  0.53132  0.42398  1.0000
  Fe  Fe57      1.0  0.24935  0.54730  0.37451  1.0000
  S   S111      1.0  0.28147  0.55461  0.35748  1.0000
  S   S112      1.0  0.21984  0.54991  0.36625  1.0000
  Fe  Fe58      1.0  0.28709  0.52583  0.37241  1.0000
  S   S113      1.0  0.30036  0.49885  0.36553  1.0000
  Fe  Fe59      1.0  0.29535  0.57470  0.37093  1.0000
  S   S114      1.0  0.31393  0.61009  0.35926  1.0000
  S   S115      1.0  0.25370  0.51692  0.38854  1.0000
  S   S116      1.0  0.26265  0.56933  0.38693  1.0000
  C   C358      1.0  0.17423  0.58146  0.39204  1.0000
  C   C359      1.0  0.17448  0.58210  0.37763  1.0000
  C   C360      1.0  0.18806  0.57177  0.36993  1.0000
  C   C361      1.0  0.20203  0.56149  0.37643  1.0000
  C   C362      1.0  0.20198  0.56102  0.39079  1.0000
  C   C363      1.0  0.18779  0.57070  0.39868  1.0000
  H   H438      1.0  0.16392  0.59015  0.37250  1.0000
  H   H439      1.0  0.18794  0.57197  0.35887  1.0000
  H   H440      1.0  0.21251  0.55278  0.39592  1.0000
  H   H441      1.0  0.18745  0.56996  0.40987  1.0000
  H   H442      1.0  0.04921  0.55635  0.34577  1.0000
  C   C364      1.0  0.32345  0.62749  0.36930  1.0000
  H   H443      1.0  0.08311  0.54484  0.34748  1.0000
  H   H444      1.0  0.33015  0.60233  0.38496  1.0000
  C   C365      1.0  0.31148  0.56475  0.44392  1.0000
  C   C366      1.0  0.31792  0.56455  0.42934  1.0000
  C   C367      1.0  0.30245  0.55463  0.42306  1.0000
  C   C368      1.0  0.28061  0.54434  0.43145  1.0000
  C   C369      1.0  0.27422  0.54433  0.44608  1.0000
  C   C370      1.0  0.28957  0.55471  0.45227  1.0000
  H   H445      1.0  0.33488  0.57223  0.42284  1.0000
  H   H446      1.0  0.30755  0.55468  0.41179  1.0000
  H   H447      1.0  0.25735  0.53634  0.45264  1.0000
  H   H448      1.0  0.28448  0.55463  0.46354  1.0000
  C   C371      1.0  0.07455  0.61353  0.33081  1.0000
  C   C372      1.0  0.06288  0.62408  0.33953  1.0000
  C   C373      1.0  0.07325  0.63560  0.34790  1.0000
  C   C374      1.0  0.09532  0.63648  0.34789  1.0000
  C   C375      1.0  0.10695  0.62569  0.33931  1.0000
  C   C376      1.0  0.09663  0.61438  0.33079  1.0000
  H   H449      1.0  0.04582  0.62330  0.33986  1.0000
  H   H450      1.0  0.32858  0.52473  0.48154  1.0000
  H   H451      1.0  0.12400  0.62640  0.33899  1.0000
  H   H452      1.0  0.10583  0.60628  0.32410  1.0000
  C   C377      1.0  0.32376  0.48744  0.31174  1.0000
  C   C378      1.0  0.26071  0.60837  0.35544  1.0000
  C   C379      1.0  0.23934  0.60962  0.33824  1.0000
  H   H453      1.0  0.26893  0.48144  0.46683  1.0000
  Fe  Fe60      1.0  0.31651  0.58426  0.47252  1.0000
  S   S117      1.0  0.26917  0.33890  0.36510  1.0000
  Fe  Fe61      1.0  0.13845  0.65390  0.36673  1.0000
  C   C380      1.0  0.27302  0.63709  0.44940  1.0000
  C   C381      1.0  0.26392  0.45400  0.34319  1.0000
  C   C382      1.0  0.25900  0.47404  0.34352  1.0000
  C   C383      1.0  0.27015  0.48812  0.35020  1.0000
  C   C384      1.0  0.28632  0.48221  0.35660  1.0000
  C   C385      1.0  0.29137  0.46230  0.35613  1.0000
  C   C386      1.0  0.28013  0.44822  0.34958  1.0000
  H   H454      1.0  0.24647  0.47867  0.33862  1.0000
  H   H455      1.0  0.26620  0.50349  0.35043  1.0000
  H   H456      1.0  0.30377  0.45756  0.36113  1.0000
  H   H457      1.0  0.28370  0.43267  0.34979  1.0000
  C   C387      1.0  0.34482  0.37833  0.26328  1.0000
  C   C388      1.0  0.36251  0.38430  0.26900  1.0000
  C   C389      1.0  0.35952  0.39315  0.28087  1.0000
  C   C390      1.0  0.33859  0.39490  0.28754  1.0000
  C   C391      1.0  0.32077  0.38836  0.28206  1.0000
  C   C392      1.0  0.32401  0.38058  0.26973  1.0000
  C   C393      1.0  0.33535  0.35055  0.35031  1.0000
  H   H458      1.0  0.37343  0.39847  0.28491  1.0000
  H   H459      1.0  0.30459  0.38980  0.28708  1.0000
  C   C394      1.0  0.07185  0.65877  0.30171  1.0000
  S   S118      1.0  0.43534  0.34006  0.27086  1.0000
  C   C395      1.0  0.34028  0.63423  0.38833  1.0000
  H   H460      1.0  0.34910  0.36413  0.34331  1.0000
  H   H461      1.0  0.31142  0.36891  0.34855  1.0000
  C   C396      1.0  0.33084  0.61958  0.38138  1.0000
  H   H462      1.0  0.32062  0.62014  0.43831  1.0000
  H   H463      1.0  0.36843  0.34389  0.39404  1.0000
  C   C397      1.0  0.20198  0.62716  0.44504  1.0000
  H   H464      1.0  0.24869  0.59290  0.36285  1.0000
  H   H465      1.0  0.21555  0.62405  0.44993  1.0000
  H   H466      1.0  0.18650  0.61515  0.45255  1.0000
  Fe  Fe62      1.0  0.37273  0.34767  0.24786  1.0000
  H   H467      1.0  0.17059  0.61628  0.43311  1.0000
  C   C398      1.0  0.24991  0.65800  0.39435  1.0000
  C   C399      1.0  0.33353  0.66447  0.37186  1.0000
  H   H468      1.0  0.34903  0.45729  0.29252  1.0000
  H   H469      1.0  0.33888  0.43874  0.31819  1.0000
  H   H470      1.0  0.25213  0.60638  0.32991  1.0000
  C   C400      1.0  0.23126  0.64254  0.40443  1.0000
  H   H471      1.0  0.36069  0.48372  0.29461  1.0000
  C   C401      1.0  0.30759  0.45237  0.30841  1.0000
  H   H472      1.0  0.33938  0.48031  0.28548  1.0000
  H   H473      1.0  0.34686  0.62816  0.39725  1.0000
  H   H474      1.0  0.28302  0.59062  0.43056  1.0000
  C   C402      1.0  0.31397  0.35329  0.35331  1.0000
  N   N25       1.0  0.29427  0.62509  0.42870  1.0000
  H   H475      1.0  0.26179  0.60230  0.43768  1.0000
  C   C403      1.0  0.32480  0.64996  0.36459  1.0000
  H   H476      1.0  0.36014  0.65602  0.43212  1.0000
  C   C404      1.0  0.34505  0.47237  0.29478  1.0000
  C   C405      1.0  0.22609  0.64125  0.41953  1.0000
  H   H477      1.0  0.28166  0.59669  0.44758  1.0000
  S   S119      1.0  0.33678  0.65889  0.47816  1.0000
  N   N26       1.0  0.32816  0.46700  0.30899  1.0000
  H   H478      1.0  0.33063  0.52993  0.45604  1.0000
  H   H479      1.0  0.23949  0.65609  0.32932  1.0000
  C   C406      1.0  0.30288  0.66404  0.43004  1.0000
  N   N27       1.0  0.09416  0.58064  0.38272  1.0000
  C   C407      1.0  0.09503  0.56083  0.39347  1.0000
  C   C408      1.0  0.11710  0.59324  0.37423  1.0000
  C   C409      1.0  0.08464  0.59466  0.39102  1.0000
  C   C410      1.0  0.08147  0.57403  0.37276  1.0000
  C   C411      1.0  0.06183  0.58027  0.37151  1.0000
  C   C412      1.0  0.08866  0.56082  0.36394  1.0000
  C   C413      1.0  0.05021  0.57353  0.36207  1.0000
  C   C414      1.0  0.07707  0.55448  0.35438  1.0000
  C   C415      1.0  0.05789  0.56082  0.35345  1.0000
  H   H480      1.0  0.10390  0.55043  0.38818  1.0000
  H   H481      1.0  0.10406  0.56526  0.40137  1.0000
  H   H482      1.0  0.07809  0.55047  0.39982  1.0000
  H   H483      1.0  0.12613  0.58360  0.36829  1.0000
  H   H484      1.0  0.12701  0.59844  0.38145  1.0000
  H   H485      1.0  0.11721  0.60829  0.36601  1.0000
  H   H486      1.0  0.06755  0.58604  0.39806  1.0000
  H   H487      1.0  0.09457  0.59931  0.39839  1.0000
  H   H488      1.0  0.08444  0.61037  0.38354  1.0000
  H   H489      1.0  0.05527  0.59070  0.37746  1.0000
  H   H490      1.0  0.10345  0.55548  0.36424  1.0000
  H   H491      1.0  0.40808  0.34931  0.29604  1.0000
  C   C416      1.0  0.26510  0.64335  0.33695  1.0000
  C   C417      1.0  0.39217  0.35071  0.30158  1.0000
  C   C418      1.0  0.03917  0.66339  0.31656  1.0000
  H   H492      1.0  0.03551  0.57879  0.36101  1.0000
  S   S120      1.0  0.00129  0.59998  0.33598  1.0000
  H   H493      1.0  0.31929  0.65623  0.35519  1.0000
  H   H494      1.0  0.31027  0.43660  0.30681  1.0000
  C   C419      1.0  0.28987  0.64194  0.43608  1.0000
  C   C420      1.0  0.30012  0.50575  0.45986  1.0000
  H   H495      1.0  0.32974  0.63916  0.42029  1.0000
  H   H496      1.0  0.19360  0.58970  0.43844  1.0000
  H   H497      1.0  0.22303  0.34238  0.27427  1.0000
  C   C421      1.0  0.29132  0.63107  0.41382  1.0000
  H   H498      1.0  0.23944  0.63859  0.36307  1.0000
  C   C422      1.0  0.28200  0.49039  0.47031  1.0000
  H   H499      1.0  0.22079  0.63172  0.40028  1.0000
  C   C423      1.0  0.27946  0.60277  0.43653  1.0000
  S   S121      1.0  0.30237  0.61298  0.47047  1.0000
  H   H500      1.0  0.37865  0.38272  0.26399  1.0000
  C   C424      1.0  0.31453  0.50064  0.30236  1.0000
  H   H501      1.0  0.31037  0.37634  0.26521  1.0000
  H   H502      1.0  0.26870  0.61684  0.36241  1.0000
  H   H503      1.0  0.29485  0.61884  0.40789  1.0000
  H   H504      1.0  0.22829  0.59337  0.34529  1.0000
  H   H505      1.0  0.26178  0.34351  0.26884  1.0000
  H   H506      1.0  0.20982  0.59908  0.41983  1.0000
  C   C425      1.0  0.05171  0.66801  0.27856  1.0000
  H   H507      1.0  0.25710  0.64932  0.46642  1.0000
  N   N28       1.0  0.23720  0.44096  0.39543  1.0000
  C   C426      1.0  0.22144  0.43192  0.41022  1.0000
  C   C427      1.0  0.25850  0.45357  0.39656  1.0000
  C   C428      1.0  0.22808  0.45670  0.38652  1.0000
  C   C429      1.0  0.24068  0.42266  0.38928  1.0000
  C   C430      1.0  0.25104  0.40726  0.39582  1.0000
  C   C431      1.0  0.23356  0.41920  0.37701  1.0000
  C   C432      1.0  0.25444  0.38979  0.39026  1.0000
  C   C433      1.0  0.23689  0.40157  0.37163  1.0000
  C   C434      1.0  0.24740  0.38699  0.37818  1.0000
  H   H508      1.0  0.22776  0.42100  0.41787  1.0000
  H   H509      1.0  0.21817  0.44523  0.41515  1.0000
  H   H510      1.0  0.20531  0.42209  0.40984  1.0000
  H   H511      1.0  0.26486  0.44412  0.40491  1.0000
  H   H512      1.0  0.25711  0.46888  0.39958  1.0000
  H   H513      1.0  0.27150  0.45857  0.38598  1.0000
  H   H514      1.0  0.21135  0.44878  0.38595  1.0000
  H   H515      1.0  0.22627  0.47065  0.39110  1.0000
  H   H516      1.0  0.23917  0.46403  0.37522  1.0000
  H   H517      1.0  0.25662  0.40863  0.40529  1.0000
  H   H518      1.0  0.22575  0.43005  0.37111  1.0000
  H   H519      1.0  0.26259  0.37833  0.39530  1.0000
  H   H520      1.0  0.23157  0.39946  0.36214  1.0000
  H   H521      1.0  0.25012  0.37349  0.37384  1.0000
  H   H522      1.0  0.31065  0.49613  0.29306  1.0000
  C   C435      1.0  0.37070  0.66174  0.43886  1.0000
  H   H523      1.0  0.22077  0.63447  0.35219  1.0000
  S   S122      1.0  0.16534  0.63655  0.36293  1.0000
  C   C436      1.0  0.30222  0.66881  0.32585  1.0000
  H   H524      1.0  0.21773  0.62478  0.48004  1.0000
  N   N29       1.0  0.20603  0.62495  0.42996  1.0000
  H   H525      1.0  0.36930  0.38654  0.31579  1.0000
  S   S123      1.0  0.40948  0.35636  0.23756  1.0000
  S   S124      1.0  0.34847  0.36810  0.24806  1.0000
  C   C437      1.0  0.31531  0.51444  0.47905  1.0000
  H   H526      1.0  0.29663  0.34401  0.25531  1.0000
  H   H527      1.0  0.45311  0.34908  0.24042  1.0000
  C   C438      1.0  0.28829  0.64877  0.33521  1.0000
  H   H528      1.0  0.27343  0.60324  0.34826  1.0000
  S   S125      1.0  0.18331  0.65547  0.38800  1.0000
  H   H529      1.0  0.36050  0.65477  0.45046  1.0000
  H   H530      1.0  0.30121  0.45953  0.29929  1.0000
  H   H531      1.0  0.29421  0.44850  0.31868  1.0000
  H   H532      1.0  0.22908  0.61819  0.33247  1.0000
  C   C439      1.0  0.37040  0.37178  0.31261  1.0000
  H   H533      1.0  0.31051  0.54117  0.31877  1.0000
  H   H534      1.0  0.35249  0.46369  0.32088  1.0000
  H   H535      1.0  0.22156  0.61178  0.36603  1.0000
  S   S126      1.0  0.10749  0.65181  0.35848  1.0000
  H   H536      1.0  0.30263  0.64719  0.40687  1.0000
  H   H537      1.0  0.06186  0.65667  0.27829  1.0000
  C   C440      1.0  0.31676  0.51764  0.46423  1.0000
  H   H538      1.0  0.29614  0.63786  0.34099  1.0000
  C   C441      1.0  0.20829  0.60249  0.43060  1.0000
  H   H539      1.0  0.22315  0.59995  0.43408  1.0000
  C   C442      1.0  0.33628  0.45428  0.32039  1.0000
  H   H540      1.0  0.06275  0.64215  0.30182  1.0000
  N   N30       1.0  0.24975  0.62244  0.34689  1.0000
  H   H541      1.0  0.33546  0.48611  0.33137  1.0000
  H   H542      1.0  0.18624  0.62306  0.41469  1.0000
  C   C443      1.0  0.34163  0.65670  0.38360  1.0000
  H   H543      1.0  0.32412  0.44945  0.33135  1.0000
  C   C444      1.0  0.32403  0.51428  0.32586  1.0000
  C   C445      1.0  0.30980  0.51977  0.30489  1.0000
  C   C446      1.0  0.31446  0.52652  0.31666  1.0000
  H   H544      1.0  0.32741  0.51948  0.33512  1.0000
  H   H545      1.0  0.30230  0.52932  0.29776  1.0000
  C   C447      1.0  0.24113  0.65599  0.42393  1.0000
  C   C448      1.0  0.32859  0.49498  0.32354  1.0000
  C   C449      1.0  0.31736  0.62377  0.42742  1.0000
  H   H546      1.0  0.23859  0.65654  0.43511  1.0000
  H   H547      1.0  0.27412  0.63191  0.41425  1.0000
  H   H548      1.0  0.04558  0.66460  0.25828  1.0000
  H   H549      1.0  0.40583  0.38212  0.30429  1.0000
  C   C450      1.0  0.39091  0.36936  0.30609  1.0000
  H   H550      1.0  0.32095  0.61050  0.42257  1.0000
  H   H551      1.0  0.33559  0.35895  0.31894  1.0000
  H   H552      1.0  0.40467  0.34543  0.39274  1.0000
  C   C451      1.0  0.25694  0.65901  0.32851  1.0000
  H   H553      1.0  0.25329  0.65907  0.38282  1.0000
  H   H554      1.0  0.48389  0.35155  0.25018  1.0000
  C   C452      1.0  0.49220  0.34346  0.24248  1.0000
  H   H555      1.0  0.43463  0.35102  0.40429  1.0000
  H   H556      1.0  0.31530  0.34493  0.30421  1.0000
  H   H557      1.0  0.07897  0.65614  0.31117  1.0000
  H   H558      1.0  0.31605  0.66891  0.41998  1.0000
  Fe  Fe63      1.0  0.18834  0.66709  0.36398  1.0000
  H   H559      1.0  0.08608  0.66558  0.29171  1.0000
  C   C453      1.0  0.35177  0.33623  0.31030  1.0000
  C   C454      1.0  0.28055  0.48675  0.48518  1.0000
  S   S127      1.0  0.32263  0.42367  0.68344  1.0000
  H   H560      1.0  0.30487  0.66083  0.51530  1.0000
  Fe  Fe64      1.0  0.21101  0.40953  0.61211  1.0000
  S   S128      1.0  0.24250  0.40529  0.61696  1.0000
  S   S129      1.0  0.17788  0.38651  0.62556  1.0000
  Fe  Fe65      1.0  0.23458  0.45074  0.58621  1.0000
  S   S130      1.0  0.26795  0.44950  0.58911  1.0000
  S   S131      1.0  0.22961  0.47740  0.56869  1.0000
  Fe  Fe66      1.0  0.25578  0.41339  0.59269  1.0000
  S   S132      1.0  0.27595  0.39296  0.58348  1.0000
  Fe  Fe67      1.0  0.25146  0.44179  0.61300  1.0000
  S   S133      1.0  0.27040  0.45856  0.62593  1.0000
  S   S134      1.0  0.22350  0.41482  0.58795  1.0000
  S   S135      1.0  0.21879  0.44573  0.61006  1.0000
  S   S136      1.0  0.26091  0.39783  0.69634  1.0000
  S   S137      1.0  0.27458  0.44224  0.70688  1.0000
  Fe  Fe68      1.0  0.24402  0.42131  0.70446  1.0000
  S   S138      1.0  0.22065  0.43392  0.69294  1.0000
  Fe  Fe69      1.0  0.29063  0.41657  0.70084  1.0000
  H   H561      1.0  0.19433  0.46196  0.72107  1.0000
  S   S139      1.0  0.28793  0.56210  0.49111  1.0000
  S   S140      1.0  0.36230  0.40006  0.60458  1.0000
  S   S141      1.0  0.01159  0.61581  0.60576  1.0000
  S   S142      1.0  0.00722  0.61342  0.71193  1.0000
  Fe  Fe70      1.0  0.35997  0.36603  0.61754  1.0000
  S   S143      1.0  0.29207  0.60387  0.50586  1.0000
  H   H562      1.0  0.42968  0.35141  0.62926  1.0000
  H   H563      1.0  0.42004  0.35975  0.59972  1.0000
  C   C455      1.0  0.12139  0.59628  0.72255  1.0000
  S   S144      1.0  0.23194  0.40026  0.72764  1.0000
  S   S145      1.0  0.22103  0.66878  0.51428  1.0000
  Fe  Fe71      1.0  0.30705  0.57545  0.50527  1.0000
  S   S146      1.0  0.31180  0.55290  0.52491  1.0000
  H   H564      1.0  0.26685  0.34067  0.61929  1.0000
  H   H565      1.0  0.21576  0.38828  0.69116  1.0000
  C   C456      1.0  0.39994  0.38993  0.66574  1.0000
  H   H566      1.0  0.45523  0.36755  0.55422  1.0000
  H   H567      1.0  0.02319  0.60969  0.63398  1.0000
  S   S147      1.0  0.02107  0.62356  0.67591  1.0000
  S   S148      1.0  0.24253  0.34183  0.72438  1.0000
  S   S149      1.0  0.38248  0.35893  0.63149  1.0000
  C   C457      1.0  0.01070  0.59502  0.64202  1.0000
  N   N31       1.0  0.01894  0.57517  0.64331  1.0000
  H   H568      1.0  0.45306  0.38272  0.57947  1.0000
  Fe  Fe72      1.0  0.25176  0.37853  0.71978  1.0000
  C   C458      1.0  0.45283  0.36633  0.58530  1.0000
  S   S150      1.0  0.05968  0.63302  0.69303  1.0000
  H   H569      1.0  0.28899  0.38808  0.67196  1.0000
  S   S151      1.0  0.07828  0.61207  0.66018  1.0000
  H   H570      1.0  0.03823  0.65134  0.71515  1.0000
  C   C459      1.0  0.03914  0.57904  0.64846  1.0000
  C   C460      1.0  0.48518  0.35293  0.50703  1.0000
  C   C461      1.0  0.06571  0.63850  0.63926  1.0000
  C   C462      1.0  0.08306  0.63469  0.64506  1.0000
  C   C463      1.0  0.10581  0.64246  0.72831  1.0000
  C   C464      1.0  0.43918  0.34555  0.63690  1.0000
  H   H571      1.0  0.17245  0.66827  0.51820  1.0000
  H   H572      1.0  0.04917  0.62802  0.64447  1.0000
  H   H573      1.0  0.23513  0.50521  0.73104  1.0000
  H   H574      1.0  0.31387  0.41833  0.65632  1.0000
  C   C465      1.0  0.32239  0.40308  0.63375  1.0000
  H   H575      1.0  0.24691  0.45771  0.72972  1.0000
  H   H576      1.0  0.31481  0.34460  0.69690  1.0000
  Fe  Fe73      1.0  0.00277  0.59474  0.69546  1.0000
  S   S152      1.0  0.33711  0.59520  0.48661  1.0000
  H   H577      1.0  0.23672  0.38705  0.66636  1.0000
  H   H578      1.0  0.27366  0.51519  0.50930  1.0000
  C   C466      1.0  0.26482  0.33845  0.66933  1.0000
  H   H579      1.0  0.05325  0.59191  0.64014  1.0000
  H   H580      1.0  0.19383  0.39561  0.68435  1.0000
  C   C467      1.0  0.22410  0.64613  0.50802  1.0000
  C   C468      1.0  0.21811  0.64376  0.49545  1.0000
  S   S153      1.0  0.49322  0.37363  0.56585  1.0000
  C   C469      1.0  0.21802  0.34902  0.60048  1.0000
  C   C470      1.0  0.23834  0.61415  0.50929  1.0000
  C   C471      1.0  0.23360  0.63096  0.51519  1.0000
  C   C472      1.0  0.15214  0.36626  0.66468  1.0000
  C   C473      1.0  0.31369  0.50871  0.50904  1.0000
  H   H581      1.0  0.24606  0.60267  0.51469  1.0000
  H   H582      1.0  0.23801  0.63262  0.52501  1.0000
  C   C474      1.0  0.46351  0.34034  0.51008  1.0000
  H   H583      1.0  0.18103  0.39104  0.66201  1.0000
  H   H584      1.0  0.39305  0.40253  0.66908  1.0000
  H   H585      1.0  0.35006  0.64355  0.50475  1.0000
  C   C475      1.0  0.23485  0.46444  0.72479  1.0000
  C   C476      1.0  0.33728  0.36069  0.67559  1.0000
  H   H586      1.0  0.22147  0.37283  0.65628  1.0000
  C   C477      1.0  0.34391  0.40031  0.66775  1.0000
  C   C478      1.0  0.32890  0.39951  0.68075  1.0000
  C   C479      1.0  0.31827  0.37929  0.69120  1.0000
  C   C480      1.0  0.32281  0.36003  0.68871  1.0000
  N   N32       1.0  0.42547  0.33879  0.65234  1.0000
  H   H587      1.0  0.35224  0.41593  0.65964  1.0000
  H   H588      1.0  0.30666  0.37847  0.70125  1.0000
  H   H589      1.0  0.48456  0.36083  0.54003  1.0000
  H   H590      1.0  0.28491  0.36651  0.63354  1.0000
  H   H591      1.0  0.22911  0.35704  0.68649  1.0000
  S   S154      1.0  0.03259  0.58204  0.69733  1.0000
  S   S155      1.0  0.34249  0.33626  0.67267  1.0000
  C   C481      1.0  0.25256  0.49792  0.55617  1.0000
  C   C482      1.0  0.27415  0.49783  0.55650  1.0000
  C   C483      1.0  0.29212  0.51497  0.54703  1.0000
  C   C484      1.0  0.28872  0.53196  0.53676  1.0000
  C   C485      1.0  0.26719  0.53176  0.53602  1.0000
  C   C486      1.0  0.24913  0.51487  0.54582  1.0000
  H   H592      1.0  0.27702  0.48457  0.56407  1.0000
  H   H593      1.0  0.30876  0.51497  0.54756  1.0000
  H   H594      1.0  0.26441  0.54480  0.52811  1.0000
  H   H595      1.0  0.23246  0.51500  0.54543  1.0000
  C   C487      1.0  0.30055  0.39560  0.58864  1.0000
  C   C488      1.0  0.31103  0.41526  0.59078  1.0000
  C   C489      1.0  0.33062  0.41697  0.59506  1.0000
  C   C490      1.0  0.33927  0.39879  0.59768  1.0000
  C   C491      1.0  0.32855  0.37909  0.59576  1.0000
  C   C492      1.0  0.30948  0.37764  0.59096  1.0000
  H   H596      1.0  0.30431  0.42925  0.58888  1.0000
  H   H597      1.0  0.33881  0.43221  0.59662  1.0000
  H   H598      1.0  0.33506  0.36499  0.59779  1.0000
  H   H599      1.0  0.30158  0.36249  0.58922  1.0000
  C   C493      1.0  0.25601  0.45275  0.64436  1.0000
  C   C494      1.0  0.26797  0.45575  0.65440  1.0000
  C   C495      1.0  0.25707  0.44988  0.66932  1.0000
  C   C496      1.0  0.23403  0.44210  0.67417  1.0000
  C   C497      1.0  0.22190  0.44001  0.66406  1.0000
  C   C498      1.0  0.23294  0.44487  0.64916  1.0000
  H   H600      1.0  0.28579  0.46215  0.65071  1.0000
  H   H601      1.0  0.26654  0.45165  0.67705  1.0000
  H   H602      1.0  0.20405  0.43418  0.66776  1.0000
  H   H603      1.0  0.22359  0.44273  0.64142  1.0000
  C   C499      1.0  0.17481  0.35832  0.63346  1.0000
  H   H604      1.0  0.05664  0.65761  0.62164  1.0000
  C   C500      1.0  0.29713  0.49873  0.49003  1.0000
  H   H605      1.0  0.31041  0.43762  0.64157  1.0000
  C   C501      1.0  0.16866  0.33762  0.68254  1.0000
  H   H606      1.0  0.20231  0.34053  0.69606  1.0000
  H   H607      1.0  0.20775  0.36164  0.63582  1.0000
  C   C502      1.0  0.25081  0.34258  0.61732  1.0000
  H   H608      1.0  0.12478  0.60606  0.71134  1.0000
  H   H609      1.0  0.29745  0.66826  0.49279  1.0000
  C   C503      1.0  0.28869  0.41109  0.63027  1.0000
  S   S156      1.0  0.28278  0.39564  0.72394  1.0000
  H   H610      1.0  0.22951  0.61917  0.73394  1.0000
  H   H611      1.0  0.26889  0.35151  0.68721  1.0000
  C   C504      1.0  0.02573  0.57210  0.62854  1.0000
  N   N33       1.0  0.27782  0.51721  0.59288  1.0000
  C   C505      1.0  0.25592  0.50097  0.59709  1.0000
  C   C506      1.0  0.29504  0.50552  0.58951  1.0000
  C   C507      1.0  0.27996  0.52503  0.60573  1.0000
  C   C508      1.0  0.28083  0.53620  0.58021  1.0000
  C   C509      1.0  0.26366  0.53936  0.57358  1.0000
  C   C510      1.0  0.30153  0.55227  0.57409  1.0000
  C   C511      1.0  0.26729  0.55727  0.56144  1.0000
  C   C512      1.0  0.30506  0.56989  0.56178  1.0000
  C   C513      1.0  0.28800  0.57231  0.55543  1.0000
  H   H612      1.0  0.25332  0.49416  0.58796  1.0000
  H   H613      1.0  0.25425  0.48679  0.60650  1.0000
  H   H614      1.0  0.24209  0.50820  0.60058  1.0000
  H   H615      1.0  0.29522  0.50093  0.57923  1.0000
  H   H616      1.0  0.29224  0.49015  0.59833  1.0000
  H   H617      1.0  0.31193  0.51546  0.58826  1.0000
  H   H618      1.0  0.26746  0.53411  0.60856  1.0000
  H   H619      1.0  0.27750  0.51104  0.61554  1.0000
  H   H620      1.0  0.29657  0.53619  0.60382  1.0000
  H   H621      1.0  0.24743  0.52793  0.57725  1.0000
  H   H622      1.0  0.31528  0.55115  0.57862  1.0000
  H   H623      1.0  0.25417  0.55900  0.55630  1.0000
  H   H624      1.0  0.32123  0.58151  0.55693  1.0000
  H   H625      1.0  0.29099  0.58558  0.54562  1.0000
  H   H626      1.0  0.21456  0.33903  0.67804  1.0000
  C   C514      1.0  0.41499  0.39491  0.65208  1.0000
  H   H627      1.0  0.04475  0.56385  0.65106  1.0000
  H   H628      1.0  0.25941  0.48696  0.51263  1.0000
  H   H629      1.0  0.18784  0.37152  0.69937  1.0000
  C   C515      1.0  0.19827  0.33778  0.72590  1.0000
  C   C516      1.0  0.42343  0.37857  0.64756  1.0000
  Fe  Fe74      1.0  0.02773  0.64116  0.69239  1.0000
  H   H630      1.0  0.03660  0.58515  0.65827  1.0000
  H   H631      1.0  0.01173  0.55577  0.67330  1.0000
  H   H632      1.0  0.09257  0.57355  0.72182  1.0000
  H   H633      1.0  0.28068  0.45940  0.51133  1.0000
  H   H634      1.0  0.31437  0.52640  0.50495  1.0000
  C   C517      1.0  0.30278  0.42080  0.64922  1.0000
  H   H635      1.0  0.25492  0.64017  0.72340  1.0000
  C   C518      1.0  0.28334  0.37623  0.66653  1.0000
  H   H636      1.0  0.14591  0.37726  0.65748  1.0000
  C   C519      1.0  0.28079  0.36412  0.64519  1.0000
  H   H637      1.0  0.19649  0.36771  0.59297  1.0000
  H   H638      1.0  0.27158  0.41120  0.63562  1.0000
  H   H639      1.0  0.45456  0.35866  0.63488  1.0000
  C   C520      1.0  0.23296  0.61215  0.49648  1.0000
  H   H640      1.0  0.11785  0.65576  0.71964  1.0000
  C   C521      1.0  0.10328  0.57789  0.72847  1.0000
  H   H641      1.0  0.42777  0.35408  0.56528  1.0000
  C   C522      1.0  0.34769  0.38086  0.66502  1.0000
  C   C523      1.0  0.19865  0.47067  0.72907  1.0000
  C   C524      1.0  0.39322  0.36858  0.67495  1.0000
  H   H642      1.0  0.14247  0.63729  0.53314  1.0000
  C   C525      1.0  0.17258  0.37388  0.66711  1.0000
  H   H643      1.0  0.41989  0.41151  0.64485  1.0000
  C   C526      1.0  0.40153  0.35211  0.67057  1.0000
  H   H644      1.0  0.49656  0.35653  0.49629  1.0000
  H   H645      1.0  0.35901  0.38151  0.65487  1.0000
  N   N34       1.0  0.20329  0.36804  0.67850  1.0000
  H   H646      1.0  0.08704  0.63237  0.71403  1.0000
  C   C527      1.0  0.22006  0.38186  0.66469  1.0000
  Fe  Fe75      1.0  0.32054  0.62249  0.48606  1.0000
  C   C528      1.0  0.18177  0.35963  0.67584  1.0000
  H   H647      1.0  0.02985  0.55614  0.62917  1.0000
  C   C529      1.0  0.14012  0.34439  0.67100  1.0000
  H   H648      1.0  0.24312  0.48185  0.71860  1.0000
  N   N35       1.0  0.30012  0.40379  0.64136  1.0000
  S   S157      1.0  0.03180  0.66754  0.56980  1.0000
  H   H649      1.0  0.28700  0.47023  0.72844  1.0000
  C   C530      1.0  0.15421  0.34361  0.63601  1.0000
  Fe  Fe76      1.0  0.03912  0.60402  0.71168  1.0000
  C   C531      1.0  0.04707  0.66146  0.72091  1.0000
  S   S158      1.0  0.32896  0.34855  0.63554  1.0000
  Fe  Fe77      1.0  0.05100  0.61221  0.67873  1.0000
  C   C532      1.0  0.10443  0.64854  0.63843  1.0000
  H   H650      1.0  0.13014  0.63486  0.55191  1.0000
  H   H651      1.0  0.32149  0.39170  0.62687  1.0000
  C   C533      1.0  0.43908  0.35745  0.55415  1.0000
  H   H652      1.0  0.45331  0.34599  0.66088  1.0000
  C   C534      1.0  0.28772  0.38157  0.65110  1.0000
  C   C535      1.0  0.29525  0.47129  0.51203  1.0000
  H   H653      1.0  0.33266  0.41947  0.62641  1.0000
  S   S159      1.0  0.36082  0.33756  0.60821  1.0000
  C   C536      1.0  0.13449  0.60268  0.73124  1.0000
  H   H654      1.0  0.23218  0.36317  0.59581  1.0000
  H   H655      1.0  0.31172  0.50538  0.52098  1.0000
  H   H656      1.0  0.17735  0.63835  0.53764  1.0000
  H   H657      1.0  0.29467  0.46766  0.52382  1.0000
  Fe  Fe78      1.0  0.03376  0.64848  0.59141  1.0000
  H   H658      1.0  0.32820  0.66083  0.53165  1.0000
  C   C537      1.0  0.20007  0.38145  0.68876  1.0000
  N   N36       1.0  0.44093  0.33688  0.55038  1.0000
  N   N37       1.0  0.29528  0.49440  0.50584  1.0000
  H   H659      1.0  0.14798  0.61758  0.72679  1.0000
  C   C538      1.0  0.27433  0.49797  0.51358  1.0000
  H   H660      1.0  0.31039  0.46769  0.50617  1.0000
  H   H661      1.0  0.23173  0.45572  0.71655  1.0000
  C   C539      1.0  0.19187  0.35037  0.63767  1.0000
  C   C540      1.0  0.01332  0.66918  0.73136  1.0000
  C   C541      1.0  0.17440  0.64866  0.54517  1.0000
  C   C542      1.0  0.08825  0.62927  0.72511  1.0000
  H   H662      1.0  0.29542  0.56249  0.72687  1.0000
  H   H663      1.0  0.43275  0.36787  0.54620  1.0000
  H   H664      1.0  0.23909  0.34094  0.62796  1.0000
  C   C543      1.0  0.27195  0.35503  0.67546  1.0000
  H   H665      1.0  0.29745  0.42804  0.62310  1.0000
  C   C544      1.0  0.06993  0.65543  0.62641  1.0000
  H   H666      1.0  0.25134  0.60281  0.72159  1.0000
  S   S160      1.0  0.07033  0.65338  0.58407  1.0000
  C   C545      1.0  0.13881  0.64690  0.54103  1.0000
  H   H667      1.0  0.32999  0.50620  0.50418  1.0000
  C   C546      1.0  0.27299  0.58236  0.72302  1.0000
  C   C547      1.0  0.47804  0.35494  0.53193  1.0000
  C   C548      1.0  0.49248  0.36006  0.51796  1.0000
  H   H668      1.0  0.38093  0.36465  0.68538  1.0000
  H   H669      1.0  0.27253  0.49483  0.52550  1.0000
  S   S161      1.0  0.04931  0.59580  0.73285  1.0000
  C   C549      1.0  0.26272  0.59777  0.72741  1.0000
  C   C550      1.0  0.41674  0.35651  0.65667  1.0000
  C   C551      1.0  0.21270  0.35033  0.68497  1.0000
  H   H670      1.0  0.28658  0.42090  0.65609  1.0000
  H   H671      1.0  0.28799  0.40082  0.62266  1.0000
  H   H672      1.0  0.43484  0.38360  0.63678  1.0000
  C   C552      1.0  0.47101  0.35801  0.58120  1.0000
  Fe  Fe79      1.0  0.26387  0.41956  0.72974  1.0000
  H   H673      1.0  0.33151  0.39724  0.64160  1.0000
  C   C553      1.0  0.43412  0.35333  0.59673  1.0000
  H   H674      1.0  0.20010  0.35305  0.72877  1.0000
  H   H675      1.0  0.21616  0.39738  0.66003  1.0000
  C   C554      1.0  0.47065  0.33685  0.58881  1.0000
  H   H676      1.0  0.04042  0.58545  0.62121  1.0000
  H   H677      1.0  0.01285  0.57292  0.62265  1.0000
  H   H678      1.0  0.14094  0.34963  0.63288  1.0000
  Fe  Fe80      1.0  0.35133  0.33847  0.64874  1.0000
  C   C555      1.0  0.26942  0.34294  0.65422  1.0000
  H   H679      1.0  0.26624  0.47455  0.49285  1.0000
  H   H680      1.0  0.26943  0.57615  0.71418  1.0000
  C   C556      1.0  0.35783  0.66093  0.49993  1.0000
  H   H681      1.0  0.00653  0.59864  0.65272  1.0000
  C   C557      1.0  0.28774  0.57473  0.73007  1.0000
  S   S162      1.0  0.24146  0.59310  0.48802  1.0000
  C   C558      1.0  0.45578  0.34225  0.53543  1.0000
  H   H682      1.0  0.27382  0.66431  0.50804  1.0000
  H   H683      1.0  0.20581  0.48831  0.72291  1.0000
  C   C559      1.0  0.24373  0.63159  0.73457  1.0000
  H   H684      1.0  0.25431  0.35972  0.61044  1.0000
  H   H685      1.0  0.34481  0.34419  0.72832  1.0000
  C   C560      1.0  0.22211  0.62645  0.48987  1.0000
  H   H686      1.0  0.26044  0.34669  0.58864  1.0000
  C   C561      1.0  0.19772  0.35174  0.59859  1.0000
  H   H687      1.0  0.16762  0.63763  0.55654  1.0000
  H   H688      1.0  0.21058  0.65534  0.48994  1.0000
  H   H689      1.0  0.29884  0.50825  0.73018  1.0000
  H   H690      1.0  0.11788  0.64562  0.64292  1.0000
  Fe  Fe81      1.0  0.27530  0.59201  0.49012  1.0000
  H   H691      1.0  0.06114  0.65476  0.72246  1.0000
  H   H692      1.0  0.37346  0.66426  0.51707  1.0000
  H   H693      1.0  0.00425  0.65872  0.72579  1.0000
  H   H694      1.0  0.12709  0.65596  0.53744  1.0000
  C   C562      1.0  0.10839  0.66632  0.62608  1.0000
  H   H695      1.0  0.28608  0.64786  0.73589  1.0000
  N   N38       1.0  0.15923  0.66210  0.54141  1.0000
  H   H696      1.0  0.19108  0.65888  0.54419  1.0000
  H   H697      1.0  0.11882  0.66359  0.55927  1.0000
  N   N39       1.0  0.03215  0.66115  0.73486  1.0000
  H   H698      1.0  0.12455  0.33841  0.66879  1.0000
  H   H699      1.0  0.20131  0.42916  0.73426  1.0000
  H   H700      1.0  0.16303  0.33647  0.60312  1.0000
  Fe  Fe82      1.0  0.23878  0.35075  0.93730  1.0000
  Fe  Fe83      1.0  0.25243  0.39925  0.91966  1.0000
  S   S163      1.0  0.28760  0.39899  0.91131  1.0000
  S   S164      1.0  0.24312  0.43082  0.91195  1.0000
  Fe  Fe84      1.0  0.27368  0.36634  0.90831  1.0000
  S   S165      1.0  0.28807  0.35864  0.88765  1.0000
  Fe  Fe85      1.0  0.28344  0.38005  0.93435  1.0000
  S   S166      1.0  0.30928  0.39143  0.94501  1.0000
  S   S167      1.0  0.23865  0.36800  0.91461  1.0000
  S   S168      1.0  0.24885  0.38217  0.94312  1.0000
  Fe  Fe86      1.0  0.15184  0.61104  0.78765  1.0000
  S   S169      1.0  0.13842  0.57472  0.79745  1.0000
  C   C563      1.0  0.31076  0.37145  0.95987  1.0000
  S   S170      1.0  0.12631  0.63004  0.78853  1.0000
  Fe  Fe87      1.0  0.28207  0.53414  0.80636  1.0000
  S   S171      1.0  0.30210  0.55737  0.78440  1.0000
  S   S172      1.0  0.29290  0.52368  0.82659  1.0000
  Fe  Fe88      1.0  0.23878  0.53060  0.79857  1.0000
  S   S173      1.0  0.25448  0.55344  0.77615  1.0000
  S   S174      1.0  0.20256  0.51483  0.80802  1.0000
  Fe  Fe89      1.0  0.28041  0.53478  0.77552  1.0000
  S   S175      1.0  0.29262  0.52679  0.75430  1.0000
  Fe  Fe90      1.0  0.27456  0.57382  0.78685  1.0000
  S   S176      1.0  0.27508  0.60935  0.78407  1.0000
  S   S177      1.0  0.26289  0.51017  0.79736  1.0000
  S   S178      1.0  0.25631  0.55235  0.80935  1.0000
  H   H701      1.0  0.09739  0.56491  0.78895  1.0000
  H   H702      1.0  0.30416  0.47137  0.83985  1.0000
  S   S179      1.0  0.18332  0.61451  0.90461  1.0000
  H   H703      1.0  0.13196  0.54268  0.76310  1.0000
  N   N40       1.0  0.10662  0.55929  0.76780  1.0000
  H   H704      1.0  0.29259  0.53223  0.94646  1.0000
  C   C564      1.0  0.23344  0.50757  0.75251  1.0000
  C   C565      1.0  0.21613  0.47441  0.77229  1.0000
  H   H705      1.0  0.24764  0.60211  0.76684  1.0000
  Fe  Fe91      1.0  0.33524  0.59884  0.89765  1.0000
  S   S180      1.0  0.30653  0.61140  0.89333  1.0000
  S   S181      1.0  0.36981  0.61818  0.89577  1.0000
  Fe  Fe92      1.0  0.31113  0.55078  0.90134  1.0000
  S   S182      1.0  0.28078  0.55961  0.89703  1.0000
  S   S183      1.0  0.31572  0.51657  0.90738  1.0000
  Fe  Fe93      1.0  0.30437  0.58845  0.87934  1.0000
  S   S184      1.0  0.30056  0.60013  0.85682  1.0000
  Fe  Fe94      1.0  0.28569  0.58139  0.91147  1.0000
  S   S185      1.0  0.25546  0.57800  0.92926  1.0000
  S   S186      1.0  0.33447  0.57778  0.88229  1.0000
  S   S187      1.0  0.31456  0.57066  0.91709  1.0000
  C   C566      1.0  0.28218  0.59783  0.74598  1.0000
  C   C567      1.0  0.36638  0.38332  0.95222  1.0000
  H   H706      1.0  0.28912  0.66858  0.80205  1.0000
  S   S188      1.0  0.26075  0.42921  0.75076  1.0000
  H   H707      1.0  0.21531  0.42961  0.74812  1.0000
  C   C568      1.0  0.37696  0.35585  0.94142  1.0000
  C   C569      1.0  0.09825  0.56569  0.74309  1.0000
  C   C570      1.0  0.33790  0.66096  0.85360  1.0000
  H   H708      1.0  0.23190  0.50949  0.95823  1.0000
  H   H709      1.0  0.26859  0.47271  0.87448  1.0000
  C   C571      1.0  0.37986  0.64246  0.90038  1.0000
  N   N41       1.0  0.25589  0.62166  0.74442  1.0000
  H   H710      1.0  0.31792  0.45237  0.84795  1.0000
  C   C572      1.0  0.28701  0.51442  0.94739  1.0000
  C   C573      1.0  0.02306  0.63809  0.74422  1.0000
  C   C574      1.0  0.26880  0.46930  0.94984  1.0000
  C   C575      1.0  0.38750  0.34976  0.95219  1.0000
  H   H711      1.0  0.11544  0.63202  0.93888  1.0000
  C   C576      1.0  0.26711  0.60606  0.73905  1.0000
  C   C577      1.0  0.23532  0.47654  0.94479  1.0000
  C   C578      1.0  0.20365  0.60409  0.91090  1.0000
  C   C579      1.0  0.19742  0.58407  0.92180  1.0000
  C   C580      1.0  0.21339  0.57615  0.92749  1.0000
  C   C581      1.0  0.23573  0.58775  0.92182  1.0000
  C   C582      1.0  0.24208  0.60735  0.91053  1.0000
  C   C583      1.0  0.22597  0.61581  0.90535  1.0000
  H   H712      1.0  0.18017  0.57497  0.92610  1.0000
  H   H713      1.0  0.20848  0.56095  0.93619  1.0000
  H   H714      1.0  0.25931  0.61648  0.90625  1.0000
  H   H715      1.0  0.23089  0.63141  0.89711  1.0000
  C   C584      1.0  0.28456  0.49947  0.75347  1.0000
  C   C585      1.0  0.27295  0.48219  0.76602  1.0000
  C   C586      1.0  0.26608  0.46074  0.76500  1.0000
  C   C587      1.0  0.27082  0.45631  0.75146  1.0000
  H   H716      1.0  0.21999  0.35421  0.87502  1.0000
  H   H717      1.0  0.27013  0.54004  0.93147  1.0000
  H   H718      1.0  0.26911  0.48531  0.77651  1.0000
  H   H719      1.0  0.25691  0.44753  0.77477  1.0000
  C   C588      1.0  0.29531  0.54497  0.83494  1.0000
  C   C589      1.0  0.29373  0.54030  0.84987  1.0000
  C   C590      1.0  0.29570  0.55725  0.85657  1.0000
  C   C591      1.0  0.29895  0.57892  0.84841  1.0000
  C   C592      1.0  0.30058  0.58362  0.83347  1.0000
  C   C593      1.0  0.29870  0.56669  0.82675  1.0000
  H   H720      1.0  0.29072  0.52357  0.85635  1.0000
  H   H721      1.0  0.29457  0.55345  0.86808  1.0000
  H   H722      1.0  0.30389  0.60039  0.82699  1.0000
  H   H723      1.0  0.30035  0.57049  0.81515  1.0000
  H   H724      1.0  0.32153  0.60833  0.77750  1.0000
  H   H725      1.0  0.22658  0.59649  0.75799  1.0000
  H   H726      1.0  0.16287  0.66072  0.94691  1.0000
  C   C594      1.0  0.35725  0.64629  0.83564  1.0000
  C   C595      1.0  0.10096  0.57354  0.77712  1.0000
  C   C596      1.0  0.27203  0.62413  0.81701  1.0000
  C   C597      1.0  0.09231  0.62126  0.75368  1.0000
  C   C598      1.0  0.12639  0.55242  0.77047  1.0000
  H   H727      1.0  0.23157  0.62116  0.76367  1.0000
  H   H728      1.0  0.06230  0.59515  0.75921  1.0000
  H   H729      1.0  0.09357  0.61842  0.76474  1.0000
  H   H730      1.0  0.29882  0.51145  0.93833  1.0000
  C   C599      1.0  0.21890  0.47319  0.74704  1.0000
  H   H731      1.0  0.28033  0.44053  0.88593  1.0000
  H   H732      1.0  0.35782  0.39611  0.95228  1.0000
  H   H733      1.0  0.31586  0.50222  0.84536  1.0000
  C   C600      1.0  0.15712  0.55913  0.80045  1.0000
  C   C601      1.0  0.18007  0.56842  0.79586  1.0000
  C   C602      1.0  0.19437  0.55498  0.79814  1.0000
  C   C603      1.0  0.18560  0.53238  0.80502  1.0000
  C   C604      1.0  0.16271  0.52335  0.80972  1.0000
  C   C605      1.0  0.14853  0.53665  0.80740  1.0000
  H   H734      1.0  0.18674  0.58584  0.79049  1.0000
  H   H735      1.0  0.21209  0.56203  0.79455  1.0000
  H   H736      1.0  0.15592  0.50593  0.81508  1.0000
  H   H737      1.0  0.13082  0.52946  0.81102  1.0000
  C   C606      1.0  0.26315  0.45476  0.91069  1.0000
  C   C607      1.0  0.28163  0.45326  0.91577  1.0000
  C   C608      1.0  0.29751  0.47236  0.91470  1.0000
  C   C609      1.0  0.29521  0.49315  0.90840  1.0000
  C   C610      1.0  0.27686  0.49473  0.90313  1.0000
  C   C611      1.0  0.26077  0.47556  0.90439  1.0000
  H   H738      1.0  0.28348  0.43739  0.92087  1.0000
  H   H739      1.0  0.31161  0.47099  0.91884  1.0000
  H   H740      1.0  0.27508  0.51067  0.89806  1.0000
  H   H741      1.0  0.24651  0.47683  0.90042  1.0000
  C   C612      1.0  0.08789  0.53918  0.77259  1.0000
  C   C613      1.0  0.20418  0.43750  0.74271  1.0000
  H   H742      1.0  0.27017  0.60895  0.82571  1.0000
  C   C614      1.0  0.27230  0.64000  0.74609  1.0000
  Fe  Fe95      1.0  0.14489  0.64764  0.76516  1.0000
  C   C615      1.0  0.28779  0.43917  0.87490  1.0000
  H   H743      1.0  0.27748  0.48418  0.85498  1.0000
  H   H744      1.0  0.12310  0.54232  0.78196  1.0000
  H   H745      1.0  0.08504  0.53010  0.78426  1.0000
  C   C616      1.0  0.31948  0.47400  0.87841  1.0000
  C   C617      1.0  0.33500  0.49070  0.88047  1.0000
  C   C618      1.0  0.33631  0.51492  0.85746  1.0000
  C   C619      1.0  0.34316  0.51118  0.87013  1.0000
  H   H746      1.0  0.31336  0.45881  0.88713  1.0000
  H   H747      1.0  0.34008  0.48804  0.89045  1.0000
  H   H748      1.0  0.34245  0.53096  0.84948  1.0000
  H   H749      1.0  0.35452  0.52427  0.87211  1.0000
  N   N42       1.0  0.20757  0.55771  0.84361  1.0000
  C   C620      1.0  0.18410  0.55524  0.84351  1.0000
  C   C621      1.0  0.22143  0.57539  0.83033  1.0000
  C   C622      1.0  0.21274  0.53668  0.84270  1.0000
  C   C623      1.0  0.21242  0.56315  0.85670  1.0000
  C   C624      1.0  0.19638  0.56707  0.86767  1.0000
  C   C625      1.0  0.23392  0.56499  0.85866  1.0000
  C   C626      1.0  0.20157  0.57201  0.87994  1.0000
  C   C627      1.0  0.23885  0.56984  0.87099  1.0000
  C   C628      1.0  0.22269  0.57320  0.88164  1.0000
  H   H750      1.0  0.17929  0.57083  0.84324  1.0000
  H   H751      1.0  0.18102  0.55068  0.83365  1.0000
  H   H752      1.0  0.17268  0.54199  0.85316  1.0000
  H   H753      1.0  0.21839  0.59154  0.83078  1.0000
  H   H754      1.0  0.21794  0.57216  0.82023  1.0000
  H   H755      1.0  0.23936  0.57703  0.82894  1.0000
  H   H756      1.0  0.20326  0.52311  0.85276  1.0000
  H   H757      1.0  0.20859  0.53168  0.83323  1.0000
  H   H758      1.0  0.23057  0.53757  0.84123  1.0000
  H   H759      1.0  0.17971  0.56644  0.86707  1.0000
  H   H760      1.0  0.24716  0.56265  0.85070  1.0000
  H   H761      1.0  0.18919  0.57509  0.88818  1.0000
  H   H762      1.0  0.25537  0.57106  0.87227  1.0000
  H   H763      1.0  0.22661  0.57701  0.89118  1.0000
  H   H764      1.0  0.35148  0.65540  0.90055  1.0000
  H   H765      1.0  0.22474  0.48713  0.94267  1.0000
  H   H766      1.0  0.18302  0.46921  0.73730  1.0000
  H   H767      1.0  0.30964  0.65340  0.81570  1.0000
  C   C629      1.0  0.29926  0.65149  0.77793  1.0000
  C   C630      1.0  0.26091  0.44732  0.95033  1.0000
  N   N43       1.0  0.27383  0.64343  0.82274  1.0000
  H   H768      1.0  0.03622  0.62997  0.74611  1.0000
  C   C631      1.0  0.35810  0.63564  0.86147  1.0000
  H   H769      1.0  0.27100  0.43598  0.95212  1.0000
  C   C632      1.0  0.25487  0.63836  0.83581  1.0000
  C   C633      1.0  0.25686  0.63199  0.85026  1.0000
  C   C634      1.0  0.23330  0.63816  0.83437  1.0000
  C   C635      1.0  0.23856  0.62676  0.86240  1.0000
  C   C636      1.0  0.21514  0.63300  0.84661  1.0000
  C   C637      1.0  0.21778  0.62737  0.86060  1.0000
  C   C638      1.0  0.33917  0.66353  0.77267  1.0000
  Fe  Fe96      1.0  0.18982  0.65158  0.77185  1.0000
  C   C639      1.0  0.41144  0.33822  0.97288  1.0000
  H   H770      1.0  0.37477  0.38509  0.97177  1.0000
  H   H771      1.0  0.35451  0.62886  0.80008  1.0000
  H   H772      1.0  0.08616  0.57901  0.77547  1.0000
  H   H773      1.0  0.11469  0.58851  0.77483  1.0000
  H   H774      1.0  0.41061  0.63442  0.90083  1.0000
  H   H775      1.0  0.24694  0.63123  0.93087  1.0000
  H   H776      1.0  0.27232  0.63073  0.85252  1.0000
  H   H777      1.0  0.32253  0.64750  0.85613  1.0000
  H   H778      1.0  0.24051  0.62216  0.87332  1.0000
  H   H779      1.0  0.19894  0.63359  0.84526  1.0000
  H   H780      1.0  0.20372  0.62352  0.87011  1.0000
  C   C640      1.0  0.36648  0.37264  0.94141  1.0000
  H   H781      1.0  0.23640  0.64400  0.73861  1.0000
  C   C641      1.0  0.24451  0.66262  0.93358  1.0000
  H   H782      1.0  0.28703  0.62608  0.80811  1.0000
  H   H783      1.0  0.28502  0.47389  0.95141  1.0000
  H   H784      1.0  0.09110  0.52762  0.76605  1.0000
  H   H785      1.0  0.28343  0.65530  0.77961  1.0000
  C   C642      1.0  0.40129  0.64635  0.90199  1.0000
  C   C643      1.0  0.29568  0.64839  0.82585  1.0000
  H   H786      1.0  0.35072  0.60077  0.82300  1.0000
  C   C644      1.0  0.29238  0.58252  0.74147  1.0000
  C   C645      1.0  0.30017  0.62983  0.77903  1.0000
  C   C646      1.0  0.41285  0.37354  0.97671  1.0000
  S   S189      1.0  0.22674  0.66498  0.76172  1.0000
  C   C647      1.0  0.23593  0.64060  0.93474  1.0000
  H   H787      1.0  0.14058  0.56664  0.76886  1.0000
  H   H788      1.0  0.07210  0.54322  0.77174  1.0000
  C   C648      1.0  0.32102  0.49828  0.85521  1.0000
  C   C649      1.0  0.35424  0.62401  0.83550  1.0000
  H   H789      1.0  0.37261  0.62891  0.85882  1.0000
  H   H790      1.0  0.35220  0.61087  0.84513  1.0000
  H   H791      1.0  0.20943  0.34093  0.97185  1.0000
  C   C650      1.0  0.32068  0.62502  0.77668  1.0000
  C   C651      1.0  0.19839  0.64250  0.94579  1.0000
  S   S190      1.0  0.17488  0.63314  0.79556  1.0000
  C   C652      1.0  0.35897  0.66183  0.82235  1.0000
  N   N44       1.0  0.26392  0.50803  0.94645  1.0000
  C   C653      1.0  0.30190  0.45679  0.84915  1.0000
  C   C654      1.0  0.35325  0.61789  0.82280  1.0000
  C   C655      1.0  0.06309  0.66841  0.74647  1.0000
  S   S191      1.0  0.03619  0.65829  0.95628  1.0000
  N   N45       1.0  0.17436  0.63161  0.95186  1.0000
  C   C656      1.0  0.24053  0.44006  0.94784  1.0000
  C   C657      1.0  0.35813  0.65556  0.80970  1.0000
  C   C658      1.0  0.34021  0.64194  0.77334  1.0000
  H   H792      1.0  0.35610  0.63826  0.77152  1.0000
  C   C659      1.0  0.22777  0.45462  0.94508  1.0000
  H   H793      1.0  0.42729  0.66789  0.90661  1.0000
  H   H794      1.0  0.29113  0.34429  0.86207  1.0000
  C   C660      1.0  0.11893  0.64911  0.93873  1.0000
  H   H795      1.0  0.24593  0.52118  0.93167  1.0000
  C   C661      1.0  0.31184  0.47739  0.86571  1.0000
  H   H796      1.0  0.42514  0.38300  0.96604  1.0000
  C   C662      1.0  0.11143  0.57165  0.75224  1.0000
  S   S192      1.0  0.16908  0.62707  0.76390  1.0000
  C   C663      1.0  0.21244  0.46264  0.76233  1.0000
  C   C664      1.0  0.31435  0.37767  0.97210  1.0000
  H   H797      1.0  0.28879  0.50540  0.95800  1.0000
  N   N46       1.0  0.29433  0.46071  0.86356  1.0000
  C   C665      1.0  0.10807  0.63843  0.74257  1.0000
  C   C666      1.0  0.21325  0.63064  0.94070  1.0000
  H   H798      1.0  0.42455  0.34490  0.96228  1.0000
  S   S193      1.0  0.08408  0.63564  0.96349  1.0000
  C   C667      1.0  0.23970  0.60988  0.75882  1.0000
  H   H799      1.0  0.34271  0.62205  0.86507  1.0000
  C   C668      1.0  0.16563  0.62296  0.94085  1.0000
  H   H800      1.0  0.01246  0.63720  0.75508  1.0000
  C   C669      1.0  0.36802  0.65819  0.90182  1.0000
  Fe  Fe97      1.0  0.05516  0.64835  0.97216  1.0000
  C   C670      1.0  0.27435  0.46891  0.86397  1.0000
  H   H801      1.0  0.30214  0.43215  0.87531  1.0000
  H   H802      1.0  0.28969  0.44323  0.84765  1.0000
  H   H803      1.0  0.17838  0.60003  0.96223  1.0000
  H   H804      1.0  0.21139  0.46604  0.78389  1.0000
  H   H805      1.0  0.27259  0.51864  0.92305  1.0000
  H   H806      1.0  0.20487  0.44523  0.76690  1.0000
  H   H807      1.0  0.31478  0.39423  0.97261  1.0000
  H   H808      1.0  0.42219  0.36903  0.98477  1.0000
  C   C671      1.0  0.38755  0.36024  0.96346  1.0000
  H   H809      1.0  0.23485  0.42324  0.94766  1.0000
  Fe  Fe98      1.0  0.19485  0.65116  0.89585  1.0000
  H   H810      1.0  0.17780  0.61864  0.97326  1.0000
  H   H811      1.0  0.37666  0.34730  0.93313  1.0000
  H   H812      1.0  0.35796  0.37714  0.93323  1.0000
  H   H813      1.0  0.39315  0.66694  0.84149  1.0000
  H   H814      1.0  0.29844  0.63376  0.83292  1.0000
  C   C672      1.0  0.31033  0.35005  0.95917  1.0000
  H   H815      1.0  0.22985  0.50568  0.77517  1.0000
  C   C673      1.0  0.21068  0.33735  0.88072  1.0000
  Fe  Fe99      1.0  0.00568  0.64229  0.97505  1.0000
  C   C674      1.0  0.07455  0.60822  0.75052  1.0000
  C   C675      1.0  0.31765  0.36263  0.98361  1.0000
  H   H816      1.0  0.23024  0.64201  0.82378  1.0000
  H   H817      1.0  0.21214  0.44892  0.94284  1.0000
  H   H818      1.0  0.27960  0.63472  0.75512  1.0000
  C   C676      1.0  0.26301  0.52245  0.93259  1.0000
  C   C677      1.0  0.24932  0.51253  0.95876  1.0000
  H   H819      1.0  0.25465  0.53003  0.95870  1.0000
  H   H820      1.0  0.26041  0.45663  0.86289  1.0000
  H   H821      1.0  0.20746  0.61360  0.94114  1.0000
  H   H822      1.0  0.24237  0.52483  0.74877  1.0000
  Fe  Fe100     1.0  0.15094  0.65383  0.79457  1.0000
  C   C678      1.0  0.22656  0.49680  0.76740  1.0000
  H   H823      1.0  0.18436  0.66302  0.81138  1.0000
  C   C679      1.0  0.37636  0.37702  0.96324  1.0000
  H   H824      1.0  0.25766  0.62136  0.81242  1.0000
  C   C680      1.0  0.17068  0.61299  0.96493  1.0000
  C   C681      1.0  0.25623  0.48466  0.94696  1.0000
  H   H825      1.0  0.14625  0.65975  0.91915  1.0000
  H   H826      1.0  0.24936  0.50194  0.96944  1.0000
  H   H827      1.0  0.27496  0.42678  0.87286  1.0000
  C   C682      1.0  0.13638  0.66478  0.92759  1.0000
  H   H828      1.0  0.15271  0.60489  0.97015  1.0000
  H   H829      1.0  0.14746  0.61523  0.94490  1.0000
  S   S194      1.0  0.22513  0.66840  0.87746  1.0000
  C   C683      1.0  0.41080  0.66540  0.90525  1.0000
  H   H830      1.0  0.13985  0.59666  0.75226  1.0000
  H   H831      1.0  0.30593  0.34537  0.73638  1.0000
  C   C684      1.0  0.10571  0.65552  0.94954  1.0000
  C   C685      1.0  0.35522  0.63363  0.80992  1.0000
  C   C686      1.0  0.20778  0.66485  0.94476  1.0000
  H   H832      1.0  0.26468  0.65294  0.74889  1.0000
  S   S195      1.0  0.14057  0.66929  0.81260  1.0000
  H   H833      1.0  0.26029  0.65917  0.80590  1.0000
  C   C687      1.0  0.28962  0.49502  0.73992  1.0000
  H   H834      1.0  0.30787  0.34532  0.94963  1.0000
  C   C688      1.0  0.28285  0.47350  0.73891  1.0000
  H   H835      1.0  0.16863  0.63626  0.93065  1.0000
  N   N47       1.0  0.35783  0.65337  0.84895  1.0000
  S   S196      1.0  0.13008  0.65600  0.74608  1.0000
  H   H836      1.0  0.08365  0.55201  0.74700  1.0000
  C   C689      1.0  0.27368  0.66275  0.81121  1.0000
  H   H837      1.0  0.18784  0.43381  0.75081  1.0000
  H   H838      1.0  0.28585  0.60273  0.75521  1.0000
  H   H839      1.0  0.35903  0.64159  0.87120  1.0000
  H   H840      1.0  0.20302  0.34403  0.90108  1.0000
  S   S197      1.0  0.27328  0.34720  0.93053  1.0000
  N   N48       1.0  0.39798  0.35385  0.97529  1.0000
  H   H841      1.0  0.30357  0.57620  0.74709  1.0000
  H   H842      1.0  0.06788  0.65414  0.74444  1.0000
  C   C690      1.0  0.16105  0.64643  0.95631  1.0000
  C   C691      1.0  0.22953  0.49606  0.74245  1.0000
  H   H843      1.0  0.16579  0.65263  0.96520  1.0000
  C   C692      1.0  0.12961  0.59062  0.74586  1.0000
  C   C693      1.0  0.31865  0.66823  0.77493  1.0000
  H   H844      1.0  0.17334  0.61028  0.93771  1.0000
  H   H845      1.0  0.29746  0.66191  0.83107  1.0000
  H   H846      1.0  0.14301  0.63794  0.96053  1.0000
  H   H847      1.0  0.33771  0.66655  0.86357  1.0000
  N   N49       1.0  0.21420  0.46153  0.73621  1.0000
  H   H848      1.0  0.01296  0.62770  0.73913  1.0000
  H   H849      1.0  0.35983  0.66780  0.79962  1.0000
  H   H850      1.0  0.33699  0.34140  0.88733  1.0000
  C   C694      1.0  0.31794  0.34151  0.98276  1.0000
  H   H851      1.0  0.40368  0.38478  0.98065  1.0000
  C   C695      1.0  0.07236  0.61220  0.73623  1.0000
  H   H852      1.0  0.39508  0.33648  0.95160  1.0000
  H   H853      1.0  0.01164  0.90836  0.18442  1.0000
  H   H854      1.0  0.03303  0.92236  0.19041  1.0000
  C   C696      1.0  0.02965  0.91657  0.18104  1.0000
  H   H855      1.0  0.02801  0.97549  0.20634  1.0000
  C   C697      1.0  0.02212  0.90582  0.15549  1.0000
  H   H856      1.0  0.01093  0.00105  0.23486  1.0000
  Fe  Fe101     1.0  0.00635  0.92315  0.23501  1.0000
  C   C698      1.0  0.01861  0.89987  0.14314  1.0000
  H   H857      1.0  0.06293  0.95096  0.17447  1.0000
  H   H858      1.0  0.01601  0.89290  0.16568  1.0000
  H   H859      1.0  0.03390  0.70647  0.00496  1.0000
  C   C699      1.0  0.05571  0.98917  0.23187  1.0000
  N   N50       1.0  0.03601  0.93496  0.16741  1.0000
  C   C700      1.0  0.01104  0.76923  0.08121  1.0000
  C   C701      1.0  0.02536  0.91550  0.12957  1.0000
  H   H860      1.0  0.02540  0.73936  0.01159  1.0000
  H   H861      1.0  0.02473  0.77146  0.07137  1.0000
  H   H862      1.0  0.03896  0.90410  0.17979  1.0000
  H   H863      1.0  0.07044  0.93556  0.16191  1.0000
  H   H864      1.0  0.06529  0.96180  0.15565  1.0000
  C   C702      1.0  0.03569  0.93720  0.12824  1.0000
  C   C703      1.0  0.05967  0.94629  0.16471  1.0000
  C   C704      1.0  0.02088  0.70449  0.01466  1.0000
  H   H865      1.0  0.01552  0.76065  0.09092  1.0000
  H   H866      1.0  0.01019  0.88306  0.14418  1.0000
  C   C705      1.0  0.03261  0.92784  0.15453  1.0000
  H   H867      1.0  0.04626  0.96061  0.13901  1.0000
  H   H868      1.0  0.02336  0.95509  0.18017  1.0000
  H   H869      1.0  0.00483  0.94300  0.17104  1.0000
  C   C706      1.0  0.03917  0.94337  0.14052  1.0000
  H   H870      1.0  0.04026  0.94949  0.11775  1.0000
  C   C707      1.0  0.02253  0.95042  0.17001  1.0000
  S   S198      1.0  0.03923  0.94834  0.22925  1.0000
  C   C708      1.0  0.01616  0.72304  0.01846  1.0000
  H   H871      1.0  0.01060  0.78600  0.08203  1.0000
  C   C709      1.0  0.00923  0.68340  0.02374  1.0000
  C   C710      1.0  0.01890  0.98740  0.20351  1.0000
  H   H872      1.0  0.01705  0.74475  0.05963  1.0000
  H   H873      1.0  0.06285  0.99378  0.22018  1.0000
  H   H874      1.0  0.02213  0.91087  0.12011  1.0000
  S   S199      1.0  0.00945  0.98796  0.14027  1.0000
  H   H875      1.0  0.02808  0.96592  0.16095  1.0000
  H   H876      1.0  0.01828  0.70802  0.05834  1.0000
  C   C711      1.0  0.00688  0.71000  0.06762  1.0000
  C   C712      1.0  0.00598  0.73102  0.06845  1.0000
  H   H877      1.0  0.00418  0.81473  0.99544  1.0000
  S   S200      1.0  0.00194  0.89986  0.22139  1.0000
  C   C713      1.0  0.23239  0.70190  0.37133  1.0000
  C   C714      1.0  0.17827  0.69699  0.43936  1.0000
  Fe  Fe102     1.0  0.21444  0.70630  0.46476  1.0000
  C   C715      1.0  0.03898  0.97703  0.26221  1.0000
  H   H878      1.0  0.02540  0.94473  0.26034  1.0000
  H   H879      1.0  0.21467  0.69876  0.37523  1.0000
  S   S201      1.0  0.21775  0.74181  0.46377  1.0000
  N   N51       1.0  0.19817  0.75350  0.37398  1.0000
  C   C716      1.0  0.19817  0.77665  0.37293  1.0000
  C   C717      1.0  0.17591  0.74170  0.37375  1.0000
  C   C718      1.0  0.20130  0.74324  0.38828  1.0000
  C   C719      1.0  0.21644  0.75269  0.36207  1.0000
  H   H880      1.0  0.18411  0.77781  0.38143  1.0000
  H   H881      1.0  0.17445  0.72389  0.37531  1.0000
  H   H882      1.0  0.17209  0.74865  0.36339  1.0000
  H   H883      1.0  0.16251  0.74248  0.38287  1.0000
  H   H884      1.0  0.21666  0.75220  0.39008  1.0000
  H   H885      1.0  0.18721  0.74223  0.39758  1.0000
  H   H886      1.0  0.20235  0.72616  0.38903  1.0000
  H   H887      1.0  0.19673  0.73233  0.35179  1.0000
  H   H888      1.0  0.03275  0.97219  0.27398  1.0000
  C   C720      1.0  0.03473  0.96150  0.25450  1.0000
  C   C721      1.0  0.24151  0.69446  0.35967  1.0000
  H   H889      1.0  0.23903  0.72083  0.38610  1.0000
  H   H890      1.0  0.17325  0.69967  0.44996  1.0000
  S   S202      1.0  0.21754  0.69234  0.44546  1.0000
  C   C722      1.0  0.19900  0.69330  0.43464  1.0000
  S   S203      1.0  0.16236  0.68571  0.36544  1.0000
  Fe  Fe103     1.0  0.24452  0.73905  0.47496  1.0000
  H   H891      1.0  0.14785  0.69978  0.43401  1.0000
  C   C723      1.0  0.16391  0.69700  0.43033  1.0000
  C   C724      1.0  0.17009  0.69290  0.41674  1.0000
  H   H892      1.0  0.21351  0.78616  0.37446  1.0000
  C   C725      1.0  0.24620  0.71464  0.37735  1.0000
  H   H893      1.0  0.19676  0.78512  0.36205  1.0000
  C   C726      1.0  0.20539  0.69009  0.42084  1.0000
  S   S204      1.0  0.15223  0.69311  0.40536  1.0000
  C   C727      1.0  0.19096  0.68962  0.41203  1.0000
  H   H894      1.0  0.22171  0.68827  0.41678  1.0000
  H   H895      1.0  0.19633  0.68730  0.40141  1.0000
  H   H896      1.0  0.20267  0.73916  0.42040  1.0000
  S   S205      1.0  0.24302  0.70461  0.47424  1.0000
  H   H897      1.0  0.23878  0.73230  0.41908  1.0000
  C   C728      1.0  0.21557  0.75107  0.42211  1.0000
  C   C729      1.0  0.23642  0.74736  0.42130  1.0000
  H   H898      1.0  0.19464  0.77199  0.42678  1.0000
  H   H899      1.0  0.02837  0.69897  0.29814  1.0000
  C   C730      1.0  0.21101  0.76951  0.42575  1.0000
  C   C731      1.0  0.21295  0.74118  0.35166  1.0000
  H   H900      1.0  0.24280  0.77175  0.36858  1.0000
  C   C732      1.0  0.23871  0.76315  0.36088  1.0000
  C   C733      1.0  0.22733  0.78438  0.42854  1.0000
  H   H901      1.0  0.22358  0.79844  0.43173  1.0000
  H   H902      1.0  0.11252  0.77508  0.47726  1.0000
  H   H903      1.0  0.01270  0.70639  0.27758  1.0000
  H   H904      1.0  0.05988  0.70595  0.30564  1.0000
  C   C734      1.0  0.07026  0.69470  0.30337  1.0000
  H   H905      1.0  0.08325  0.70335  0.29287  1.0000
  H   H906      1.0  0.07863  0.69221  0.31222  1.0000
  H   H907      1.0  0.02778  0.67383  0.31861  1.0000
  S   S206      1.0  0.22426  0.68052  0.35097  1.0000
  C   C735      1.0  0.03307  0.69165  0.28948  1.0000
  C   C736      1.0  0.02407  0.69611  0.27771  1.0000
  C   C737      1.0  0.04732  0.67758  0.29024  1.0000
  N   N52       1.0  0.05704  0.67355  0.30268  1.0000
  C   C738      1.0  0.02880  0.68659  0.26643  1.0000
  Fe  Fe104     1.0  0.15629  0.67237  0.38968  1.0000
  H   H908      1.0  0.02127  0.68963  0.25753  1.0000
  C   C739      1.0  0.24826  0.78082  0.42776  1.0000
  C   C740      1.0  0.23073  0.74007  0.34094  1.0000
  C   C741      1.0  0.04246  0.67247  0.26689  1.0000
  H   H909      1.0  0.07355  0.77678  0.48178  1.0000
  C   C742      1.0  0.05115  0.99880  0.25472  1.0000
  C   C743      1.0  0.04316  0.96753  0.23929  1.0000
  H   H910      1.0  0.22776  0.73041  0.33351  1.0000
  C   C744      1.0  0.25348  0.76217  0.42403  1.0000
  C   C745      1.0  0.25236  0.75030  0.34022  1.0000
  H   H911      1.0  0.32208  0.70594  0.48001  1.0000
  H   H912      1.0  0.49695  0.98612  0.30329  1.0000
  S   S207      1.0  0.33452  0.74223  0.42714  1.0000
  H   H913      1.0  0.37427  0.86513  0.45590  1.0000
  C   C746      1.0  0.45198  0.82995  0.41436  1.0000
  H   H914      1.0  0.31982  0.67262  0.32486  1.0000
  H   H915      1.0  0.49730  0.87312  0.40495  1.0000
  H   H916      1.0  0.38725  0.72264  0.48192  1.0000
  H   H917      1.0  0.31443  0.72918  0.48446  1.0000
  C   C747      1.0  0.30774  0.71202  0.48440  1.0000
  C   C748      1.0  0.26404  0.67245  0.39899  1.0000
  H   H918      1.0  0.40625  0.84741  0.45704  1.0000
  C   C749      1.0  0.25964  0.67147  0.41372  1.0000
  C   C750      1.0  0.48872  0.82939  0.41611  1.0000
  H   H919      1.0  0.26062  0.72287  0.43576  1.0000
  H   H920      1.0  0.49406  0.82678  0.40515  1.0000
  H   H921      1.0  0.41551  0.67817  0.47125  1.0000
  S   S208      1.0  0.34957  0.73256  0.36556  1.0000
  C   C751      1.0  0.45736  0.85467  0.45884  1.0000
  C   C752      1.0  0.44054  0.84149  0.37009  1.0000
  C   C753      1.0  0.28268  0.67495  0.44988  1.0000
  H   H922      1.0  0.27186  0.69336  0.34553  1.0000
  H   H923      1.0  0.34684  0.78356  0.47986  1.0000
  H   H924      1.0  0.45945  0.98787  0.33073  1.0000
  H   H925      1.0  0.34704  0.68817  0.43076  1.0000
  C   C754      1.0  0.28425  0.75182  0.41037  1.0000
  H   H926      1.0  0.35753  0.85897  0.44409  1.0000
  C   C755      1.0  0.40568  0.84606  0.44597  1.0000
  H   H927      1.0  0.26421  0.69086  0.31315  1.0000
  S   S209      1.0  0.35312  0.67458  0.39274  1.0000
  C   C756      1.0  0.46699  0.84709  0.43093  1.0000
  C   C757      1.0  0.32903  0.77875  0.48360  1.0000
  H   H928      1.0  0.38047  0.68739  0.41220  1.0000
  C   C758      1.0  0.25634  0.76189  0.35013  1.0000
  C   C759      1.0  0.41193  0.68910  0.46242  1.0000
  C   C760      1.0  0.27100  0.67900  0.31918  1.0000
  N   N53       1.0  0.37830  0.68610  0.43476  1.0000
  H   H929      1.0  0.38074  0.76565  0.41215  1.0000
  H   H930      1.0  0.34894  0.68932  0.44868  1.0000
  H   H931      1.0  0.45404  0.85743  0.46956  1.0000
  H   H932      1.0  0.27835  0.68459  0.39111  1.0000
  C   C761      1.0  0.31652  0.77514  0.47388  1.0000
  H   H933      1.0  0.27042  0.68306  0.41723  1.0000
  Fe  Fe105     1.0  0.49826  0.94122  0.36022  1.0000
  H   H934      1.0  0.29765  0.71300  0.47649  1.0000
  C   C762      1.0  0.37747  0.76512  0.42355  1.0000
  C   C763      1.0  0.29928  0.68024  0.43688  1.0000
  H   H935      1.0  0.27326  0.76914  0.34987  1.0000
  C   C764      1.0  0.37464  0.86146  0.44528  1.0000
  C   C765      1.0  0.39633  0.85269  0.41711  1.0000
  H   H936      1.0  0.38523  0.87641  0.43652  1.0000
  H   H937      1.0  0.28591  0.76526  0.40049  1.0000
  H   H938      1.0  0.30816  0.77182  0.42438  1.0000
  H   H939      1.0  0.40720  0.86072  0.39355  1.0000
  C   C766      1.0  0.39436  0.77528  0.42878  1.0000
  C   C767      1.0  0.36456  0.69441  0.48072  1.0000
  H   H940      1.0  0.28740  0.73426  0.43752  1.0000
  C   C768      1.0  0.27154  0.73795  0.43655  1.0000
  C   C769      1.0  0.27851  0.71180  0.36060  1.0000
  H   H941      1.0  0.40130  0.79202  0.38518  1.0000
  H   H942      1.0  0.28005  0.68749  0.45521  1.0000
  H   H943      1.0  0.48640  0.85876  0.39344  1.0000
  H   H944      1.0  0.30086  0.74904  0.40989  1.0000
  H   H945      1.0  0.32478  0.77736  0.46257  1.0000
  C   C770      1.0  0.35833  0.69439  0.43691  1.0000
  C   C771      1.0  0.36801  0.81842  0.42928  1.0000
  H   H946      1.0  0.40608  0.68870  0.41698  1.0000
  C   C772      1.0  0.44228  0.84319  0.35537  1.0000
  S   S210      1.0  0.37377  0.73554  0.39198  1.0000
  H   H947      1.0  0.42439  0.82121  0.39220  1.0000
  Fe  Fe106     1.0  0.36994  0.75919  0.37254  1.0000
  C   C773      1.0  0.39840  0.68050  0.45453  1.0000
  C   C774      1.0  0.46442  0.87230  0.44620  1.0000
  C   C775      1.0  0.41993  0.71173  0.45954  1.0000
  H   H948      1.0  0.30445  0.69950  0.31074  1.0000
  C   C776      1.0  0.35633  0.75469  0.43310  1.0000
  C   C777      1.0  0.41447  0.72590  0.44874  1.0000
  H   H949      1.0  0.46659  0.88890  0.44712  1.0000
  H   H950      1.0  0.48197  0.81272  0.42399  1.0000
  H   H951      1.0  0.41685  0.86154  0.43809  1.0000
  Fe  Fe107     1.0  0.32009  0.73852  0.37979  1.0000
  H   H952      1.0  0.46984  0.87270  0.40283  1.0000
  H   H953      1.0  0.42021  0.74351  0.44681  1.0000
  S   S211      1.0  0.45615  0.86228  0.37572  1.0000
  S   S212      1.0  0.41120  0.78796  0.44996  1.0000
  C   C778      1.0  0.39264  0.69451  0.44334  1.0000
  C   C779      1.0  0.39050  0.69392  0.41900  1.0000
  H   H954      1.0  0.47301  0.97673  0.34379  1.0000
  H   H955      1.0  0.41062  0.78354  0.42135  1.0000
  H   H956      1.0  0.41301  0.83245  0.44421  1.0000
  H   H957      1.0  0.47468  0.88312  0.42310  1.0000
  H   H958      1.0  0.26610  0.74866  0.33225  1.0000
  C   C780      1.0  0.40116  0.71748  0.44068  1.0000
  H   H959      1.0  0.45532  0.82659  0.40353  1.0000
  C   C781      1.0  0.29338  0.76822  0.47880  1.0000
  Fe  Fe108     1.0  0.48201  0.89345  0.36052  1.0000
  C   C782      1.0  0.26926  0.72007  0.37180  1.0000
  Fe  Fe109     1.0  0.34274  0.74137  0.40392  1.0000
  H   H960      1.0  0.44928  0.81971  0.46764  1.0000
  C   C783      1.0  0.29193  0.77566  0.42505  1.0000
  H   H961      1.0  0.36946  0.82695  0.46793  1.0000
  H   H962      1.0  0.35699  0.80566  0.43872  1.0000
  C   C784      1.0  0.29360  0.68391  0.31788  1.0000
  C   C785      1.0  0.38167  0.83040  0.40289  1.0000
  H   H963      1.0  0.37411  0.80814  0.45757  1.0000
  H   H964      1.0  0.36240  0.71255  0.43303  1.0000
  S   S213      1.0  0.49341  0.97042  0.36793  1.0000
  C   C786      1.0  0.45475  0.83335  0.45775  1.0000
  H   H965      1.0  0.44460  0.81378  0.42278  1.0000
  S   S214      1.0  0.39822  0.78733  0.35662  1.0000
  H   H966      1.0  0.30951  0.69699  0.43216  1.0000
  H   H967      1.0  0.43074  0.82790  0.34000  1.0000
  C   C787      1.0  0.41263  0.80622  0.37685  1.0000
  H   H968      1.0  0.29630  0.71594  0.35622  1.0000
  H   H969      1.0  0.42973  0.71828  0.46607  1.0000
  H   H970      1.0  0.25984  0.79260  0.43054  1.0000
  H   H971      1.0  0.45690  0.81264  0.44386  1.0000
  H   H972      1.0  0.39727  0.72916  0.43250  1.0000
  N   N54       1.0  0.38276  0.84183  0.44456  1.0000
  H   H973      1.0  0.35679  0.80043  0.41509  1.0000
  Fe  Fe110     1.0  0.40340  0.78161  0.47453  1.0000
  H   H974      1.0  0.27410  0.73644  0.40944  1.0000
  C   C788      1.0  0.48189  0.86274  0.40402  1.0000
  S   S215      1.0  0.27841  0.76299  0.46633  1.0000
  H   H975      1.0  0.28728  0.77913  0.43575  1.0000
  C   C789      1.0  0.38240  0.83740  0.43040  1.0000
  H   H976      1.0  0.39499  0.71210  0.41466  1.0000
  N   N55       1.0  0.27498  0.75719  0.42397  1.0000
  H   H977      1.0  0.43912  0.83913  0.41474  1.0000
  Fe  Fe111     1.0  0.35094  0.70966  0.38629  1.0000
  S   S216      1.0  0.32023  0.71392  0.39979  1.0000
  H   H978      1.0  0.29479  0.79083  0.41608  1.0000
  C   C790      1.0  0.42580  0.82283  0.38079  1.0000
  H   H979      1.0  0.36529  0.76429  0.46416  1.0000
  H   H980      1.0  0.40752  0.86762  0.41703  1.0000
  C   C791      1.0  0.46912  0.86869  0.43241  1.0000
  H   H981      1.0  0.45356  0.85741  0.34701  1.0000
  C   C792      1.0  0.39013  0.77484  0.44354  1.0000
  C   C793      1.0  0.36899  0.76433  0.45294  1.0000
  H   H982      1.0  0.26370  0.74097  0.44693  1.0000
  N   N56       1.0  0.47234  0.84257  0.41658  1.0000
  H   H983      1.0  0.33587  0.74615  0.45517  1.0000
  H   H984      1.0  0.38155  0.82762  0.39238  1.0000
  H   H985      1.0  0.33452  0.68175  0.36812  1.0000
  C   C794      1.0  0.39607  0.84907  0.40359  1.0000
  C   C795      1.0  0.36868  0.82340  0.45741  1.0000
  H   H986      1.0  0.47802  0.97142  0.32657  1.0000
  C   C796      1.0  0.41430  0.80795  0.36211  1.0000
  C   C797      1.0  0.35220  0.75422  0.44777  1.0000
  S   S217      1.0  0.28556  0.73915  0.37812  1.0000
  H   H987      1.0  0.36244  0.70297  0.47047  1.0000
  C   C798      1.0  0.47528  0.98436  0.33196  1.0000
  H   H988      1.0  0.35089  0.82000  0.45765  1.0000
  C   C799      1.0  0.36770  0.81514  0.41569  1.0000
  S   S218      1.0  0.47419  0.92462  0.35005  1.0000
  C   C800      1.0  0.42929  0.82645  0.35142  1.0000
  C   C801      1.0  0.45937  0.82954  0.44405  1.0000
  C   C802      1.0  0.26463  0.69912  0.35450  1.0000
  S   S219      1.0  0.34022  0.76680  0.38512  1.0000
  H   H989      1.0  0.19005  0.69179  0.54773  1.0000
  H   H990      1.0  0.03861  0.74305  0.64807  1.0000
  H   H991      1.0  0.26513  0.70791  0.49756  1.0000
  H   H992      1.0  0.06966  0.76999  0.53851  1.0000
  H   H993      1.0  0.04729  0.67212  0.65965  1.0000
  S   S220      1.0  0.45579  0.83517  0.70684  1.0000
  H   H994      1.0  0.08275  0.74839  0.54303  1.0000
  Fe  Fe112     1.0  0.41904  0.79529  0.49952  1.0000
  S   S221      1.0  0.44306  0.82463  0.50209  1.0000
  Fe  Fe113     1.0  0.36959  0.77947  0.50242  1.0000
  S   S222      1.0  0.33426  0.78061  0.51040  1.0000
  Fe  Fe114     1.0  0.39784  0.74706  0.50258  1.0000
  S   S223      1.0  0.39531  0.71069  0.51022  1.0000
  S   S224      1.0  0.39081  0.76922  0.51679  1.0000
  H   H995      1.0  0.01039  0.71352  0.69024  1.0000
  H   H996      1.0  0.43448  0.85633  0.72705  1.0000
  H   H997      1.0  0.49382  0.83744  0.67790  1.0000
  C   C803      1.0  0.00354  0.97318  0.69802  1.0000
  H   H998      1.0  0.48964  0.86859  0.52247  1.0000
  H   H999      1.0  0.07246  0.68637  0.64590  1.0000
  C   C804      1.0  0.49302  0.82554  0.65244  1.0000
  S   S225      1.0  0.22182  0.72886  0.49758  1.0000
  C   C805      1.0  0.09470  0.75048  0.51385  1.0000
  C   C806      1.0  0.10899  0.75908  0.49972  1.0000
  H   H1000     1.0  0.05550  0.74573  0.55345  1.0000
  H   H1001     1.0  0.48658  0.79582  0.56187  1.0000
  H   H1002     1.0  0.46605  0.86192  0.50833  1.0000
  H   H1003     1.0  0.44751  0.81372  0.68148  1.0000
  C   C807      1.0  0.01203  0.72889  0.59193  1.0000
  C   C808      1.0  0.29533  0.76998  0.50304  1.0000
  N   N57       1.0  0.05747  0.74139  0.53199  1.0000
  H   H1004     1.0  0.28711  0.76812  0.51432  1.0000
  C   C809      1.0  0.38080  0.69533  0.50081  1.0000
  S   S226      1.0  0.42776  0.77220  0.48642  1.0000
  H   H1005     1.0  0.06257  0.77928  0.63513  1.0000
  C   C810      1.0  0.46975  0.84790  0.51477  1.0000
  H   H1006     1.0  0.04818  0.76200  0.50612  1.0000
  H   H1007     1.0  0.27379  0.67720  0.48995  1.0000
  C   C811      1.0  0.45756  0.81027  0.57872  1.0000
  C   C812      1.0  0.46024  0.82721  0.51399  1.0000
  C   C813      1.0  0.46521  0.80963  0.52225  1.0000
  C   C814      1.0  0.14861  0.69996  0.57207  1.0000
  H   H1008     1.0  0.45802  0.79330  0.52175  1.0000
  C   C815      1.0  0.31206  0.67644  0.51675  1.0000
  S   S227      1.0  0.07419  0.70602  0.56997  1.0000
  H   H1009     1.0  0.02933  0.70136  0.62877  1.0000
  C   C816      1.0  0.00826  0.91251  0.65875  1.0000
  Fe  Fe115     1.0  0.03719  0.69658  0.57851  1.0000
  H   H1010     1.0  0.03000  0.67497  0.63917  1.0000
  C   C817      1.0  0.07225  0.75106  0.51692  1.0000
  H   H1011     1.0  0.12607  0.75827  0.49767  1.0000
  C   C818      1.0  0.11869  0.70909  0.53299  1.0000
  H   H1012     1.0  0.02591  0.98546  0.67636  1.0000
  H   H1013     1.0  0.10135  0.74318  0.52238  1.0000
  C   C819      1.0  0.15520  0.67500  0.55192  1.0000
  H   H1014     1.0  0.09870  0.78439  0.61758  1.0000
  Fe  Fe116     1.0  0.06886  0.67509  0.56311  1.0000
  Fe  Fe117     1.0  0.49270  0.91972  0.69125  1.0000
  C   C820      1.0  0.06496  0.76085  0.50492  1.0000
  H   H1015     1.0  0.05402  0.67845  0.71340  1.0000
  C   C821      1.0  0.02950  0.73257  0.59817  1.0000
  H   H1016     1.0  0.06413  0.69647  0.66136  1.0000
  H   H1017     1.0  0.44344  0.80915  0.58801  1.0000
  C   C822      1.0  0.03472  0.74407  0.53354  1.0000
  H   H1018     1.0  0.11060  0.75195  0.61308  1.0000
  C   C823      1.0  0.32545  0.67617  0.52626  1.0000
  N   N58       1.0  0.46711  0.83307  0.56915  1.0000
  C   C824      1.0  0.01304  0.88823  0.67958  1.0000
  S   S228      1.0  0.48348  0.89404  0.71301  1.0000
  C   C825      1.0  0.13058  0.68611  0.57016  1.0000
  H   H1019     1.0  0.45118  0.79905  0.57262  1.0000
  H   H1020     1.0  0.34740  0.69550  0.53515  1.0000
  H   H1021     1.0  0.11408  0.68492  0.57647  1.0000
  H   H1022     1.0  0.02418  0.73689  0.54506  1.0000
  S   S229      1.0  0.01552  0.71944  0.57637  1.0000
  H   H1023     1.0  0.15907  0.68816  0.52349  1.0000
  C   C826      1.0  0.13703  0.72501  0.52274  1.0000
  H   H1024     1.0  0.02887  0.88679  0.67302  1.0000
  H   H1025     1.0  0.31823  0.73183  0.50633  1.0000
  H   H1026     1.0  0.02883  0.70881  0.66489  1.0000
  H   H1027     1.0  0.02311  0.91099  0.65111  1.0000
  S   S230      1.0  0.37425  0.75539  0.48995  1.0000
  C   C827      1.0  0.16992  0.70183  0.56390  1.0000
  C   C828      1.0  0.02659  0.73920  0.61095  1.0000
  H   H1028     1.0  0.04956  0.70911  0.52900  1.0000
  C   C829      1.0  0.06679  0.75184  0.54212  1.0000
  C   C830      1.0  0.05558  0.71752  0.53666  1.0000
  H   H1029     1.0  0.03486  0.76171  0.53045  1.0000
  H   H1030     1.0  0.12487  0.67718  0.62109  1.0000
  C   C831      1.0  0.08127  0.72860  0.62819  1.0000
  H   H1031     1.0  0.47018  0.80198  0.68066  1.0000
  N   N59       1.0  0.04600  0.70244  0.64547  1.0000
  C   C832      1.0  0.33333  0.71552  0.52108  1.0000
  C   C833      1.0  0.37117  0.67263  0.50684  1.0000
  H   H1032     1.0  0.49828  0.86013  0.66223  1.0000
  C   C834      1.0  0.06043  0.72503  0.63829  1.0000
  H   H1033     1.0  0.05427  0.69296  0.62561  1.0000
  C   C835      1.0  0.50110  0.97451  0.67540  1.0000
  C   C836      1.0  0.02063  0.98874  0.68674  1.0000
  H   H1034     1.0  0.14106  0.70237  0.49449  1.0000
  C   C837      1.0  0.05424  0.74399  0.64075  1.0000
  C   C838      1.0  0.11647  0.68854  0.51537  1.0000
  C   C839      1.0  0.44975  0.84059  0.56327  1.0000
  S   S231      1.0  0.00235  0.74727  0.63475  1.0000
  Fe  Fe118     1.0  0.07239  0.68359  0.59162  1.0000
  Fe  Fe119     1.0  0.21800  0.69463  0.49592  1.0000
  H   H1035     1.0  0.47058  0.85764  0.64718  1.0000
  C   C840      1.0  0.03965  0.69247  0.63429  1.0000
  H   H1036     1.0  0.01908  0.68603  0.72362  1.0000
  H   H1037     1.0  0.26490  0.76074  0.49723  1.0000
  C   C841      1.0  0.46095  0.84161  0.65525  1.0000
  H   H1038     1.0  0.00183  0.00147  0.72362  1.0000
  C   C842      1.0  0.08823  0.76799  0.62340  1.0000
  H   H1039     1.0  0.07165  0.71400  0.53719  1.0000
  H   H1040     1.0  0.08709  0.71502  0.62571  1.0000
  H   H1041     1.0  0.11269  0.71086  0.54375  1.0000
  S   S232      1.0  0.09635  0.69161  0.60433  1.0000
  C   C843      1.0  0.47987  0.81267  0.53092  1.0000
  S   S233      1.0  0.48245  0.95110  0.68873  1.0000
  C   C844      1.0  0.46101  0.81026  0.67374  1.0000
  C   C845      1.0  0.31852  0.77630  0.49818  1.0000
  H   H1042     1.0  0.04540  0.73058  0.59307  1.0000
  H   H1043     1.0  0.47311  0.85161  0.67670  1.0000
  H   H1044     1.0  0.01458  0.71021  0.65086  1.0000
  S   S234      1.0  0.02716  0.67589  0.69099  1.0000
  C   C846      1.0  0.42688  0.83883  0.73107  1.0000
  C   C847      1.0  0.17323  0.68962  0.55393  1.0000
  C   C848      1.0  0.13494  0.70426  0.50522  1.0000
  C   C849      1.0  0.10136  0.76853  0.48821  1.0000
  H   H1045     1.0  0.42961  0.79135  0.72253  1.0000
  H   H1046     1.0  0.46157  0.84521  0.58808  1.0000
  C   C850      1.0  0.47469  0.84722  0.57798  1.0000
  H   H1047     1.0  0.47013  0.80409  0.58346  1.0000
  C   C851      1.0  0.28276  0.76571  0.49340  1.0000
  H   H1048     1.0  0.14505  0.73912  0.52560  1.0000
  H   H1049     1.0  0.43501  0.83935  0.57216  1.0000
  C   C852      1.0  0.14514  0.72261  0.50884  1.0000
  C   C853      1.0  0.49588  0.83082  0.63711  1.0000
  H   H1050     1.0  0.18394  0.71282  0.56529  1.0000
  C   C854      1.0  0.27620  0.70662  0.50480  1.0000
  C   C855      1.0  0.48565  0.84557  0.67015  1.0000
  H   H1051     1.0  0.34188  0.73073  0.52257  1.0000
  H   H1052     1.0  0.26583  0.69602  0.51582  1.0000
  H   H1053     1.0  0.18601  0.68816  0.52550  1.0000
  H   H1054     1.0  0.04033  0.74251  0.61551  1.0000
  H   H1055     1.0  0.04387  0.70950  0.54773  1.0000
  Fe  Fe120     1.0  0.47875  0.86948  0.70034  1.0000
  C   C856      1.0  0.49432  0.81196  0.55436  1.0000
  S   S235      1.0  0.16765  0.74280  0.49594  1.0000
  H   H1056     1.0  0.49546  0.87489  0.54652  1.0000
  C   C857      1.0  0.48408  0.85127  0.52354  1.0000
  H   H1057     1.0  0.01062  0.85235  0.67299  1.0000
  N   N60       1.0  0.47541  0.83069  0.66259  1.0000
  C   C858      1.0  0.05805  0.68884  0.65337  1.0000
  H   H1058     1.0  0.44792  0.84528  0.66318  1.0000
  C   C859      1.0  0.43416  0.82489  0.72325  1.0000
  C   C860      1.0  0.31981  0.71597  0.51168  1.0000
  S   S236      1.0  0.48433  0.89517  0.67913  1.0000
  C   C861      1.0  0.06796  0.76510  0.63332  1.0000
  C   C862      1.0  0.30883  0.69647  0.50914  1.0000
  H   H1059     1.0  0.48551  0.83912  0.63188  1.0000
  C   C863      1.0  0.00709  0.99796  0.71333  1.0000
  H   H1060     1.0  0.14595  0.70927  0.57989  1.0000
  H   H1061     1.0  0.02613  0.73545  0.52690  1.0000
  N   N61       1.0  0.29458  0.69753  0.49913  1.0000
  H   H1062     1.0  0.28221  0.72332  0.50580  1.0000
  H   H1063     1.0  0.47966  0.86492  0.57188  1.0000
  H   H1064     1.0  0.10848  0.67448  0.51243  1.0000
  H   H1065     1.0  0.02979  0.96875  0.72780  1.0000
  H   H1066     1.0  0.48936  0.84344  0.58127  1.0000
  H   H1067     1.0  0.45228  0.83111  0.64957  1.0000
  C   C864      1.0  0.02524  0.70148  0.65617  1.0000
  C   C865      1.0  0.42401  0.80223  0.72851  1.0000
  C   C866      1.0  0.49135  0.83402  0.53268  1.0000
  H   H1068     1.0  0.45329  0.79834  0.66854  1.0000
  C   C867      1.0  0.10822  0.69097  0.52922  1.0000
  C   C868      1.0  0.09490  0.74976  0.62087  1.0000
  C   C869      1.0  0.37820  0.70582  0.48741  1.0000
  C   C870      1.0  0.09121  0.66959  0.61993  1.0000
  C   C871      1.0  0.16962  0.67732  0.52652  1.0000
  C   C872      1.0  0.00588  0.74099  0.61801  1.0000
  H   H1069     1.0  0.50051  0.85288  0.72905  1.0000
  S   S237      1.0  0.03584  0.67696  0.60080  1.0000
  H   H1070     1.0  0.45579  0.85802  0.55646  1.0000
  C   C873      1.0  0.33625  0.69567  0.52829  1.0000
  H   H1071     1.0  0.48488  0.90149  0.63087  1.0000
  H   H1072     1.0  0.00560  0.87321  0.68907  1.0000
  C   C874      1.0  0.35417  0.67201  0.48699  1.0000
  H   H1073     1.0  0.01505  0.68428  0.66174  1.0000
  S   S238      1.0  0.49568  0.88349  0.60662  1.0000
  C   C875      1.0  0.48575  0.83477  0.55693  1.0000
  H   H1074     1.0  0.49153  0.99617  0.68778  1.0000
  C   C876      1.0  0.50014  0.89681  0.63071  1.0000
  H   H1075     1.0  0.01737  0.90213  0.68426  1.0000
  H   H1076     1.0  0.48180  0.79692  0.53623  1.0000
  H   H1077     1.0  0.44424  0.83067  0.55615  1.0000
  C   C877      1.0  0.28456  0.67584  0.49743  1.0000
  H   H1078     1.0  0.01363  0.92648  0.66317  1.0000
  C   C878      1.0  0.49996  0.86028  0.54496  1.0000
  H   H1079     1.0  0.47150  0.84179  0.73179  1.0000
  C   C879      1.0  0.07942  0.76945  0.49080  1.0000
  Fe  Fe121     1.0  0.19463  0.72847  0.48656  1.0000
  S   S239      1.0  0.18897  0.69307  0.48665  1.0000
  C   C880      1.0  0.13364  0.67379  0.56025  1.0000
  S   S240      1.0  0.08506  0.67077  0.54151  1.0000
  S   S241      1.0  0.39699  0.80681  0.48600  1.0000
  C   C881      1.0  0.11646  0.68283  0.88377  1.0000
  S   S242      1.0  0.04356  0.72129  0.94944  1.0000
  H   H1080     1.0  0.46182  0.71679  0.93700  1.0000
  H   H1081     1.0  0.10016  0.68275  0.95756  1.0000
  S   S243      1.0  0.16725  0.67374  0.77117  1.0000
  N   N62       1.0  0.02673  0.97904  0.78141  1.0000
  C   C882      1.0  0.42540  0.85639  0.93559  1.0000
  C   C883      1.0  0.02052  0.95489  0.76470  1.0000
  S   S244      1.0  0.04845  0.97756  0.82186  1.0000
  H   H1082     1.0  0.46891  0.73981  0.95000  1.0000
  H   H1083     1.0  0.43989  0.84652  0.76707  1.0000
  H   H1084     1.0  0.08981  0.67595  0.75604  1.0000
  Fe  Fe122     1.0  0.01844  0.94922  0.83419  1.0000
  H   H1085     1.0  0.21142  0.67431  0.82454  1.0000
  H   H1086     1.0  0.27438  0.74526  0.74880  1.0000
  S   S245      1.0  0.00536  0.93446  0.85844  1.0000
  H   H1087     1.0  0.03471  0.94897  0.79027  1.0000
  H   H1088     1.0  0.13722  0.68734  0.83698  1.0000
  H   H1089     1.0  0.45762  0.71524  0.91997  1.0000
  C   C884      1.0  0.48552  0.84011  0.73648  1.0000
  H   H1090     1.0  0.10323  0.73251  0.92028  1.0000
  H   H1091     1.0  0.08043  0.70908  0.76122  1.0000
  Fe  Fe123     1.0  0.31583  0.72818  0.78905  1.0000
  S   S246      1.0  0.33009  0.70204  0.79921  1.0000
  S   S247      1.0  0.27864  0.72082  0.79515  1.0000
  Fe  Fe124     1.0  0.36130  0.76078  0.77513  1.0000
  S   S248      1.0  0.37919  0.73663  0.78400  1.0000
  Fe  Fe125     1.0  0.35539  0.71254  0.77756  1.0000
  H   H1092     1.0  0.29075  0.69912  0.86092  1.0000
  Fe  Fe126     1.0  0.35219  0.72827  0.80482  1.0000
  S   S249      1.0  0.35494  0.71859  0.82785  1.0000
  S   S250      1.0  0.33973  0.73739  0.76680  1.0000
  S   S251      1.0  0.33572  0.75363  0.79657  1.0000
  S   S252      1.0  0.21545  0.71463  0.88119  1.0000
  S   S253      1.0  0.21095  0.69951  0.84490  1.0000
  S   S254      1.0  0.26928  0.69779  0.89015  1.0000
  Fe  Fe127     1.0  0.36466  0.75785  0.91136  1.0000
  S   S255      1.0  0.37525  0.74001  0.89518  1.0000
  S   S256      1.0  0.32768  0.75344  0.92021  1.0000
  Fe  Fe128     1.0  0.41302  0.78291  0.90841  1.0000
  S   S257      1.0  0.42616  0.76683  0.89144  1.0000
  S   S258      1.0  0.43891  0.80973  0.91260  1.0000
  Fe  Fe129     1.0  0.39854  0.77238  0.88173  1.0000
  S   S259      1.0  0.40104  0.78524  0.85763  1.0000
  Fe  Fe130     1.0  0.40143  0.73577  0.90632  1.0000
  S   S260      1.0  0.41262  0.70481  0.91082  1.0000
  S   S261      1.0  0.38691  0.79093  0.89735  1.0000
  S   S262      1.0  0.38944  0.75126  0.92388  1.0000
  C   C885      1.0  0.28298  0.71048  0.90105  1.0000
  C   C886      1.0  0.30400  0.70781  0.90121  1.0000
  C   C887      1.0  0.31700  0.71968  0.90807  1.0000
  C   C888      1.0  0.30959  0.73508  0.91433  1.0000
  C   C889      1.0  0.28795  0.73684  0.91497  1.0000
  C   C890      1.0  0.27455  0.72441  0.90844  1.0000
  H   H1093     1.0  0.31043  0.69663  0.89586  1.0000
  H   H1094     1.0  0.33282  0.71689  0.90844  1.0000
  H   H1095     1.0  0.28184  0.74839  0.92007  1.0000
  H   H1096     1.0  0.25824  0.72644  0.90848  1.0000
  S   S263      1.0  0.36337  0.68448  0.76946  1.0000
  C   C891      1.0  0.25920  0.75443  0.76754  1.0000
  H   H1097     1.0  0.25740  0.70523  0.85742  1.0000
  C   C892      1.0  0.38936  0.76659  0.84895  1.0000
  C   C893      1.0  0.38118  0.74416  0.85618  1.0000
  C   C894      1.0  0.37074  0.72973  0.84953  1.0000
  C   C895      1.0  0.36882  0.73746  0.83541  1.0000
  C   C896      1.0  0.37734  0.75984  0.82796  1.0000
  C   C897      1.0  0.38747  0.77439  0.83477  1.0000
  H   H1098     1.0  0.38308  0.73778  0.86686  1.0000
  H   H1099     1.0  0.36425  0.71246  0.85537  1.0000
  H   H1100     1.0  0.37597  0.76592  0.81703  1.0000
  H   H1101     1.0  0.39390  0.79170  0.82904  1.0000
  S   S264      1.0  0.05880  0.67912  0.97935  1.0000
  Fe  Fe131     1.0  0.03789  0.68778  0.96453  1.0000
  H   H1102     1.0  0.01939  0.74619  0.96728  1.0000
  H   H1103     1.0  0.04875  0.72043  0.75435  1.0000
  H   H1104     1.0  0.43694  0.74050  0.94096  1.0000
  C   C898      1.0  0.09340  0.70170  0.89720  1.0000
  C   C899      1.0  0.02235  0.95820  0.79304  1.0000
  H   H1105     1.0  0.02517  0.68867  0.93666  1.0000
  C   C900      1.0  0.11012  0.67767  0.94920  1.0000
  H   H1106     1.0  0.13112  0.71037  0.93805  1.0000
  H   H1107     1.0  0.46516  0.77267  0.90275  1.0000
  H   H1108     1.0  0.45121  0.87309  0.97899  1.0000
  S   S265      1.0  0.49624  0.83677  0.95552  1.0000
  H   H1109     1.0  0.44090  0.76886  0.77327  1.0000
  C   C901      1.0  0.00884  0.98954  0.78558  1.0000
  Fe  Fe132     1.0  0.23315  0.69111  0.89086  1.0000
  C   C902      1.0  0.24215  0.69459  0.79186  1.0000
  C   C903      1.0  0.26491  0.70433  0.78606  1.0000
  C   C904      1.0  0.27609  0.70113  0.77310  1.0000
  C   C905      1.0  0.26435  0.68875  0.76578  1.0000
  H   H1110     1.0  0.00863  0.99095  0.84199  1.0000
  H   H1111     1.0  0.23364  0.69688  0.80193  1.0000
  H   H1112     1.0  0.29364  0.70871  0.76847  1.0000
  H   H1113     1.0  0.31776  0.68487  0.77423  1.0000
  C   C906      1.0  0.48071  0.82959  0.94327  1.0000
  C   C907      1.0  0.40657  0.79350  0.74146  1.0000
  C   C908      1.0  0.47155  0.83660  0.91995  1.0000
  C   C909      1.0  0.45488  0.81658  0.92470  1.0000
  C   C910      1.0  0.45129  0.80307  0.93885  1.0000
  C   C911      1.0  0.46400  0.80959  0.94803  1.0000
  C   C912      1.0  0.07053  0.69948  0.75603  1.0000
  C   C913      1.0  0.43656  0.84685  0.96192  1.0000
  H   H1114     1.0  0.43848  0.78775  0.94285  1.0000
  H   H1115     1.0  0.46089  0.79898  0.95894  1.0000
  H   H1116     1.0  0.48946  0.88072  0.94255  1.0000
  H   H1117     1.0  0.47397  0.79761  0.75786  1.0000
  H   H1118     1.0  0.01333  0.88870  0.78297  1.0000
  H   H1119     1.0  0.01599  0.93620  0.74945  1.0000
  H   H1120     1.0  0.11417  0.73967  0.90069  1.0000
  H   H1121     1.0  0.28181  0.69233  0.83937  1.0000
  C   C914      1.0  0.46617  0.87877  0.96947  1.0000
  C   C915      1.0  0.14085  0.68690  0.92733  1.0000
  C   C916      1.0  0.23926  0.73053  0.75642  1.0000
  H   H1122     1.0  0.41632  0.81409  0.96572  1.0000
  H   H1123     1.0  0.04573  0.97165  0.85264  1.0000
  H   H1124     1.0  0.46508  0.86824  0.74566  1.0000
  H   H1125     1.0  0.44770  0.91229  0.94574  1.0000
  H   H1126     1.0  0.47459  0.84726  0.90906  1.0000
  C   C917      1.0  0.43923  0.87281  0.93907  1.0000
  H   H1127     1.0  0.26203  0.78257  0.85222  1.0000
  C   C918      1.0  0.12771  0.69329  0.93817  1.0000
  H   H1128     1.0  0.40781  0.81718  0.78219  1.0000
  C   C919      1.0  0.02302  0.71974  0.94028  1.0000
  H   H1129     1.0  0.37779  0.68686  0.83805  1.0000
  C   C920      1.0  0.00261  0.77799  0.97559  1.0000
  C   C921      1.0  0.46065  0.82513  0.76098  1.0000
  S   S266      1.0  0.37665  0.79731  0.76514  1.0000
  H   H1130     1.0  0.10991  0.67856  0.86384  1.0000
  C   C922      1.0  0.44544  0.86851  0.95229  1.0000
  C   C923      1.0  0.42269  0.81322  0.77713  1.0000
  C   C924      1.0  0.39898  0.80747  0.74912  1.0000
  C   C925      1.0  0.44163  0.74721  0.92888  1.0000
  H   H1131     1.0  0.45846  0.74518  0.90167  1.0000
  N   N63       1.0  0.46065  0.88608  0.95549  1.0000
  C   C926      1.0  0.05414  0.98858  0.84668  1.0000
  C   C927      1.0  0.08824  0.69524  0.87421  1.0000
  C   C928      1.0  0.02753  0.97589  0.76680  1.0000
  H   H1132     1.0  0.21279  0.67508  0.78903  1.0000
  Fe  Fe133     1.0  0.18554  0.69330  0.89948  1.0000
  H   H1133     1.0  0.06874  0.71106  0.88637  1.0000
  C   C929      1.0  0.24144  0.67934  0.77147  1.0000
  H   H1134     1.0  0.20504  0.71683  0.76624  1.0000
  H   H1135     1.0  0.20937  0.71696  0.80648  1.0000
  N   N64       1.0  0.46490  0.74829  0.92198  1.0000
  C   C930      1.0  0.46909  0.75660  0.90591  1.0000
  H   H1136     1.0  0.42995  0.73646  0.92490  1.0000
  H   H1137     1.0  0.40338  0.84101  0.74979  1.0000
  C   C931      1.0  0.04811  0.99339  0.78116  1.0000
  S   S267      1.0  0.16218  0.70694  0.91328  1.0000
  Fe  Fe134     1.0  0.20512  0.69026  0.86929  1.0000
  C   C932      1.0  0.04485  0.67440  0.74228  1.0000
  H   H1138     1.0  0.00824  0.77805  0.96434  1.0000
  C   C933      1.0  0.26572  0.72215  0.85021  1.0000
  H   H1139     1.0  0.44537  0.88881  0.93117  1.0000
  C   C934      1.0  0.48175  0.89435  0.94370  1.0000
  H   H1140     1.0  0.12069  0.71791  0.91237  1.0000
  H   H1141     1.0  0.00544  0.94748  0.79516  1.0000
  H   H1142     1.0  0.47964  0.90194  0.93291  1.0000
  H   H1143     1.0  0.11971  0.68877  0.90374  1.0000
  C   C935      1.0  0.39932  0.68127  0.90658  1.0000
  H   H1144     1.0  0.16485  0.71541  0.79906  1.0000
  C   C936      1.0  0.37790  0.67163  0.84595  1.0000
  H   H1145     1.0  0.40789  0.77849  0.78558  1.0000
  C   C937      1.0  0.45055  0.90454  0.95627  1.0000
  H   H1146     1.0  0.40681  0.82252  0.94231  1.0000
  C   C938      1.0  0.06993  0.72180  0.90961  1.0000
  H   H1147     1.0  0.06216  0.98665  0.77728  1.0000
  C   C939      1.0  0.49342  0.78353  0.91957  1.0000
  H   H1148     1.0  0.43432  0.89885  0.96477  1.0000
  H   H1149     1.0  0.07492  0.73618  0.89975  1.0000
  H   H1150     1.0  0.18415  0.70176  0.79170  1.0000
  H   H1151     1.0  0.47582  0.86824  0.76134  1.0000
  H   H1152     1.0  0.18628  0.72669  0.81326  1.0000
  H   H1153     1.0  0.05400  0.71072  0.90997  1.0000
  H   H1154     1.0  0.01428  0.94006  0.77363  1.0000
  H   H1155     1.0  0.24067  0.76059  0.78620  1.0000
  N   N65       1.0  0.33404  0.78815  0.87256  1.0000
  C   C940      1.0  0.35386  0.80605  0.86329  1.0000
  C   C941      1.0  0.32832  0.79184  0.88718  1.0000
  C   C942      1.0  0.34034  0.76717  0.87405  1.0000
  C   C943      1.0  0.31464  0.78693  0.86666  1.0000
  C   C944      1.0  0.31473  0.80200  0.85356  1.0000
  C   C945      1.0  0.29470  0.77030  0.87419  1.0000
  C   C946      1.0  0.29590  0.80033  0.84847  1.0000
  C   C947      1.0  0.27597  0.76884  0.86907  1.0000
  C   C948      1.0  0.27658  0.78378  0.85619  1.0000
  H   H1156     1.0  0.35067  0.82249  0.86203  1.0000
  H   H1157     1.0  0.36801  0.80647  0.86819  1.0000
  H   H1158     1.0  0.35988  0.80368  0.85234  1.0000
  H   H1159     1.0  0.32332  0.80736  0.88662  1.0000
  H   H1160     1.0  0.34246  0.79265  0.89207  1.0000
  H   H1161     1.0  0.31453  0.77835  0.89517  1.0000
  H   H1162     1.0  0.34377  0.76322  0.86345  1.0000
  H   H1163     1.0  0.35551  0.76789  0.87781  1.0000
  H   H1164     1.0  0.32741  0.75307  0.88216  1.0000
  H   H1165     1.0  0.32915  0.81512  0.84702  1.0000
  H   H1166     1.0  0.29345  0.75834  0.88420  1.0000
  H   H1167     1.0  0.29631  0.81192  0.83843  1.0000
  H   H1168     1.0  0.26090  0.75603  0.87522  1.0000
  C   C949      1.0  0.07943  0.69147  0.92353  1.0000
  N   N66       1.0  0.28913  0.72438  0.84276  1.0000
  C   C950      1.0  0.28965  0.70986  0.83308  1.0000
  C   C951      1.0  0.01242  0.73651  0.93818  1.0000
  C   C952      1.0  0.29972  0.71627  0.85422  1.0000
  C   C953      1.0  0.30010  0.74739  0.83389  1.0000
  C   C954      1.0  0.29098  0.75799  0.82320  1.0000
  C   C955      1.0  0.32041  0.75953  0.83503  1.0000
  C   C956      1.0  0.30145  0.77941  0.81429  1.0000
  C   C957      1.0  0.33091  0.78083  0.82592  1.0000
  C   C958      1.0  0.32146  0.79076  0.81558  1.0000
  H   H1169     1.0  0.30698  0.71144  0.82702  1.0000
  H   H1170     1.0  0.21309  0.74513  0.80617  1.0000
  H   H1171     1.0  0.28053  0.71389  0.82484  1.0000
  H   H1172     1.0  0.31693  0.71589  0.84947  1.0000
  N   N67       1.0  0.48074  0.84239  0.75150  1.0000
  H   H1173     1.0  0.29983  0.72648  0.86194  1.0000
  H   H1174     1.0  0.25565  0.72538  0.84248  1.0000
  C   C959      1.0  0.46002  0.80258  0.76314  1.0000
  H   H1175     1.0  0.26448  0.73341  0.85717  1.0000
  H   H1176     1.0  0.27609  0.74945  0.82125  1.0000
  H   H1177     1.0  0.32887  0.75272  0.84258  1.0000
  H   H1178     1.0  0.29450  0.78687  0.80590  1.0000
  H   H1179     1.0  0.34675  0.78948  0.82666  1.0000
  H   H1180     1.0  0.32997  0.80703  0.80826  1.0000
  N   N68       1.0  0.19858  0.73573  0.78964  1.0000
  C   C960      1.0  0.19200  0.75652  0.78660  1.0000
  C   C961      1.0  0.17981  0.71775  0.78999  1.0000
  C   C962      1.0  0.20204  0.73103  0.80444  1.0000
  C   C963      1.0  0.21919  0.73809  0.77836  1.0000
  C   C964      1.0  0.21957  0.72771  0.76702  1.0000
  C   C965      1.0  0.23958  0.75188  0.77812  1.0000
  H   H1181     1.0  0.02326  0.96125  0.80365  1.0000
  N   N69       1.0  0.08748  0.71008  0.90999  1.0000
  C   C966      1.0  0.10721  0.72570  0.91084  1.0000
  H   H1182     1.0  0.18926  0.76065  0.77557  1.0000
  H   H1183     1.0  0.17643  0.75545  0.79476  1.0000
  H   H1184     1.0  0.20495  0.77057  0.78690  1.0000
  H   H1185     1.0  0.17445  0.72104  0.77983  1.0000
  C   C967      1.0  0.42243  0.83066  0.95843  1.0000
  C   C968      1.0  0.48442  0.84301  0.92908  1.0000
  H   H1186     1.0  0.36098  0.67901  0.82160  1.0000
  H   H1187     1.0  0.00820  0.99302  0.79627  1.0000
  C   C969      1.0  0.47964  0.76229  0.92794  1.0000
  C   C970      1.0  0.41701  0.83536  0.94525  1.0000
  C   C971      1.0  0.02136  0.95244  0.75078  1.0000
  C   C972      1.0  0.02907  0.97074  0.73858  1.0000
  C   C973      1.0  0.07575  0.68082  0.75317  1.0000
  C   C974      1.0  0.46763  0.72564  0.92516  1.0000
  H   H1188     1.0  0.39878  0.77602  0.74541  1.0000
  H   H1189     1.0  0.43867  0.76381  0.92637  1.0000
  C   C975      1.0  0.03467  0.99424  0.75416  1.0000
  H   H1190     1.0  0.00725  0.71755  0.97433  1.0000
  C   C976      1.0  0.49304  0.76843  0.94874  1.0000
  C   C977      1.0  0.18977  0.68721  0.83826  1.0000
  C   C978      1.0  0.42263  0.79131  0.77897  1.0000
  C   C979      1.0  0.00914  0.73314  0.97736  1.0000
  H   H1191     1.0  0.16444  0.69866  0.85025  1.0000
  H   H1192     1.0  0.23929  0.72175  0.74823  1.0000
  H   H1193     1.0  0.27475  0.76425  0.76795  1.0000
  H   H1194     1.0  0.23732  0.69186  0.93763  1.0000
  C   C980      1.0  0.44132  0.82997  0.76826  1.0000
  C   C981      1.0  0.01673  0.70139  0.93542  1.0000
  C   C982      1.0  0.05268  0.70583  0.75214  1.0000
  H   H1195     1.0  0.49380  0.90721  0.94596  1.0000
  H   H1196     1.0  0.48657  0.75845  0.90006  1.0000
  H   H1197     1.0  0.33695  0.67495  0.84503  1.0000
  H   H1198     1.0  0.47447  0.86527  0.96944  1.0000
  S   S268      1.0  0.00584  0.67279  0.98193  1.0000
  C   C983      1.0  0.16861  0.69041  0.84201  1.0000
  H   H1199     1.0  0.06631  0.72827  0.91922  1.0000
  H   H1200     1.0  0.12964  0.67470  0.88289  1.0000
  C   C984      1.0  0.08223  0.70347  0.88610  1.0000
  H   H1201     1.0  0.36870  0.68976  0.90596  1.0000
  C   C985      1.0  0.47871  0.86506  0.75047  1.0000
  H   H1202     1.0  0.44074  0.84176  0.97203  1.0000
  C   C986      1.0  0.05794  0.99562  0.83152  1.0000
  C   C987      1.0  0.25904  0.74374  0.75674  1.0000
  H   H1203     1.0  0.42152  0.85977  0.92520  1.0000
  H   H1204     1.0  0.27305  0.68687  0.75556  1.0000
  H   H1205     1.0  0.27184  0.67681  0.81565  1.0000
  H   H1206     1.0  0.02653  0.69951  0.74247  1.0000
  H   H1207     1.0  0.48524  0.72580  0.92103  1.0000
  C   C988      1.0  0.11062  0.69100  0.89568  1.0000
  C   C989      1.0  0.40924  0.83013  0.74391  1.0000
  H   H1208     1.0  0.01747  0.75090  0.94169  1.0000
  H   H1209     1.0  0.07490  0.69709  0.93346  1.0000
  H   H1210     1.0  0.46142  0.91782  0.95902  1.0000
  C   C990      1.0  0.44123  0.78598  0.77198  1.0000
  H   H1211     1.0  0.49405  0.87765  0.74328  1.0000
  H   H1212     1.0  0.37951  0.67630  0.85602  1.0000
  C   C991      1.0  0.37784  0.67771  0.90480  1.0000
  H   H1213     1.0  0.47788  0.89232  0.97142  1.0000
  C   C992      1.0  0.03997  0.69358  0.74532  1.0000
  S   S269      1.0  0.01107  0.91685  0.82905  1.0000
  H   H1214     1.0  0.05848  0.99793  0.86589  1.0000
  H   H1215     1.0  0.48850  0.82401  0.73601  1.0000
  C   C993      1.0  0.23042  0.68212  0.78463  1.0000
  C   C994      1.0  0.47965  0.75529  0.94278  1.0000
  C   C995      1.0  0.10533  0.68498  0.87304  1.0000
  H   H1216     1.0  0.49935  0.97297  0.96372  1.0000
  H   H1217     1.0  0.01608  0.81303  0.96998  1.0000
  C   C996      1.0  0.03563  0.99161  0.74027  1.0000
  H   H1218     1.0  0.07952  0.69673  0.86588  1.0000
  H   H1219     1.0  0.49726  0.85832  0.92508  1.0000
  C   C997      1.0  0.00725  0.79814  0.97871  1.0000
  H   H1220     1.0  0.04832  0.99517  0.79218  1.0000
  C   C998      1.0  0.00432  0.00194  0.84873  1.0000
  C   C999      1.0  0.23050  0.67468  0.93865  1.0000
  H   H1221     1.0  0.49382  0.79080  0.90841  1.0000
  C   C1000     1.0  0.15328  0.68413  0.83443  1.0000
  H   H1222     1.0  0.49663  0.84072  0.76875  1.0000
  C   C1001     1.0  0.49995  0.84007  0.75723  1.0000
  C   C1002     1.0  0.19511  0.67681  0.82743  1.0000
  H   H1223     1.0  0.19792  0.67530  0.94827  1.0000
  H   H1224     1.0  0.49255  0.76294  0.96016  1.0000
  C   C1003     1.0  0.15896  0.67445  0.82319  1.0000
  H   H1225     1.0  0.09205  0.68242  0.92507  1.0000
  S   S270      1.0  0.20425  0.67186  0.91007  1.0000
  C   C1004     1.0  0.17977  0.67041  0.81996  1.0000
  S   S271      1.0  0.17376  0.67100  0.88667  1.0000
  H   H1226     1.0  0.06455  0.67935  0.92338  1.0000
  H   H1227     1.0  0.26205  0.67040  0.92865  1.0000
  H   H1228     1.0  0.01893  0.73243  0.98546  1.0000
  Fe  Fe135     1.0  0.64912  0.22773  0.18273  1.0000
  S   S272      1.0  0.66310  0.24186  0.15836  1.0000
  S   S273      1.0  0.65348  0.19494  0.19395  1.0000
  Fe  Fe136     1.0  0.62925  0.26520  0.18573  1.0000
  S   S274      1.0  0.64050  0.28201  0.16175  1.0000
  S   S275      1.0  0.60980  0.28148  0.19965  1.0000
  Fe  Fe137     1.0  0.63006  0.24849  0.15905  1.0000
  S   S276      1.0  0.60892  0.24175  0.14409  1.0000
  Fe  Fe138     1.0  0.67254  0.27437  0.16304  1.0000
  S   S277      1.0  0.70299  0.30147  0.14933  1.0000
  S   S278      1.0  0.61548  0.23236  0.18306  1.0000
  S   S279      1.0  0.66202  0.25971  0.18739  1.0000
  C   C1005     1.0  0.62080  0.23324  0.22457  1.0000
  S   S280      1.0  0.54903  0.30843  0.16030  1.0000
  S   S281      1.0  0.56376  0.33404  0.02835  1.0000
  H   H1229     1.0  0.98550  0.05224  0.21049  1.0000
  Fe  Fe139     1.0  0.62793  0.20743  0.07389  1.0000
  S   S282      1.0  0.64594  0.21878  0.04997  1.0000
  S   S283      1.0  0.64712  0.20805  0.09059  1.0000
  Fe  Fe140     1.0  0.58325  0.19814  0.06810  1.0000
  S   S284      1.0  0.59711  0.20893  0.04374  1.0000
  S   S285      1.0  0.54704  0.18510  0.07940  1.0000
  Fe  Fe141     1.0  0.62168  0.18987  0.04802  1.0000
  S   S286      1.0  0.63424  0.16775  0.03505  1.0000
  Fe  Fe142     1.0  0.61995  0.23671  0.04781  1.0000
  S   S287      1.0  0.62671  0.27253  0.03592  1.0000
  S   S288      1.0  0.60602  0.17692  0.07226  1.0000
  S   S289      1.0  0.60367  0.22748  0.07181  1.0000
  H   H1230     1.0  0.59068  0.23454  0.21870  1.0000
  Fe  Fe143     1.0  0.52669  0.31970  0.03818  1.0000
  H   H1231     1.0  0.53446  0.25791  0.07733  1.0000
  H   H1232     1.0  0.65450  0.27671  0.12827  1.0000
  H   H1233     1.0  0.89249  0.10001  0.19604  1.0000
  C   C1006     1.0  0.90713  0.09468  0.19236  1.0000
  H   H1234     1.0  0.64871  0.22786  0.23164  1.0000
  H   H1235     1.0  0.95908  0.07463  0.18047  1.0000
  Fe  Fe144     1.0  0.98337  0.05456  0.12344  1.0000
  H   H1236     1.0  0.98705  0.03083  0.19410  1.0000
  S   S290      1.0  0.94950  0.05439  0.12039  1.0000
  H   H1237     1.0  0.51154  0.21960  0.09376  1.0000
  S   S291      1.0  0.61647  0.06796  0.00563  1.0000
  Fe  Fe145     1.0  0.90350  0.01935  0.21820  1.0000
  C   C1007     1.0  0.94104  0.08714  0.19599  1.0000
  H   H1238     1.0  0.96623  0.02518  0.10476  1.0000
  H   H1239     1.0  0.58223  0.31392  0.00467  1.0000
  Fe  Fe146     1.0  0.59523  0.03338  0.01294  1.0000
  H   H1240     1.0  0.55337  0.33074  0.11267  1.0000
  H   H1241     1.0  0.57681  0.10426  0.20981  1.0000
  S   S292      1.0  0.56448  0.04291  0.01016  1.0000
  N   N70       1.0  0.58138  0.32919  0.09657  1.0000
  H   H1242     1.0  0.52388  0.30467  0.19325  1.0000
  C   C1008     1.0  0.56221  0.08588  0.06144  1.0000
  H   H1243     1.0  0.63624  0.03436  0.00859  1.0000
  H   H1244     1.0  0.60875  0.29424  0.00443  1.0000
  C   C1009     1.0  0.98868  0.06523  0.22842  1.0000
  C   C1010     1.0  0.57608  0.28351  0.02997  1.0000
  N   N71       1.0  0.58776  0.06434  0.05205  1.0000
  H   H1245     1.0  0.57432  0.16124  0.21949  1.0000
  C   C1011     1.0  0.59735  0.11855  0.06209  1.0000
  C   C1012     1.0  0.51957  0.27215  0.13327  1.0000
  H   H1246     1.0  0.51181  0.20231  0.03037  1.0000
  C   C1013     1.0  0.93671  0.03451  0.11297  1.0000
  H   H1247     1.0  0.66531  0.29275  0.09448  1.0000
  C   C1014     1.0  0.56893  0.29847  0.00721  1.0000
  N   N72       1.0  0.66266  0.30807  0.11198  1.0000
  Fe  Fe147     1.0  0.85471  0.01939  0.22561  1.0000
  H   H1248     1.0  0.60304  0.26646  0.01429  1.0000
  C   C1015     1.0  0.92239  0.09430  0.20051  1.0000
  C   C1016     1.0  0.61715  0.15022  0.02812  1.0000
  C   C1017     1.0  0.59599  0.15198  0.02758  1.0000
  C   C1018     1.0  0.58334  0.13811  0.02147  1.0000
  C   C1019     1.0  0.59170  0.12238  0.01593  1.0000
  C   C1020     1.0  0.61275  0.12051  0.01665  1.0000
  C   C1021     1.0  0.62530  0.13425  0.02280  1.0000
  H   H1249     1.0  0.58946  0.16412  0.03175  1.0000
  H   H1250     1.0  0.56706  0.13966  0.02099  1.0000
  C   C1022     1.0  0.68329  0.32530  0.10317  1.0000
  H   H1251     1.0  0.64151  0.13258  0.02338  1.0000
  C   C1023     1.0  0.97674  0.05449  0.22053  1.0000
  C   C1024     1.0  0.59906  0.22446  0.22476  1.0000
  H   H1252     1.0  0.65327  0.02933  0.23400  1.0000
  C   C1025     1.0  0.53068  0.20038  0.07189  1.0000
  C   C1026     1.0  0.53935  0.22261  0.06397  1.0000
  C   C1027     1.0  0.52544  0.23458  0.05859  1.0000
  H   H1253     1.0  0.61100  0.13151  0.06213  1.0000
  H   H1254     1.0  0.63415  0.32022  0.17714  1.0000
  H   H1255     1.0  0.55667  0.23052  0.06205  1.0000
  H   H1256     1.0  0.53202  0.25164  0.05237  1.0000
  C   C1028     1.0  0.65300  0.27902  0.05401  1.0000
  C   C1029     1.0  0.64238  0.28867  0.04427  1.0000
  H   H1257     1.0  0.56023  0.28534  0.03626  1.0000
  H   H1258     1.0  0.65188  0.26167  0.05630  1.0000
  H   H1259     1.0  0.63529  0.31863  0.03423  1.0000
  C   C1030     1.0  0.63037  0.17389  0.20588  1.0000
  C   C1031     1.0  0.60879  0.17607  0.20788  1.0000
  C   C1032     1.0  0.59093  0.15934  0.21794  1.0000
  C   C1033     1.0  0.64630  0.31644  0.12081  1.0000
  C   C1034     1.0  0.63384  0.15460  0.21381  1.0000
  H   H1260     1.0  0.60575  0.19071  0.20191  1.0000
  C   C1035     1.0  0.52453  0.21771  0.02696  1.0000
  H   H1261     1.0  0.65044  0.15261  0.21221  1.0000
  C   C1036     1.0  0.61999  0.23300  0.12903  1.0000
  C   C1037     1.0  0.60649  0.22710  0.12033  1.0000
  C   C1038     1.0  0.61472  0.21959  0.10843  1.0000
  C   C1039     1.0  0.63653  0.21800  0.10515  1.0000
  C   C1040     1.0  0.65004  0.22397  0.11384  1.0000
  C   C1041     1.0  0.64184  0.23156  0.12571  1.0000
  H   H1262     1.0  0.58951  0.22797  0.12293  1.0000
  H   H1263     1.0  0.60404  0.21451  0.10202  1.0000
  H   H1264     1.0  0.66693  0.22275  0.11133  1.0000
  H   H1265     1.0  0.65246  0.23617  0.13225  1.0000
  C   C1042     1.0  0.71399  0.32084  0.15768  1.0000
  N   N73       1.0  0.52014  0.24890  0.10059  1.0000
  H   H1266     1.0  0.73110  0.04159  0.04518  1.0000
  H   H1267     1.0  0.58230  0.07643  0.03122  1.0000
  S   S293      1.0  0.50494  0.29911  0.02819  1.0000
  C   C1043     1.0  0.59048  0.28794  0.19045  1.0000
  C   C1044     1.0  0.58151  0.27362  0.18324  1.0000
  C   C1045     1.0  0.56811  0.27970  0.17441  1.0000
  C   C1046     1.0  0.56427  0.30045  0.17235  1.0000
  C   C1047     1.0  0.57311  0.31476  0.17962  1.0000
  C   C1048     1.0  0.58576  0.30830  0.18896  1.0000
  H   H1268     1.0  0.58485  0.25778  0.18445  1.0000
  H   H1269     1.0  0.56126  0.26852  0.16885  1.0000
  H   H1270     1.0  0.95282  0.08661  0.20241  1.0000
  H   H1271     1.0  0.59249  0.31933  0.19460  1.0000
  H   H1272     1.0  0.55827  0.05776  0.04455  1.0000
  N   N74       1.0  0.62268  0.17157  0.16177  1.0000
  C   C1049     1.0  0.64706  0.17489  0.15787  1.0000
  C   C1050     1.0  0.61524  0.16902  0.14878  1.0000
  C   C1051     1.0  0.61827  0.19173  0.16499  1.0000
  C   C1052     1.0  0.61042  0.15243  0.17458  1.0000
  C   C1053     1.0  0.58697  0.14714  0.17959  1.0000
  C   C1054     1.0  0.62111  0.13912  0.18274  1.0000
  C   C1055     1.0  0.57504  0.12984  0.19208  1.0000
  C   C1056     1.0  0.60897  0.12171  0.19512  1.0000
  C   C1057     1.0  0.58603  0.11720  0.19985  1.0000
  H   H1273     1.0  0.65395  0.17825  0.16690  1.0000
  H   H1274     1.0  0.65170  0.16041  0.15514  1.0000
  H   H1275     1.0  0.65572  0.18933  0.14814  1.0000
  H   H1276     1.0  0.61724  0.15342  0.14644  1.0000
  H   H1277     1.0  0.62486  0.18275  0.13880  1.0000
  H   H1278     1.0  0.59763  0.16903  0.15012  1.0000
  H   H1279     1.0  0.62294  0.19364  0.17501  1.0000
  H   H1280     1.0  0.62786  0.20663  0.15591  1.0000
  H   H1281     1.0  0.60062  0.19178  0.16667  1.0000
  H   H1282     1.0  0.57773  0.15670  0.17408  1.0000
  H   H1283     1.0  0.63887  0.14216  0.18006  1.0000
  H   H1284     1.0  0.55721  0.12648  0.19597  1.0000
  H   H1285     1.0  0.54846  0.20300  0.03460  1.0000
  S   S294      1.0  0.88172  0.01103  0.17415  1.0000
  C   C1058     1.0  0.71985  0.02493  0.04756  1.0000
  C   C1059     1.0  0.65297  0.29823  0.10173  1.0000
  H   H1286     1.0  0.58913  0.29887  0.02818  1.0000
  H   H1287     1.0  0.55417  0.25754  0.08757  1.0000
  C   C1060     1.0  0.53789  0.26706  0.13719  1.0000
  H   H1288     1.0  0.58045  0.26996  0.03702  1.0000
  H   H1289     1.0  0.65107  0.17963  0.22889  1.0000
  C   C1061     1.0  0.51356  0.26639  0.12145  1.0000
  C   C1062     1.0  0.66716  0.31431  0.05784  1.0000
  S   S295      1.0  0.68374  0.32995  0.06595  1.0000
  H   H1290     1.0  0.75050  0.32925  0.17769  1.0000
  C   C1063     1.0  0.61007  0.30922  0.13841  1.0000
  H   H1291     1.0  0.71100  0.02540  0.03893  1.0000
  H   H1292     1.0  0.56670  0.29604  0.99668  1.0000
  C   C1064     1.0  0.50200  0.32949  0.10849  1.0000
  C   C1065     1.0  0.67041  0.15869  0.99572  1.0000
  C   C1066     1.0  0.76623  0.00920  0.08153  1.0000
  C   C1067     1.0  0.68648  0.31735  0.19485  1.0000
  H   H1293     1.0  0.60584  0.29759  0.09684  1.0000
  H   H1294     1.0  0.61913  0.12370  0.23039  1.0000
  H   H1295     1.0  0.53106  0.27173  0.01242  1.0000
  C   C1068     1.0  0.95936  0.00903  0.18425  1.0000
  C   C1069     1.0  0.66314  0.02213  0.01304  1.0000
  C   C1070     1.0  0.56123  0.23812  0.02560  1.0000
  H   H1296     1.0  0.66639  0.20109  0.23420  1.0000
  H   H1297     1.0  0.58886  0.30968  0.11496  1.0000
  C   C1071     1.0  0.95365  0.04686  0.22544  1.0000
  C   C1072     1.0  0.62532  0.30223  0.12926  1.0000
  S   S296      1.0  0.51814  0.29337  0.05933  1.0000
  C   C1073     1.0  0.57696  0.31846  0.07403  1.0000
  C   C1074     1.0  0.59852  0.30063  0.08792  1.0000
  C   C1075     1.0  0.58057  0.30605  0.06424  1.0000
  C   C1076     1.0  0.60210  0.28836  0.07801  1.0000
  C   C1077     1.0  0.59310  0.29105  0.06622  1.0000
  H   H1298     1.0  0.88587  0.01258  0.10929  1.0000
  C   C1078     1.0  0.59387  0.32679  0.10768  1.0000
  C   C1079     1.0  0.62572  0.00894  0.02907  1.0000
  C   C1080     1.0  0.50313  0.22415  0.06087  1.0000
  H   H1299     1.0  0.77474  0.00887  0.08997  1.0000
  C   C1081     1.0  0.66891  0.29090  0.12186  1.0000
  H   H1300     1.0  0.61746  0.11214  0.20143  1.0000
  H   H1301     1.0  0.57656  0.23772  0.02827  1.0000
  H   H1302     1.0  0.61212  0.27684  0.07933  1.0000
  H   H1303     1.0  0.57281  0.13472  0.06939  1.0000
  C   C1082     1.0  0.50832  0.19019  0.07432  1.0000
  H   H1304     1.0  0.57367  0.30818  0.05501  1.0000
  C   C1083     1.0  0.90335  0.01521  0.10832  1.0000
  S   S297      1.0  0.60415  0.02694  0.99115  1.0000
  N   N75       1.0  0.93258  0.07152  0.16201  1.0000
  C   C1084     1.0  0.93584  0.04919  0.16608  1.0000
  C   C1085     1.0  0.91389  0.07009  0.15530  1.0000
  C   C1086     1.0  0.95269  0.08632  0.15074  1.0000
  C   C1087     1.0  0.92894  0.07976  0.17502  1.0000
  C   C1088     1.0  0.91028  0.08759  0.17977  1.0000
  C   C1089     1.0  0.94439  0.08011  0.18341  1.0000
  H   H1305     1.0  0.95169  0.04937  0.16886  1.0000
  H   H1306     1.0  0.92220  0.03821  0.17570  1.0000
  H   H1307     1.0  0.93618  0.04145  0.15699  1.0000
  H   H1308     1.0  0.91691  0.06317  0.14582  1.0000
  H   H1309     1.0  0.91134  0.08651  0.15101  1.0000
  H   H1310     1.0  0.89823  0.05903  0.16325  1.0000
  H   H1311     1.0  0.96778  0.08699  0.15462  1.0000
  H   H1312     1.0  0.95583  0.08080  0.14068  1.0000
  H   H1313     1.0  0.95109  0.10338  0.14755  1.0000
  H   H1314     1.0  0.89759  0.08791  0.17417  1.0000
  H   H1315     1.0  0.79632  0.02127  0.06410  1.0000
  H   H1316     1.0  0.61948  0.08088  0.03640  1.0000
  C   C1090     1.0  0.64385  0.31117  0.04152  1.0000
  H   H1317     1.0  0.61957  0.10874  0.01230  1.0000
  H   H1318     1.0  0.54799  0.07357  0.06159  1.0000
  H   H1319     1.0  0.55474  0.24204  0.11166  1.0000
  H   H1320     1.0  0.66334  0.31108  0.18297  1.0000
  C   C1091     1.0  0.66555  0.29183  0.06063  1.0000
  H   H1321     1.0  0.67409  0.28424  0.06789  1.0000
  H   H1322     1.0  0.91967  0.09935  0.21042  1.0000
  H   H1323     1.0  0.55378  0.30177  0.01326  1.0000
  H   H1324     1.0  0.73128  0.30027  0.16858  1.0000
  C   C1092     1.0  0.72826  0.31633  0.16621  1.0000
  S   S298      1.0  0.57571  0.10566  0.00788  1.0000
  Fe  Fe148     1.0  0.58663  0.07740  0.00107  1.0000
  H   H1325     1.0  0.57986  0.04749  0.03646  1.0000
  C   C1093     1.0  0.57654  0.06141  0.04063  1.0000
  C   C1094     1.0  0.52575  0.25503  0.11328  1.0000
  C   C1095     1.0  0.59607  0.27818  0.00772  1.0000
  C   C1096     1.0  0.58402  0.08374  0.05679  1.0000
  H   H1326     1.0  0.95232  0.01551  0.19321  1.0000
  H   H1327     1.0  0.69611  0.11957  0.98953  1.0000
  C   C1097     1.0  0.74730  0.01252  0.03314  1.0000
  C   C1098     1.0  0.53823  0.26148  0.08722  1.0000
  C   C1099     1.0  0.60153  0.10058  0.05742  1.0000
  H   H1328     1.0  0.58627  0.04601  0.07366  1.0000
  H   H1329     1.0  0.61375  0.05159  0.04179  1.0000
  H   H1330     1.0  0.54156  0.10566  0.06904  1.0000
  H   H1331     1.0  0.61868  0.10062  0.05408  1.0000
  C   C1100     1.0  0.57584  0.12044  0.06614  1.0000
  H   H1332     1.0  0.62083  0.06624  0.05418  1.0000
  C   C1101     1.0  0.61152  0.06594  0.04587  1.0000
  C   C1102     1.0  0.57851  0.04441  0.06470  1.0000
  H   H1333     1.0  0.94563  0.00411  0.17942  1.0000
  H   H1334     1.0  0.58133  0.02949  0.06158  1.0000
  H   H1335     1.0  0.67608  0.29756  0.12983  1.0000
  H   H1336     1.0  0.56035  0.04127  0.06926  1.0000
  S   S299      1.0  0.98183  0.03316  0.14520  1.0000
  H   H1337     1.0  0.54241  0.27155  0.14639  1.0000
  H   H1338     1.0  0.69511  0.14627  0.00401  1.0000
  C   C1103     1.0  0.51596  0.31277  0.20063  1.0000
  N   N76       1.0  0.57419  0.27931  0.01598  1.0000
  H   H1339     1.0  0.53354  0.22052  0.10195  1.0000
  S   S300      1.0  0.88385  0.03737  0.20591  1.0000
  H   H1340     1.0  0.73791  0.01120  0.02494  1.0000
  C   C1104     1.0  0.64110  0.02289  0.01621  1.0000
  H   H1341     1.0  0.62911  0.25019  0.21839  1.0000
  S   S301      1.0  0.59815  0.01034  0.03288  1.0000
  C   C1105     1.0  0.54517  0.21814  0.02932  1.0000
  H   H1342     1.0  0.67506  0.03339  0.00326  1.0000
  H   H1343     1.0  0.59497  0.27321  0.99770  1.0000
  H   H1344     1.0  0.68888  0.30101  0.19640  1.0000
  C   C1106     1.0  0.55723  0.25832  0.01915  1.0000
  Fe  Fe149     1.0  0.57545  0.03969  0.98744  1.0000
  S   S302      1.0  0.94015  0.03190  0.21547  1.0000
  C   C1107     1.0  0.52871  0.32899  0.20480  1.0000
  C   C1108     1.0  0.51766  0.22506  0.10250  1.0000
  C   C1109     1.0  0.51995  0.23723  0.02076  1.0000
  H   H1345     1.0  0.66951  0.16990  0.00242  1.0000
  H   H1346     1.0  0.54709  0.32469  0.09685  1.0000
  H   H1347     1.0  0.68141  0.28426  0.11573  1.0000
  H   H1348     1.0  0.62079  0.28537  0.12914  1.0000
  C   C1110     1.0  0.55038  0.25624  0.12929  1.0000
  H   H1349     1.0  0.55241  0.30402  0.11017  1.0000
  H   H1350     1.0  0.90463  0.04023  0.11956  1.0000
  H   H1351     1.0  0.56695  0.32976  0.07204  1.0000
  C   C1111     1.0  0.54449  0.25034  0.11749  1.0000
  C   C1112     1.0  0.73927  0.33282  0.17127  1.0000
  H   H1352     1.0  0.75846  0.02947  0.02914  1.0000
  C   C1113     1.0  0.99536  0.01813  0.19655  1.0000
  C   C1114     1.0  0.61504  0.33071  0.13922  1.0000
  H   H1353     1.0  0.54077  0.27944  0.08559  1.0000
  C   C1115     1.0  0.55828  0.10409  0.06588  1.0000
  H   H1354     1.0  0.50357  0.23688  0.01945  1.0000
  H   H1355     1.0  0.59438  0.29780  0.14503  1.0000
  C   C1116     1.0  0.61609  0.13817  0.22416  1.0000
  H   H1356     1.0  0.63893  0.28338  0.10743  1.0000
  C   C1117     1.0  0.59457  0.14057  0.22639  1.0000
  C   C1118     1.0  0.65601  0.32394  0.04843  1.0000
  H   H1357     1.0  0.69492  0.31867  0.09626  1.0000
  H   H1358     1.0  0.50566  0.21504  0.11315  1.0000
  C   C1119     1.0  0.53597  0.25729  0.01687  1.0000
  C   C1120     1.0  0.55752  0.32183  0.10440  1.0000
  C   C1121     1.0  0.91401  0.03086  0.11415  1.0000
  C   C1122     1.0  0.58598  0.31628  0.08613  1.0000
  C   C1123     1.0  0.94872  0.02245  0.10581  1.0000
  H   H1359     1.0  0.59593  0.28154  0.05857  1.0000
  H   H1360     1.0  0.97241  0.02276  0.17584  1.0000
  H   H1361     1.0  0.70713  0.02172  0.05806  1.0000
  H   H1362     1.0  0.56460  0.25225  0.13244  1.0000
  C   C1124     1.0  0.66969  0.00653  0.02226  1.0000
  H   H1363     1.0  0.64728  0.31039  0.09446  1.0000
  C   C1125     1.0  0.68467  0.14525  0.99673  1.0000
  C   C1126     1.0  0.93813  0.00711  0.09972  1.0000
  C   C1127     1.0  0.68519  0.13024  0.98859  1.0000
  H   H1364     1.0  0.57028  0.33080  0.17803  1.0000
  C   C1128     1.0  0.67197  0.32350  0.18695  1.0000
  H   H1365     1.0  0.54657  0.33340  0.20073  1.0000
  C   C1129     1.0  0.91542  0.00339  0.10099  1.0000
  Fe  Fe150     1.0  0.87488  0.00744  0.19835  1.0000
  H   H1366     1.0  0.61204  0.33179  0.10245  1.0000
  H   H1367     1.0  0.71025  0.32775  0.20600  1.0000
  H   H1368     1.0  0.77831  0.02108  0.04490  1.0000
  N   N77       1.0  0.73236  0.00808  0.04802  1.0000
  C   C1130     1.0  0.69845  0.33233  0.20033  1.0000
  C   C1131     1.0  0.50300  0.33065  0.09389  1.0000
  H   H1369     1.0  0.69244  0.33229  0.11022  1.0000
  H   H1370     1.0  0.65774  0.33255  0.16127  1.0000
  H   H1371     1.0  0.51006  0.28076  0.13941  1.0000
  H   H1372     1.0  0.88345  0.01332  0.14458  1.0000
  C   C1132     1.0  0.63183  0.22030  0.23221  1.0000
  C   C1133     1.0  0.74426  0.00856  0.05936  1.0000
  C   C1134     1.0  0.76771  0.01591  0.05593  1.0000
  C   C1135     1.0  0.86665  0.00488  0.15106  1.0000
  H   H1373     1.0  0.57135  0.19588  0.23267  1.0000
  S   S303      1.0  0.69716  0.00536  0.01751  1.0000
  C   C1136     1.0  0.58820  0.20275  0.23269  1.0000
  C   C1137     1.0  0.77838  0.01625  0.06691  1.0000
  H   H1374     1.0  0.50159  0.17304  0.08045  1.0000
  C   C1138     1.0  0.65659  0.15716  0.98657  1.0000
  H   H1375     1.0  0.64526  0.16739  0.98661  1.0000
  C   C1139     1.0  0.64434  0.33596  0.16905  1.0000
  H   H1376     1.0  0.60321  0.33596  0.14646  1.0000
  C   C1140     1.0  0.55123  0.14117  0.44525  1.0000
  Fe  Fe151     1.0  0.62229  0.18695  0.45136  1.0000
  S   S304      1.0  0.60374  0.16298  0.47327  1.0000
  S   S305      1.0  0.63878  0.17836  0.43128  1.0000
  Fe  Fe152     1.0  0.61090  0.22595  0.46091  1.0000
  H   H1377     1.0  0.64974  0.21158  0.25541  1.0000
  S   S306      1.0  0.61253  0.26201  0.45522  1.0000
  H   H1378     1.0  0.56223  0.30158  0.47930  1.0000
  H   H1379     1.0  0.89756  0.03313  0.26735  1.0000
  Fe  Fe153     1.0  0.57775  0.18103  0.47192  1.0000
  H   H1380     1.0  0.66259  0.17315  0.24394  1.0000
  S   S307      1.0  0.63987  0.21161  0.46072  1.0000
  S   S308      1.0  0.59517  0.20343  0.44954  1.0000
  Fe  Fe154     1.0  0.58850  0.05225  0.26786  1.0000
  S   S309      1.0  0.59796  0.05963  0.28727  1.0000
  C   C1141     1.0  0.71260  0.06703  0.24589  1.0000
  Fe  Fe155     1.0  0.58012  0.09686  0.25731  1.0000
  S   S310      1.0  0.58703  0.10728  0.27655  1.0000
  Fe  Fe156     1.0  0.53625  0.30454  0.43275  1.0000
  Fe  Fe157     1.0  0.61590  0.09315  0.27214  1.0000
  S   S311      1.0  0.64778  0.11578  0.27124  1.0000
  Fe  Fe158     1.0  0.56831  0.07298  0.28999  1.0000
  S   S312      1.0  0.54549  0.06099  0.31276  1.0000
  S   S313      1.0  0.61004  0.08436  0.25222  1.0000
  S   S314      1.0  0.55781  0.06384  0.27129  1.0000
  Fe  Fe159     1.0  0.58126  0.03981  0.39182  1.0000
  S   S315      1.0  0.59937  0.05877  0.36865  1.0000
  Fe  Fe160     1.0  0.59499  0.07832  0.40363  1.0000
  S   S316      1.0  0.61426  0.10076  0.38148  1.0000
  S   S317      1.0  0.59178  0.08641  0.42513  1.0000
  Fe  Fe161     1.0  0.58565  0.08588  0.37412  1.0000
  S   S318      1.0  0.57654  0.10892  0.35705  1.0000
  Fe  Fe162     1.0  0.62646  0.07201  0.37774  1.0000
  S   S319      1.0  0.66190  0.07855  0.36520  1.0000
  S   S320      1.0  0.56483  0.06577  0.39668  1.0000
  S   S321      1.0  0.60978  0.05063  0.40056  1.0000
  H   H1381     1.0  0.75259  0.33284  0.40859  1.0000
  H   H1382     1.0  0.68197  0.27681  0.46894  1.0000
  S   S322      1.0  0.67800  0.02171  0.31159  1.0000
  N   N78       1.0  0.66243  0.08372  0.41444  1.0000
  S   S323      1.0  0.51976  0.28581  0.41956  1.0000
  C   C1142     1.0  0.68436  0.07943  0.40995  1.0000
  C   C1143     1.0  0.57524  0.26197  0.43401  1.0000
  H   H1383     1.0  0.58883  0.27567  0.39696  1.0000
  C   C1144     1.0  0.50243  0.18522  0.45358  1.0000
  H   H1384     1.0  0.65316  0.07141  0.24710  1.0000
  C   C1145     1.0  0.58413  0.14580  0.39166  1.0000
  C   C1146     1.0  0.53664  0.00968  0.38183  1.0000
  H   H1385     1.0  0.57008  0.10560  0.30867  1.0000
  Fe  Fe163     1.0  0.71044  0.03594  0.29435  1.0000
  C   C1147     1.0  0.63838  0.23314  0.41454  1.0000
  C   C1148     1.0  0.65555  0.09183  0.40117  1.0000
  C   C1149     1.0  0.66891  0.05557  0.36090  1.0000
  C   C1150     1.0  0.65772  0.03430  0.36981  1.0000
  H   H1386     1.0  0.79821  0.04664  0.25667  1.0000
  S   S324      1.0  0.72973  0.01898  0.30757  1.0000
  C   C1151     1.0  0.69111  0.04048  0.34430  1.0000
  C   C1152     1.0  0.68595  0.05863  0.34836  1.0000
  H   H1387     1.0  0.56959  0.28474  0.40903  1.0000
  C   C1153     1.0  0.95444  0.06131  0.24621  1.0000
  H   H1388     1.0  0.69497  0.07509  0.34166  1.0000
  S   S325      1.0  0.70420  0.01081  0.28246  1.0000
  H   H1389     1.0  0.66773  0.14637  0.44260  1.0000
  H   H1390     1.0  0.50550  0.28449  0.38209  1.0000
  H   H1391     1.0  0.50177  0.00359  0.27763  1.0000
  C   C1154     1.0  0.67090  0.30600  0.46347  1.0000
  C   C1155     1.0  0.63868  0.25274  0.41812  1.0000
  H   H1392     1.0  0.66930  0.00629  0.26792  1.0000
  H   H1393     1.0  0.55625  0.22577  0.42762  1.0000
  C   C1156     1.0  0.79317  0.02916  0.25807  1.0000
  H   H1394     1.0  0.57409  0.24738  0.44300  1.0000
  C   C1157     1.0  0.55441  0.07443  0.32492  1.0000
  H   H1395     1.0  0.52208  0.14918  0.43009  1.0000
  H   H1396     1.0  0.50463  0.03354  0.33275  1.0000
  C   C1158     1.0  0.56776  0.09564  0.34478  1.0000
  C   C1159     1.0  0.55639  0.07337  0.34957  1.0000
  C   C1160     1.0  0.54930  0.06291  0.33971  1.0000
  C   C1161     1.0  0.77410  0.01599  0.26918  1.0000
  C   C1162     1.0  0.65422  0.31462  0.45930  1.0000
  H   H1397     1.0  0.55253  0.06434  0.36097  1.0000
  H   H1398     1.0  0.53985  0.04589  0.34358  1.0000
  C   C1163     1.0  0.66864  0.10288  0.27357  1.0000
  C   C1164     1.0  0.66381  0.08005  0.27909  1.0000
  C   C1165     1.0  0.68073  0.07020  0.28137  1.0000
  C   C1166     1.0  0.70245  0.08316  0.27797  1.0000
  C   C1167     1.0  0.70734  0.10589  0.27200  1.0000
  C   C1168     1.0  0.69040  0.11576  0.26995  1.0000
  H   H1399     1.0  0.64709  0.07003  0.28170  1.0000
  H   H1400     1.0  0.67707  0.05262  0.28567  1.0000
  H   H1401     1.0  0.72415  0.11589  0.26932  1.0000
  H   H1402     1.0  0.51237  0.12148  0.42957  1.0000
  C   C1169     1.0  0.62578  0.15290  0.42944  1.0000
  C   C1170     1.0  0.63037  0.14878  0.41577  1.0000
  C   C1171     1.0  0.61996  0.12852  0.41419  1.0000
  C   C1172     1.0  0.60536  0.11212  0.42636  1.0000
  C   C1173     1.0  0.60129  0.11610  0.44004  1.0000
  C   C1174     1.0  0.61120  0.13649  0.44154  1.0000
  H   H1403     1.0  0.64178  0.16137  0.40638  1.0000
  H   H1404     1.0  0.62309  0.12573  0.40356  1.0000
  H   H1405     1.0  0.59043  0.10334  0.44957  1.0000
  H   H1406     1.0  0.60792  0.13928  0.45215  1.0000
  S   S326      1.0  0.58682  0.01971  0.26318  1.0000
  H   H1407     1.0  0.62523  0.01361  0.27422  1.0000
  H   H1408     1.0  0.62996  0.15197  0.26167  1.0000
  C   C1175     1.0  0.52945  0.18024  0.46698  1.0000
  C   C1176     1.0  0.53694  0.20304  0.46410  1.0000
  C   C1177     1.0  0.52673  0.21690  0.45628  1.0000
  H   H1409     1.0  0.69419  0.13340  0.26562  1.0000
  S   S327      1.0  0.69429  0.32320  0.46546  1.0000
  H   H1410     1.0  0.55044  0.20992  0.46804  1.0000
  H   H1411     1.0  0.69060  0.07419  0.41957  1.0000
  N   N79       1.0  0.54260  0.12825  0.43599  1.0000
  H   H1412     1.0  0.53062  0.09989  0.45506  1.0000
  N   N80       1.0  0.63514  0.08443  0.32330  1.0000
  C   C1178     1.0  0.62742  0.06061  0.33124  1.0000
  C   C1179     1.0  0.62823  0.09651  0.33391  1.0000
  C   C1180     1.0  0.62370  0.08829  0.31173  1.0000
  C   C1181     1.0  0.65939  0.09242  0.31671  1.0000
  C   C1182     1.0  0.67368  0.07838  0.31750  1.0000
  C   C1183     1.0  0.66941  0.11499  0.30924  1.0000
  C   C1184     1.0  0.69657  0.08666  0.31155  1.0000
  C   C1185     1.0  0.69234  0.12309  0.30337  1.0000
  C   C1186     1.0  0.70590  0.10894  0.30461  1.0000
  H   H1413     1.0  0.63514  0.05671  0.34032  1.0000
  H   H1414     1.0  0.60915  0.05517  0.33619  1.0000
  H   H1415     1.0  0.63125  0.05046  0.32376  1.0000
  H   H1416     1.0  0.63112  0.11430  0.32866  1.0000
  H   H1417     1.0  0.63734  0.09489  0.34240  1.0000
  H   H1418     1.0  0.61024  0.09031  0.33957  1.0000
  H   H1419     1.0  0.62695  0.10602  0.30607  1.0000
  H   H1420     1.0  0.62929  0.08029  0.30322  1.0000
  H   H1421     1.0  0.60542  0.08167  0.31619  1.0000
  H   H1422     1.0  0.66773  0.06094  0.32269  1.0000
  H   H1423     1.0  0.65953  0.12650  0.30780  1.0000
  H   H1424     1.0  0.70718  0.07562  0.31207  1.0000
  H   H1425     1.0  0.69962  0.14031  0.29756  1.0000
  H   H1426     1.0  0.72362  0.11505  0.29975  1.0000
  H   H1427     1.0  0.65327  0.26148  0.42032  1.0000
  C   C1187     1.0  0.56004  0.24185  0.41922  1.0000
  H   H1428     1.0  0.70399  0.04293  0.33442  1.0000
  H   H1429     1.0  0.65016  0.25280  0.46494  1.0000
  S   S328      1.0  0.57367  0.31758  0.42569  1.0000
  C   C1188     1.0  0.57611  0.15285  0.41527  1.0000
  H   H1430     1.0  0.63906  0.09508  0.40413  1.0000
  C   C1189     1.0  0.60012  0.24907  0.41748  1.0000
  H   H1431     1.0  0.62103  0.27602  0.42224  1.0000
  C   C1190     1.0  0.63480  0.27862  0.45878  1.0000
  N   N81       1.0  0.63329  0.18483  0.24855  1.0000
  C   C1191     1.0  0.60378  0.33288  0.48221  1.0000
  H   H1432     1.0  0.55951  0.26680  0.43637  1.0000
  H   H1433     1.0  0.60400  0.17204  0.39694  1.0000
  H   H1434     1.0  0.56168  0.11811  0.38951  1.0000
  C   C1192     1.0  0.55533  0.24721  0.48300  1.0000
  C   C1193     1.0  0.56556  0.12788  0.39673  1.0000
  H   H1435     1.0  0.68362  0.06629  0.40430  1.0000
  H   H1436     1.0  0.98569  0.03055  0.25812  1.0000
  H   H1437     1.0  0.62338  0.19544  0.26763  1.0000
  H   H1438     1.0  0.59462  0.14978  0.38059  1.0000
  S   S329      1.0  0.54247  0.16280  0.47632  1.0000
  C   C1194     1.0  0.80603  0.01974  0.24905  1.0000
  H   H1439     1.0  0.94580  0.06392  0.25620  1.0000
  C   C1195     1.0  0.52061  0.13169  0.43558  1.0000
  H   H1440     1.0  0.64568  0.05009  0.41677  1.0000
  C   C1196     1.0  0.55713  0.13451  0.42085  1.0000
  H   H1441     1.0  0.51264  0.01355  0.36976  1.0000
  C   C1197     1.0  0.66706  0.13353  0.43717  1.0000
  H   H1442     1.0  0.55606  0.10101  0.44247  1.0000
  H   H1443     1.0  0.65059  0.05500  0.43317  1.0000
  C   C1198     1.0  0.51200  0.17133  0.46189  1.0000
  C   C1199     1.0  0.68008  0.01922  0.35325  1.0000
  S   S330      1.0  0.72355  0.07143  0.28166  1.0000
  H   H1444     1.0  0.59805  0.29128  0.40853  1.0000
  C   C1200     1.0  0.62131  0.19806  0.24036  1.0000
  H   H1445     1.0  0.50360  0.04305  0.26901  1.0000
  C   C1201     1.0  0.97770  0.06841  0.24140  1.0000
  H   H1446     1.0  0.64727  0.18480  0.26666  1.0000
  H   H1447     1.0  0.65268  0.22658  0.41397  1.0000
  H   H1448     1.0  0.69992  0.03261  0.25335  1.0000
  C   C1202     1.0  0.63629  0.30097  0.45686  1.0000
  H   H1449     1.0  0.62355  0.30773  0.45352  1.0000
  H   H1450     1.0  0.72169  0.10229  0.23891  1.0000
  C   C1203     1.0  0.65121  0.26997  0.46328  1.0000
  H   H1451     1.0  0.93264  0.01053  0.29702  1.0000
  H   H1452     1.0  0.58967  0.17286  0.24609  1.0000
  H   H1453     1.0  0.61965  0.01773  0.35993  1.0000
  C   C1204     1.0  0.66926  0.28363  0.46557  1.0000
  H   H1454     1.0  0.61869  0.32816  0.42666  1.0000
  C   C1205     1.0  0.61948  0.22166  0.41202  1.0000
  H   H1455     1.0  0.58638  0.21947  0.41159  1.0000
  H   H1456     1.0  0.57194  0.02334  0.31390  1.0000
  C   C1206     1.0  0.66120  0.00771  0.25893  1.0000
  H   H1457     1.0  0.53223  0.23443  0.45424  1.0000
  H   H1458     1.0  0.54786  0.24714  0.47377  1.0000
  H   H1459     1.0  0.64477  0.03183  0.37965  1.0000
  H   H1460     1.0  0.64812  0.02970  0.27817  1.0000
  N   N82       1.0  0.65444  0.02848  0.25592  1.0000
  C   C1207     1.0  0.65422  0.18471  0.23851  1.0000
  C   C1208     1.0  0.66374  0.01618  0.36618  1.0000
  C   C1209     1.0  0.64210  0.02796  0.24479  1.0000
  H   H1461     1.0  0.68360  0.10462  0.23940  1.0000
  C   C1210     1.0  0.56785  0.01122  0.33690  1.0000
  H   H1462     1.0  0.58792  0.27596  0.43460  1.0000
  H   H1463     1.0  0.52924  0.01334  0.32114  1.0000
  C   C1211     1.0  0.70839  0.08743  0.24182  1.0000
  H   H1464     1.0  0.76458  0.02337  0.27627  1.0000
  H   H1465     1.0  0.61934  0.20621  0.40949  1.0000
  H   H1466     1.0  0.55219  0.15891  0.44119  1.0000
  H   H1467     1.0  0.52572  0.32312  0.46878  1.0000
  H   H1468     1.0  0.67263  0.00635  0.24906  1.0000
  Fe  Fe164     1.0  0.50308  0.25979  0.44070  1.0000
  H   H1469     1.0  0.85768  0.01928  0.27595  1.0000
  C   C1212     1.0  0.70543  0.33376  0.42502  1.0000
  H   H1470     1.0  0.96210  0.00516  0.23684  1.0000
  C   C1213     1.0  0.57267  0.10725  0.33002  1.0000
  N   N83       1.0  0.58020  0.25742  0.41962  1.0000
  C   C1214     1.0  0.67877  0.12168  0.41571  1.0000
  H   H1471     1.0  0.56784  0.13950  0.44598  1.0000
  C   C1215     1.0  0.52059  0.32022  0.48050  1.0000
  C   C1216     1.0  0.60056  0.22943  0.41340  1.0000
  S   S331      1.0  0.99295  0.08030  0.25196  1.0000
  C   C1217     1.0  0.64626  0.06236  0.42309  1.0000
  H   H1472     1.0  0.54034  0.13558  0.45668  1.0000
  H   H1473     1.0  0.64173  0.10977  0.45509  1.0000
  C   C1218     1.0  0.58929  0.15835  0.40086  1.0000
  C   C1219     1.0  0.89004  0.01577  0.26939  1.0000
  C   C1220     1.0  0.66387  0.10049  0.42248  1.0000
  H   H1474     1.0  0.63829  0.08127  0.44290  1.0000
  H   H1475     1.0  0.62856  0.01251  0.24803  1.0000
  H   H1476     1.0  0.52127  0.26404  0.48450  1.0000
  C   C1221     1.0  0.65060  0.09658  0.43698  1.0000
  H   H1477     1.0  0.54511  0.24811  0.42159  1.0000
  H   H1478     1.0  0.58154  0.12447  0.32629  1.0000
  H   H1479     1.0  0.53792  0.10831  0.41442  1.0000
  C   C1222     1.0  0.53975  0.10471  0.44327  1.0000
  H   H1480     1.0  0.66734  0.10720  0.39352  1.0000
  H   H1481     1.0  0.69699  0.09411  0.40210  1.0000
  C   C1223     1.0  0.68021  0.13793  0.42296  1.0000
  C   C1224     1.0  0.58438  0.27813  0.40799  1.0000
  H   H1482     1.0  0.69122  0.15420  0.41746  1.0000
  S   S332      1.0  0.52183  0.27697  0.45346  1.0000
  H   H1483     1.0  0.56160  0.23909  0.40829  1.0000
  C   C1225     1.0  0.66960  0.06954  0.24654  1.0000
  C   C1226     1.0  0.61999  0.26080  0.41935  1.0000
  C   C1227     1.0  0.59969  0.01190  0.31828  1.0000
  H   H1484     1.0  0.72920  0.06615  0.24617  1.0000
  H   H1485     1.0  0.62910  0.06419  0.42620  1.0000
  H   H1486     1.0  0.99885  0.02260  0.23751  1.0000
  H   H1487     1.0  0.54147  0.02684  0.38137  1.0000
  H   H1488     1.0  0.63189  0.04283  0.26802  1.0000
  H   H1489     1.0  0.58268  0.28820  0.47270  1.0000
  H   H1490     1.0  0.65442  0.07968  0.39479  1.0000
  S   S333      1.0  0.87533  0.00402  0.23847  1.0000
  H   H1491     1.0  0.68915  0.12598  0.40464  1.0000
  C   C1228     1.0  0.63930  0.02875  0.26964  1.0000
  C   C1229     1.0  0.55214  0.12236  0.41106  1.0000
  S   S334      1.0  0.57203  0.12069  0.23978  1.0000
  C   C1230     1.0  0.86700  0.00750  0.27440  1.0000
  C   C1231     1.0  0.62041  0.16161  0.25584  1.0000
  S   S335      1.0  0.83107  0.03632  0.23622  1.0000
  H   H1492     1.0  0.63374  0.04139  0.24329  1.0000
  C   C1232     1.0  0.56630  0.09657  0.32004  1.0000
  C   C1233     1.0  0.65238  0.11288  0.44418  1.0000
  C   C1234     1.0  0.69541  0.04776  0.25021  1.0000
  C   C1235     1.0  0.56458  0.28650  0.47636  1.0000
  H   H1493     1.0  0.55820  0.28638  0.46669  1.0000
  H   H1494     1.0  0.74407  0.32384  0.42824  1.0000
  C   C1236     1.0  0.97214  0.01735  0.26570  1.0000
  H   H1495     1.0  0.61158  0.30174  0.48435  1.0000
  H   H1496     1.0  0.58148  0.16291  0.42191  1.0000
  C   C1237     1.0  0.67327  0.04845  0.25075  1.0000
  C   C1238     1.0  0.57920  0.01625  0.32222  1.0000
  H   H1497     1.0  0.50923  0.12742  0.44678  1.0000
  C   C1239     1.0  0.63867  0.19462  0.26005  1.0000
  Fe  Fe165     1.0  0.61842  0.18930  0.48251  1.0000
  C   C1240     1.0  0.68695  0.08869  0.24209  1.0000
  H   H1498     1.0  0.60495  0.16028  0.26417  1.0000
  H   H1499     1.0  0.57297  0.24757  0.47874  1.0000
  H   H1500     1.0  0.61598  0.15311  0.24782  1.0000
  H   H1501     1.0  0.50608  0.15373  0.46420  1.0000
  H   H1502     1.0  0.60832  0.01532  0.30683  1.0000
  C   C1241     1.0  0.95986  0.02243  0.27752  1.0000
  H   H1503     1.0  0.82409  0.00526  0.27180  1.0000
  H   H1504     1.0  0.55186  0.01444  0.34000  1.0000
  C   C1242     1.0  0.94240  0.05058  0.23820  1.0000
  H   H1505     1.0  0.65516  0.33181  0.45782  1.0000
  S   S336      1.0  0.50947  0.32178  0.43684  1.0000
  H   H1506     1.0  0.67189  0.31426  0.42987  1.0000
  C   C1243     1.0  0.50973  0.20800  0.45081  1.0000
  C   C1244     1.0  0.68422  0.32927  0.42310  1.0000
  H   H1507     1.0  0.59230  0.00308  0.37117  1.0000
  S   S337      1.0  0.59042  0.20503  0.48322  1.0000
  H   H1508     1.0  0.59678  0.33192  0.47319  1.0000
  H   H1509     1.0  0.53035  0.09347  0.43838  1.0000
  H   H1510     1.0  0.92114  0.00867  0.26207  1.0000
  H   H1511     1.0  0.92455  0.04510  0.24190  1.0000
  C   C1245     1.0  0.59903  0.18965  0.24042  1.0000
  H   H1512     1.0  0.96425  0.03898  0.27854  1.0000
  H   H1513     1.0  0.70848  0.32206  0.43365  1.0000
  C   C1246     1.0  0.94207  0.00647  0.28788  1.0000
  C   C1247     1.0  0.00089  0.00661  0.24336  1.0000
  C   C1248     1.0  0.58747  0.33505  0.43426  1.0000
  S   S338      1.0  0.56623  0.00346  0.39790  1.0000
  C   C1249     1.0  0.51755  0.01391  0.66808  1.0000
  N   N84       1.0  0.58856  0.18207  0.60964  1.0000
  Fe  Fe166     1.0  0.67922  0.27568  0.56297  1.0000
  S   S339      1.0  0.64739  0.28347  0.56104  1.0000
  S   S340      1.0  0.70924  0.30481  0.55597  1.0000
  Fe  Fe167     1.0  0.65892  0.22613  0.56948  1.0000
  S   S341      1.0  0.62584  0.23055  0.56779  1.0000
  S   S342      1.0  0.66443  0.19223  0.57527  1.0000
  Fe  Fe168     1.0  0.64512  0.25891  0.54829  1.0000
  S   S343      1.0  0.63657  0.26593  0.52697  1.0000
  Fe  Fe169     1.0  0.63154  0.25438  0.58066  1.0000
  S   S344      1.0  0.60378  0.25184  0.59980  1.0000
  S   S345      1.0  0.67796  0.25280  0.54882  1.0000
  S   S346      1.0  0.66351  0.24832  0.58384  1.0000
  C   C1250     1.0  0.67058  0.17530  0.54092  1.0000
  H   H1514     1.0  0.67053  0.17862  0.51285  1.0000
  S   S347      1.0  0.57356  0.01450  0.61021  1.0000
  S   S348      1.0  0.62980  0.18295  0.50281  1.0000
  C   C1251     1.0  0.70134  0.16939  0.52498  1.0000
  C   C1252     1.0  0.64820  0.12690  0.54904  1.0000
  S   S349      1.0  0.89310  0.02775  0.70303  1.0000
  H   H1515     1.0  0.69621  0.30196  0.53027  1.0000
  Fe  Fe170     1.0  0.58519  0.07713  0.59107  1.0000
  S   S350      1.0  0.59411  0.05351  0.57878  1.0000
  S   S351      1.0  0.58717  0.11157  0.57857  1.0000
  Fe  Fe171     1.0  0.56650  0.04105  0.62019  1.0000
  Fe  Fe172     1.0  0.60590  0.03945  0.59782  1.0000
  S   S352      1.0  0.63734  0.02906  0.59395  1.0000
  Fe  Fe173     1.0  0.56105  0.03125  0.59217  1.0000
  C   C1253     1.0  0.53138  0.01277  0.65523  1.0000
  S   S353      1.0  0.59994  0.06508  0.60906  1.0000
  S   S354      1.0  0.55112  0.05573  0.60324  1.0000
  H   H1516     1.0  0.54862  0.09689  0.56946  1.0000
  H   H1517     1.0  0.51867  0.02954  0.67042  1.0000
  C   C1254     1.0  0.64059  0.03367  0.62062  1.0000
  H   H1518     1.0  0.53118  0.06968  0.57483  1.0000
  H   H1519     1.0  0.54672  0.23136  0.49157  1.0000
  H   H1520     1.0  0.63405  0.04772  0.61820  1.0000
  C   C1255     1.0  0.93327  0.04111  0.73500  1.0000
  S   S355      1.0  0.52363  0.28279  0.58347  1.0000
  H   H1521     1.0  0.56228  0.05725  0.56171  1.0000
  H   H1522     1.0  0.95361  0.00610  0.72225  1.0000
  C   C1256     1.0  0.89791  0.02769  0.73038  1.0000
  C   C1257     1.0  0.90825  0.03334  0.71542  1.0000
  C   C1258     1.0  0.93111  0.04331  0.71024  1.0000
  C   C1259     1.0  0.94365  0.04695  0.72001  1.0000
  H   H1523     1.0  0.56752  0.09336  0.62333  1.0000
  H   H1524     1.0  0.56889  0.29820  0.52468  1.0000
  H   H1525     1.0  0.93920  0.04793  0.69865  1.0000
  H   H1526     1.0  0.96128  0.05429  0.71593  1.0000
  C   C1260     1.0  0.64276  0.16978  0.57640  1.0000
  C   C1261     1.0  0.62534  0.17300  0.57052  1.0000
  C   C1262     1.0  0.60834  0.15499  0.57137  1.0000
  C   C1263     1.0  0.60857  0.13360  0.57815  1.0000
  C   C1264     1.0  0.62609  0.13026  0.58392  1.0000
  C   C1265     1.0  0.64322  0.14834  0.58298  1.0000
  H   H1527     1.0  0.62527  0.18927  0.56487  1.0000
  H   H1528     1.0  0.59502  0.15763  0.56666  1.0000
  H   H1529     1.0  0.62653  0.11377  0.58900  1.0000
  H   H1530     1.0  0.65680  0.14571  0.58740  1.0000
  C   C1266     1.0  0.71362  0.32183  0.56736  1.0000
  C   C1267     1.0  0.70607  0.31379  0.58261  1.0000
  H   H1531     1.0  0.70744  0.15922  0.51808  1.0000
  C   C1268     1.0  0.52851  0.32657  0.50272  1.0000
  H   H1532     1.0  0.58141  0.18172  0.63221  1.0000
  H   H1533     1.0  0.67817  0.29896  0.51884  1.0000
  H   H1534     1.0  0.69704  0.29674  0.58770  1.0000
  C   C1269     1.0  0.64424  0.02188  0.61042  1.0000
  H   H1535     1.0  0.66964  0.15035  0.51399  1.0000
  C   C1270     1.0  0.54530  0.27214  0.58732  1.0000
  C   C1271     1.0  0.54343  0.26128  0.60179  1.0000
  C   C1272     1.0  0.56125  0.25437  0.60546  1.0000
  C   C1273     1.0  0.58083  0.25789  0.59461  1.0000
  C   C1274     1.0  0.58235  0.26764  0.57999  1.0000
  C   C1275     1.0  0.56463  0.27502  0.57635  1.0000
  C   C1276     1.0  0.58623  0.30720  0.60662  1.0000
  H   H1536     1.0  0.56001  0.24678  0.61676  1.0000
  H   H1537     1.0  0.59738  0.27017  0.57154  1.0000
  H   H1538     1.0  0.56593  0.28300  0.56511  1.0000
  C   C1277     1.0  0.63219  0.20624  0.50931  1.0000
  C   C1278     1.0  0.63418  0.20455  0.52344  1.0000
  C   C1279     1.0  0.63612  0.22299  0.52874  1.0000
  C   C1280     1.0  0.63566  0.24315  0.52001  1.0000
  C   C1281     1.0  0.63369  0.24488  0.50586  1.0000
  H   H1539     1.0  0.88026  0.02037  0.73447  1.0000
  H   H1540     1.0  0.63374  0.18889  0.53041  1.0000
  H   H1541     1.0  0.63761  0.22148  0.53967  1.0000
  H   H1542     1.0  0.70408  0.13283  0.53980  1.0000
  H   H1543     1.0  0.92226  0.08614  0.72465  1.0000
  H   H1544     1.0  0.71090  0.17030  0.53314  1.0000
  H   H1545     1.0  0.52284  0.09215  0.56494  1.0000
  C   C1282     1.0  0.58117  0.19084  0.59670  1.0000
  H   H1546     1.0  0.62609  0.30724  0.58617  1.0000
  H   H1547     1.0  0.62436  0.09773  0.56383  1.0000
  H   H1548     1.0  0.57823  0.15912  0.50898  1.0000
  C   C1283     1.0  0.66578  0.16175  0.52052  1.0000
  C   C1284     1.0  0.77350  0.06305  0.66705  1.0000
  C   C1285     1.0  0.56291  0.26708  0.50102  1.0000
  H   H1549     1.0  0.55867  0.18322  0.62447  1.0000
  C   C1286     1.0  0.76239  0.07308  0.65787  1.0000
  H   H1550     1.0  0.56299  0.18509  0.59868  1.0000
  C   C1287     1.0  0.64170  0.10548  0.55831  1.0000
  C   C1288     1.0  0.55610  0.12657  0.51631  1.0000
  C   C1289     1.0  0.72189  0.03639  0.63775  1.0000
  H   H1551     1.0  0.61605  0.21103  0.60358  1.0000
  C   C1290     1.0  0.77165  0.04067  0.66965  1.0000
  C   C1291     1.0  0.57144  0.12121  0.54110  1.0000
  S   S356      1.0  0.53680  0.01522  0.58187  1.0000
  C   C1292     1.0  0.64608  0.02773  0.63379  1.0000
  H   H1552     1.0  0.52632  0.27956  0.49673  1.0000
  H   H1553     1.0  0.61922  0.18751  0.61565  1.0000
  N   N85       1.0  0.67721  0.16062  0.53220  1.0000
  C   C1293     1.0  0.95573  0.10612  0.71868  1.0000
  H   H1554     1.0  0.93782  0.00508  0.70445  1.0000
  H   H1555     1.0  0.67535  0.19277  0.53421  1.0000
  H   H1556     1.0  0.69195  0.09573  0.55609  1.0000
  S   S357      1.0  0.82748  0.01512  0.72285  1.0000
  H   H1557     1.0  0.74097  0.06950  0.64445  1.0000
  C   C1294     1.0  0.69431  0.30860  0.51922  1.0000
  H   H1558     1.0  0.65244  0.17082  0.54580  1.0000
  H   H1559     1.0  0.58129  0.20692  0.61989  1.0000
  C   C1295     1.0  0.67978  0.10449  0.55400  1.0000
  C   C1296     1.0  0.75871  0.02826  0.66309  1.0000
  H   H1560     1.0  0.62694  0.30365  0.50506  1.0000
  H   H1561     1.0  0.63342  0.26044  0.49902  1.0000
  H   H1562     1.0  0.59538  0.00748  0.64970  1.0000
  C   C1297     1.0  0.74702  0.03784  0.65377  1.0000
  C   C1298     1.0  0.61214  0.31597  0.48840  1.0000
  C   C1299     1.0  0.62091  0.31714  0.50007  1.0000
  N   N86       1.0  0.59408  0.32790  0.59452  1.0000
  H   H1563     1.0  0.51670  0.06935  0.54811  1.0000
  H   H1564     1.0  0.58914  0.18579  0.58717  1.0000
  C   C1300     1.0  0.65707  0.32644  0.53088  1.0000
  N   N87       1.0  0.54813  0.08207  0.55178  1.0000
  C   C1301     1.0  0.58192  0.25233  0.51865  1.0000
  H   H1565     1.0  0.67832  0.17451  0.55010  1.0000
  C   C1302     1.0  0.67081  0.13780  0.54184  1.0000
  H   H1566     1.0  0.65227  0.07778  0.56825  1.0000
  C   C1303     1.0  0.58322  0.15779  0.61332  1.0000
  C   C1304     1.0  0.56094  0.14513  0.61688  1.0000
  C   C1305     1.0  0.59960  0.14600  0.61356  1.0000
  C   C1306     1.0  0.55542  0.12219  0.62044  1.0000
  C   C1307     1.0  0.59385  0.12303  0.61723  1.0000
  C   C1308     1.0  0.57185  0.11116  0.62062  1.0000
  C   C1309     1.0  0.55566  0.10321  0.54007  1.0000
  H   H1567     1.0  0.78351  0.07257  0.67222  1.0000
  C   C1310     1.0  0.58858  0.32341  0.58136  1.0000
  H   H1568     1.0  0.54759  0.15290  0.61687  1.0000
  C   C1311     1.0  0.61257  0.19283  0.60625  1.0000
  H   H1569     1.0  0.55016  0.12888  0.50664  1.0000
  H   H1570     1.0  0.60659  0.11436  0.61719  1.0000
  H   H1571     1.0  0.66603  0.32124  0.58026  1.0000
  H   H1572     1.0  0.65121  0.31469  0.52540  1.0000
  H   H1573     1.0  0.53598  0.09395  0.52558  1.0000
  Fe  Fe174     1.0  0.53379  0.31532  0.56648  1.0000
  H   H1574     1.0  0.95858  0.10700  0.70722  1.0000
  H   H1575     1.0  0.61703  0.15408  0.61077  1.0000
  H   H1576     1.0  0.55415  0.29687  0.50401  1.0000
  H   H1577     1.0  0.58989  0.24008  0.52289  1.0000
  H   H1578     1.0  0.73416  0.04925  0.62828  1.0000
  H   H1579     1.0  0.70541  0.18643  0.51767  1.0000
  N   N88       1.0  0.73289  0.02402  0.64738  1.0000
  H   H1580     1.0  0.70714  0.30492  0.51118  1.0000
  H   H1581     1.0  0.59028  0.30988  0.61667  1.0000
  C   C1312     1.0  0.93524  0.09449  0.72850  1.0000
  C   C1313     1.0  0.57945  0.14107  0.52999  1.0000
  H   H1582     1.0  0.70467  0.32156  0.60307  1.0000
  H   H1583     1.0  0.57402  0.02364  0.55671  1.0000
  H   H1584     1.0  0.59173  0.15452  0.53090  1.0000
  S   S358      1.0  0.51049  0.32460  0.55359  1.0000
  H   H1585     1.0  0.58705  0.26995  0.53426  1.0000
  C   C1314     1.0  0.58025  0.26914  0.52513  1.0000
  H   H1586     1.0  0.56801  0.30016  0.60932  1.0000
  H   H1587     1.0  0.59657  0.31127  0.57768  1.0000
  H   H1588     1.0  0.53833  0.11283  0.62302  1.0000
  C   C1315     1.0  0.57695  0.18869  0.62210  1.0000
  H   H1589     1.0  0.62232  0.18939  0.59656  1.0000
  S   S359      1.0  0.55173  0.03690  0.64404  1.0000
  H   H1590     1.0  0.57784  0.12001  0.55051  1.0000
  H   H1591     1.0  0.52710  0.04893  0.55792  1.0000
  H   H1592     1.0  0.76043  0.02525  0.62984  1.0000
  H   H1593     1.0  0.52843  0.25889  0.61026  1.0000
  C   C1316     1.0  0.74638  0.01304  0.63859  1.0000
  H   H1594     1.0  0.53956  0.06063  0.53877  1.0000
  C   C1317     1.0  0.56162  0.28404  0.50786  1.0000
  N   N89       1.0  0.69616  0.33250  0.51600  1.0000
  C   C1318     1.0  0.56747  0.07367  0.55351  1.0000
  H   H1595     1.0  0.58534  0.20913  0.59345  1.0000
  C   C1319     1.0  0.50756  0.31298  0.51089  1.0000
  C   C1320     1.0  0.57358  0.25128  0.50670  1.0000
  C   C1321     1.0  0.65742  0.09430  0.56085  1.0000
  H   H1596     1.0  0.64373  0.03725  0.64146  1.0000
  H   H1597     1.0  0.64749  0.15748  0.52487  1.0000
  C   C1322     1.0  0.63257  0.32350  0.58704  1.0000
  H   H1598     1.0  0.57577  0.23796  0.50213  1.0000
  C   C1323     1.0  0.57009  0.28498  0.51974  1.0000
  H   H1599     1.0  0.63530  0.13499  0.54780  1.0000
  C   C1324     1.0  0.68651  0.12592  0.54462  1.0000
  C   C1325     1.0  0.97265  0.11622  0.72369  1.0000
  C   C1326     1.0  0.71054  0.32781  0.59129  1.0000
  H   H1600     1.0  0.59389  0.29425  0.60393  1.0000
  H   H1601     1.0  0.78013  0.03279  0.67691  1.0000
  C   C1327     1.0  0.63198  0.22646  0.50051  1.0000
  H   H1602     1.0  0.71043  0.04403  0.64389  1.0000
  H   H1603     1.0  0.63063  0.22797  0.48955  1.0000
  H   H1604     1.0  0.57684  0.07195  0.54302  1.0000
  H   H1605     1.0  0.98870  0.12506  0.71605  1.0000
  C   C1328     1.0  0.74926  0.06075  0.65131  1.0000
  H   H1606     1.0  0.67493  0.33095  0.50166  1.0000
  H   H1607     1.0  0.57044  0.31672  0.58338  1.0000
  H   H1608     1.0  0.76385  0.09051  0.65592  1.0000
  H   H1609     1.0  0.71139  0.02537  0.63319  1.0000
  C   C1329     1.0  0.52936  0.26500  0.49337  1.0000
  H   H1610     1.0  0.52042  0.25033  0.50285  1.0000
  C   C1330     1.0  0.54806  0.10654  0.52734  1.0000
  H   H1611     1.0  0.62392  0.32263  0.54373  1.0000
  C   C1331     1.0  0.53218  0.06462  0.54891  1.0000
  C   C1332     1.0  0.53722  0.08538  0.56582  1.0000
  H   H1612     1.0  0.50245  0.31010  0.52260  1.0000
  N   N90       1.0  0.55329  0.26631  0.48865  1.0000
  H   H1613     1.0  0.57911  0.08454  0.55740  1.0000
  C   C1333     1.0  0.57184  0.14372  0.51760  1.0000
  S   S360      1.0  0.56363  0.32742  0.54718  1.0000
  C   C1334     1.0  0.64132  0.33083  0.54137  1.0000
  C   C1335     1.0  0.65553  0.33129  0.58370  1.0000
  Fe  Fe175     1.0  0.85802  0.00591  0.71278  1.0000
  H   H1614     1.0  0.57520  0.01219  0.66336  1.0000
  H   H1615     1.0  0.59978  0.01397  0.67990  1.0000
  H   H1616     1.0  0.62021  0.01288  0.66452  1.0000
  C   C1336     1.0  0.65444  0.00946  0.63701  1.0000
  C   C1337     1.0  0.56525  0.00645  0.55996  1.0000
  H   H1617     1.0  0.70516  0.01444  0.66655  1.0000
  H   H1618     1.0  0.75777  0.01097  0.66551  1.0000
  C   C1338     1.0  0.71524  0.00699  0.65930  1.0000
  C   C1339     1.0  0.53502  0.33001  0.48753  1.0000
  C   C1340     1.0  0.62183  0.33547  0.50536  1.0000
  H   H1619     1.0  0.62855  0.33518  0.51449  1.0000
  C   C1341     1.0  0.65320  0.00402  0.61349  1.0000
  H   H1620     1.0  0.56326  0.33617  0.60123  1.0000
  S   S361      1.0  0.89923  0.03941  0.83970  1.0000
  Fe  Fe176     1.0  0.88232  0.04927  0.80324  1.0000
  S   S362      1.0  0.89361  0.07671  0.81251  1.0000
  S   S363      1.0  0.87536  0.05744  0.78137  1.0000
  Fe  Fe177     1.0  0.91974  0.06019  0.81723  1.0000
  S   S364      1.0  0.95630  0.07733  0.80899  1.0000
  Fe  Fe178     1.0  0.87194  0.05351  0.83401  1.0000
  S   S365      1.0  0.84862  0.06525  0.84931  1.0000
  S   S366      1.0  0.90997  0.03434  0.80627  1.0000
  C   C1342     1.0  0.84457  0.01799  0.88172  1.0000
  H   H1621     1.0  0.66345  0.16991  0.95170  1.0000
  H   H1622     1.0  0.94666  0.09394  0.83446  1.0000
  C   C1343     1.0  0.66615  0.04603  0.93021  1.0000
  C   C1344     1.0  0.68399  0.05092  0.93598  1.0000
  C   C1345     1.0  0.68161  0.05938  0.94803  1.0000
  C   C1346     1.0  0.66120  0.06229  0.95462  1.0000
  C   C1347     1.0  0.64325  0.05713  0.94897  1.0000
  C   C1348     1.0  0.64586  0.04943  0.93660  1.0000
  H   H1623     1.0  0.69553  0.06330  0.95240  1.0000
  H   H1624     1.0  0.62747  0.05947  0.95398  1.0000
  H   H1625     1.0  0.63211  0.04596  0.93207  1.0000
  H   H1626     1.0  0.79359  0.04799  0.78609  1.0000
  C   C1349     1.0  0.85749  0.03693  0.77718  1.0000
  H   H1627     1.0  0.78992  0.04145  0.90426  1.0000
  N   N91       1.0  0.94441  0.10000  0.76476  1.0000
  H   H1628     1.0  0.82486  0.04156  0.81064  1.0000
  H   H1629     1.0  0.63986  0.01244  0.97431  1.0000
  C   C1350     1.0  0.96324  0.11231  0.76874  1.0000
  C   C1351     1.0  0.92485  0.10776  0.77016  1.0000
  H   H1630     1.0  0.86836  0.05355  0.75410  1.0000
  C   C1352     1.0  0.98529  0.06202  0.86849  1.0000
  C   C1353     1.0  0.81647  0.02656  0.85570  1.0000
  C   C1354     1.0  0.97196  0.08469  0.82065  1.0000
  H   H1631     1.0  0.95408  0.06983  0.76861  1.0000
  H   H1632     1.0  0.84986  0.05408  0.89308  1.0000
  H   H1633     1.0  0.67282  0.02904  0.98024  1.0000
  C   C1355     1.0  0.97788  0.10182  0.83964  1.0000
  C   C1356     1.0  0.96370  0.09320  0.83198  1.0000
  H   H1634     1.0  0.78089  0.06749  0.80311  1.0000
  C   C1357     1.0  0.82125  0.04859  0.85564  1.0000
  H   H1635     1.0  0.97162  0.10899  0.84810  1.0000
  H   H1636     1.0  0.83705  0.02460  0.91696  1.0000
  S   S367      1.0  0.85863  0.02742  0.82425  1.0000
  C   C1358     1.0  0.78718  0.03123  0.79288  1.0000
  H   H1637     1.0  0.76872  0.05136  0.86969  1.0000
  H   H1638     1.0  0.80888  0.00809  0.92329  1.0000
  C   C1359     1.0  0.65693  0.14231  0.97792  1.0000
  C   C1360     1.0  0.94853  0.10268  0.74888  1.0000
  H   H1639     1.0  0.97682  0.02776  0.82745  1.0000
  H   H1640     1.0  0.63444  0.12552  0.95199  1.0000
  H   H1641     1.0  0.66276  0.13024  0.95234  1.0000
  H   H1642     1.0  0.98209  0.07272  0.87527  1.0000
  H   H1643     1.0  0.84435  0.02454  0.74756  1.0000
  Fe  Fe179     1.0  0.88735  0.01499  0.82826  1.0000
  N   N92       1.0  0.64211  0.14108  0.96831  1.0000
  H   H1644     1.0  0.76972  0.02203  0.83769  1.0000
  Fe  Fe180     1.0  0.69736  0.01982  0.91312  1.0000
  H   H1645     1.0  0.83131  0.05671  0.88169  1.0000
  H   H1646     1.0  0.90211  0.02826  0.75152  1.0000
  H   H1647     1.0  0.92499  0.06614  0.77114  1.0000
  C   C1361     1.0  0.67156  0.12868  0.97932  1.0000
  C   C1362     1.0  0.79523  0.06466  0.80718  1.0000
  Fe  Fe181     1.0  0.73876  0.01438  0.92183  1.0000
  C   C1363     1.0  0.98132  0.01373  0.83397  1.0000
  C   C1364     1.0  0.91033  0.03191  0.74007  1.0000
  H   H1648     1.0  0.79866  0.07642  0.81363  1.0000
  C   C1365     1.0  0.93999  0.07647  0.77259  1.0000
  C   C1366     1.0  0.61881  0.13343  0.97742  1.0000
  H   H1649     1.0  0.62264  0.01014  0.88851  1.0000
  C   C1367     1.0  0.78192  0.01534  0.78574  1.0000
  C   C1368     1.0  0.58866  0.01508  0.93026  1.0000
  C   C1369     1.0  0.64542  0.12576  0.95934  1.0000
  H   H1650     1.0  0.70426  0.01229  0.97885  1.0000
  H   H1651     1.0  0.97817  0.10627  0.76592  1.0000
  H   H1652     1.0  0.98317  0.12259  0.74163  1.0000
  H   H1653     1.0  0.64111  0.17508  0.96390  1.0000
  C   C1370     1.0  0.78470  0.02524  0.80819  1.0000
  C   C1371     1.0  0.00019  0.10145  0.83627  1.0000
  H   H1654     1.0  0.86447  0.00654  0.86583  1.0000
  C   C1372     1.0  0.77728  0.02243  0.86571  1.0000
  C   C1373     1.0  0.96888  0.05262  0.86283  1.0000
  H   H1655     1.0  0.95981  0.03302  0.84947  1.0000
  C   C1374     1.0  0.83220  0.05185  0.89317  1.0000
  C   C1375     1.0  0.80399  0.05746  0.86078  1.0000
  H   H1656     1.0  0.93742  0.07386  0.78452  1.0000
  C   C1376     1.0  0.97324  0.03958  0.85355  1.0000
  H   H1657     1.0  0.77606  0.05061  0.83520  1.0000
  C   C1377     1.0  0.77246  0.03794  0.82942  1.0000
  H   H1658     1.0  0.95282  0.05590  0.86536  1.0000
  H   H1659     1.0  0.67270  0.11651  0.97348  1.0000
  C   C1378     1.0  0.78202  0.04441  0.86581  1.0000
  C   C1379     1.0  0.81083  0.03897  0.82040  1.0000
  H   H1660     1.0  0.81024  0.06932  0.79772  1.0000
  H   H1661     1.0  0.80834  0.02231  0.82777  1.0000
  H   H1662     1.0  0.51183  0.00671  0.97044  1.0000
  S   S368      1.0  0.94827  0.04503  0.74774  1.0000
  H   H1663     1.0  0.82614  0.06385  0.89842  1.0000
  H   H1664     1.0  0.63560  0.16250  0.95028  1.0000
  S   S369      1.0  0.76197  0.02513  0.93442  1.0000
  H   H1665     1.0  0.96745  0.13023  0.76327  1.0000
  Fe  Fe182     1.0  0.62307  0.06243  0.98352  1.0000
  H   H1666     1.0  0.55369  0.00787  0.94017  1.0000
  C   C1380     1.0  0.84409  0.02270  0.75885  1.0000
  S   S370      1.0  0.66872  0.03488  0.91537  1.0000
  H   H1667     1.0  0.92173  0.10662  0.78199  1.0000
  C   C1381     1.0  0.99410  0.08417  0.81739  1.0000
  H   H1668     1.0  0.69976  0.04849  0.93106  1.0000
  H   H1669     1.0  0.59250  0.02934  0.93420  1.0000
  H   H1670     1.0  0.80760  0.07448  0.86081  1.0000
  C   C1382     1.0  0.99439  0.03555  0.84971  1.0000
  S   S371      1.0  0.73356  0.03559  0.90196  1.0000
  H   H1671     1.0  0.90939  0.09778  0.76908  1.0000
  S   S372      1.0  0.65829  0.07225  0.96994  1.0000
  H   H1672     1.0  0.95937  0.11009  0.78075  1.0000
  H   H1673     1.0  0.75655  0.03822  0.82676  1.0000
  Fe  Fe183     1.0  0.73217  0.00553  0.89410  1.0000
  C   C1383     1.0  0.79452  0.01358  0.86057  1.0000
  H   H1674     1.0  0.74903  0.01734  0.96561  1.0000
  C   C1384     1.0  0.85757  0.03918  0.76259  1.0000
  H   H1675     1.0  0.81437  0.03656  0.92160  1.0000
  H   H1676     1.0  0.84319  0.01644  0.79936  1.0000
  H   H1677     1.0  0.82969  0.01934  0.85227  1.0000
  S   S373      1.0  0.59514  0.07515  0.97798  1.0000
  H   H1678     1.0  0.60689  0.13148  0.97079  1.0000
  C   C1385     1.0  0.60553  0.00886  0.92185  1.0000
  H   H1679     1.0  0.92706  0.12511  0.76403  1.0000
  H   H1680     1.0  0.81614  0.05097  0.82632  1.0000
  Fe  Fe184     1.0  0.98548  0.05864  0.73998  1.0000
  H   H1681     1.0  0.78452  0.02009  0.77399  1.0000
  C   C1386     1.0  0.81993  0.02434  0.91633  1.0000
  H   H1682     1.0  0.96512  0.00581  0.74414  1.0000
  C   C1387     1.0  0.79559  0.02777  0.90091  1.0000
  H   H1683     1.0  0.91068  0.01484  0.77463  1.0000
  H   H1684     1.0  0.79347  0.02839  0.88991  1.0000
  H   H1685     1.0  0.62185  0.00577  0.95821  1.0000
  N   N93       1.0  0.79064  0.04153  0.81607  1.0000
  C   C1388     1.0  0.64575  0.16310  0.95813  1.0000
  N   N94       1.0  0.81883  0.02893  0.90098  1.0000
  H   H1686     1.0  0.62228  0.01866  0.91957  1.0000
  H   H1687     1.0  0.64204  0.01663  0.89860  1.0000
  S   S374      1.0  0.55063  0.02626  0.97639  1.0000
  H   H1688     1.0  0.91575  0.08267  0.75062  1.0000
  C   C1389     1.0  0.96920  0.11464  0.73854  1.0000
  C   C1390     1.0  0.84349  0.01830  0.78807  1.0000
  C   C1391     1.0  0.67186  0.01403  0.97704  1.0000
  C   C1392     1.0  0.93165  0.09268  0.74338  1.0000
  H   H1689     1.0  0.64132  0.10857  0.96632  1.0000
  C   C1393     1.0  0.82631  0.01238  0.89436  1.0000
  S   S375      1.0  0.74989  0.00614  0.87142  1.0000
  H   H1690     1.0  0.78392  0.01243  0.90860  1.0000
  N   N95       1.0  0.99958  0.02152  0.84015  1.0000
  H   H1691     1.0  0.85411  0.03473  0.87613  1.0000
  C   C1394     1.0  0.68963  0.00474  0.97612  1.0000
  C   C1395     1.0  0.65305  0.00445  0.97346  1.0000
  H   H1692     1.0  0.00068  0.07791  0.80849  1.0000
  C   C1396     1.0  0.83032  0.00394  0.76969  1.0000
  H   H1693     1.0  0.61429  0.14480  0.98379  1.0000
  H   H1694     1.0  0.61577  0.11720  0.98545  1.0000
  C   C1397     1.0  0.56675  0.00301  0.93365  1.0000
  H   H1695     1.0  0.98599  0.00374  0.82655  1.0000
  H   H1696     1.0  0.96633  0.00295  0.84270  1.0000
  C   C1398     1.0  0.63294  0.00318  0.89513  1.0000
  Fe  Fe185     1.0  0.58135  0.39053  0.14657  1.0000
  S   S376      1.0  0.57759  0.36540  0.13428  1.0000
  S   S377      1.0  0.61610  0.41132  0.14210  1.0000
  Fe  Fe186     1.0  0.55019  0.37830  0.12829  1.0000
  S   S378      1.0  0.54860  0.38461  0.10499  1.0000
  S   S379      1.0  0.55614  0.40559  0.13862  1.0000
  S   S380      1.0  0.55751  0.36848  0.16767  1.0000
  Fe  Fe187     1.0  0.74296  0.40728  0.17205  1.0000
  S   S381      1.0  0.72992  0.42005  0.19087  1.0000
  S   S382      1.0  0.75074  0.37434  0.17423  1.0000
  Fe  Fe188     1.0  0.74015  0.44621  0.14920  1.0000
  S   S383      1.0  0.72702  0.46242  0.16595  1.0000
  S   S384      1.0  0.74531  0.45801  0.12465  1.0000
  Fe  Fe189     1.0  0.75281  0.45301  0.17690  1.0000
  S   S385      1.0  0.77032  0.47960  0.18583  1.0000
  Fe  Fe190     1.0  0.70541  0.42868  0.17877  1.0000
  S   S386      1.0  0.66839  0.41899  0.18926  1.0000
  S   S387      1.0  0.76771  0.43951  0.15885  1.0000
  S   S388      1.0  0.71679  0.41329  0.16138  1.0000
  Fe  Fe191     1.0  0.67783  0.39597  0.08227  1.0000
  S   S389      1.0  0.70659  0.38885  0.06845  1.0000
  S   S390      1.0  0.67390  0.39669  0.10545  1.0000
  Fe  Fe192     1.0  0.65090  0.39441  0.06026  1.0000
  S   S391      1.0  0.67766  0.38776  0.04441  1.0000
  S   S392      1.0  0.61726  0.39660  0.05767  1.0000
  Fe  Fe193     1.0  0.68078  0.36429  0.06401  1.0000
  H   H1697     1.0  0.74216  0.40793  0.13078  1.0000
  Fe  Fe194     1.0  0.70112  0.41317  0.05012  1.0000
  S   S393      1.0  0.72991  0.43782  0.03243  1.0000
  S   S394      1.0  0.65243  0.36910  0.07956  1.0000
  S   S395      1.0  0.67393  0.42204  0.06434  1.0000
  H   H1698     1.0  0.55070  0.36222  0.04600  1.0000
  H   H1699     1.0  0.88429  0.52974  0.19896  1.0000
  H   H1700     1.0  0.74901  0.38769  0.09914  1.0000
  H   H1701     1.0  0.76763  0.47422  0.01570  1.0000
  C   C1399     1.0  0.88690  0.57914  0.17670  1.0000
  C   C1400     1.0  0.68635  0.40649  0.00676  1.0000
  H   H1702     1.0  0.81883  0.51213  0.16330  1.0000
  S   S396      1.0  0.84701  0.49378  0.21801  1.0000
  H   H1703     1.0  0.63551  0.40399  0.09427  1.0000
  H   H1704     1.0  0.89879  0.58847  0.18132  1.0000
  H   H1705     1.0  0.90284  0.54375  0.18089  1.0000
  C   C1401     1.0  0.84680  0.51243  0.17201  1.0000
  C   C1402     1.0  0.62292  0.40904  0.10158  1.0000
  H   H1706     1.0  0.86650  0.63319  0.99674  1.0000
  H   H1707     1.0  0.90302  0.55581  0.19561  1.0000
  C   C1403     1.0  0.83062  0.52138  0.16758  1.0000
  C   C1404     1.0  0.63482  0.35505  0.18681  1.0000
  C   C1405     1.0  0.72073  0.35839  0.03153  1.0000
  H   H1708     1.0  0.57635  0.35688  0.08160  1.0000
  H   H1709     1.0  0.61052  0.43669  0.11622  1.0000
  Fe  Fe195     1.0  0.83927  0.58297  0.01039  1.0000
  S   S397      1.0  0.86244  0.59849  0.02149  1.0000
  Fe  Fe196     1.0  0.81733  0.54181  0.03663  1.0000
  S   S398      1.0  0.83974  0.55437  0.04940  1.0000
  S   S399      1.0  0.79012  0.51125  0.05100  1.0000
  Fe  Fe197     1.0  0.83313  0.58670  0.04118  1.0000
  S   S400      1.0  0.82434  0.60789  0.05558  1.0000
  Fe  Fe198     1.0  0.86694  0.56474  0.02852  1.0000
  S   S401      1.0  0.90106  0.56130  0.02841  1.0000
  S   S402      1.0  0.80917  0.57398  0.02962  1.0000
  S   S403      1.0  0.84548  0.54945  0.01624  1.0000
  H   H1710     1.0  0.50943  0.41099  0.11736  1.0000
  H   H1711     1.0  0.73533  0.35375  0.03435  1.0000
  C   C1406     1.0  0.80444  0.64287  0.99483  1.0000
  C   C1407     1.0  0.92115  0.57826  0.01240  1.0000
  C   C1408     1.0  0.94367  0.58205  0.01173  1.0000
  H   H1712     1.0  0.63315  0.34197  0.16283  1.0000
  H   H1713     1.0  0.58529  0.36325  0.09630  1.0000
  H   H1714     1.0  0.72299  0.34559  0.00735  1.0000
  H   H1715     1.0  0.94867  0.57365  0.02084  1.0000
  S   S404      1.0  0.90955  0.65717  0.06914  1.0000
  C   C1409     1.0  0.84769  0.62114  0.05985  1.0000
  C   C1410     1.0  0.84822  0.64076  0.06363  1.0000
  H   H1716     1.0  0.68570  0.42347  0.00400  1.0000
  H   H1717     1.0  0.73885  0.37375  0.12398  1.0000
  H   H1718     1.0  0.89635  0.57799  0.16604  1.0000
  H   H1719     1.0  0.79369  0.44075  0.10720  1.0000
  C   C1411     1.0  0.78830  0.44642  0.08616  1.0000
  C   C1412     1.0  0.88464  0.62333  0.06251  1.0000
  H   H1720     1.0  0.65372  0.35506  0.01364  1.0000
  N   N96       1.0  0.65351  0.35206  0.17626  1.0000
  C   C1413     1.0  0.70671  0.37923  0.01337  1.0000
  C   C1414     1.0  0.76041  0.40377  0.09597  1.0000
  C   C1415     1.0  0.82901  0.54180  0.16921  1.0000
  C   C1416     1.0  0.96097  0.64450  0.01402  1.0000
  C   C1417     1.0  0.74609  0.45875  0.03752  1.0000
  C   C1418     1.0  0.76403  0.47468  0.02693  1.0000
  C   C1419     1.0  0.77746  0.49120  0.03079  1.0000
  C   C1420     1.0  0.77306  0.49180  0.04530  1.0000
  C   C1421     1.0  0.75497  0.47600  0.05586  1.0000
  C   C1422     1.0  0.74154  0.45954  0.05200  1.0000
  C   C1423     1.0  0.53060  0.36394  0.10092  1.0000
  H   H1721     1.0  0.79136  0.50326  0.02258  1.0000
  H   H1722     1.0  0.75144  0.47632  0.06712  1.0000
  H   H1723     1.0  0.72775  0.44741  0.06025  1.0000
  C   C1424     1.0  0.60275  0.37876  0.04961  1.0000
  C   C1425     1.0  0.58026  0.37726  0.05099  1.0000
  C   C1426     1.0  0.56802  0.36318  0.04486  1.0000
  H   H1724     1.0  0.67975  0.33883  0.09551  1.0000
  H   H1725     1.0  0.97331  0.66076  0.01055  1.0000
  C   C1427     1.0  0.61307  0.36622  0.04187  1.0000
  H   H1726     1.0  0.57230  0.38719  0.05674  1.0000
  H   H1727     1.0  0.60652  0.39740  0.10360  1.0000
  C   C1428     1.0  0.67690  0.46071  0.10083  1.0000
  H   H1728     1.0  0.63039  0.36724  0.04073  1.0000
  H   H1729     1.0  0.75606  0.36453  0.13467  1.0000
  H   H1730     1.0  0.84141  0.56893  0.17657  1.0000
  H   H1731     1.0  0.70568  0.48320  0.08467  1.0000
  H   H1732     1.0  0.60918  0.34339  0.02906  1.0000
  C   C1429     1.0  0.70563  0.40141  0.00917  1.0000
  C   C1430     1.0  0.79089  0.48227  0.19551  1.0000
  C   C1431     1.0  0.80402  0.46761  0.19721  1.0000
  C   C1432     1.0  0.82081  0.47120  0.20430  1.0000
  C   C1433     1.0  0.82457  0.48927  0.21000  1.0000
  C   C1434     1.0  0.81109  0.50363  0.20861  1.0000
  C   C1435     1.0  0.79452  0.50022  0.20134  1.0000
  H   H1733     1.0  0.80152  0.45375  0.19280  1.0000
  H   H1734     1.0  0.83112  0.45998  0.20526  1.0000
  C   C1436     1.0  0.82865  0.66141  0.01214  1.0000
  H   H1735     1.0  0.78456  0.51171  0.20007  1.0000
  C   C1437     1.0  0.72508  0.44247  0.11863  1.0000
  C   C1438     1.0  0.70507  0.42965  0.12860  1.0000
  C   C1439     1.0  0.68973  0.41566  0.12435  1.0000
  C   C1440     1.0  0.69392  0.41478  0.10992  1.0000
  C   C1441     1.0  0.71355  0.42825  0.09963  1.0000
  C   C1442     1.0  0.72911  0.44215  0.10400  1.0000
  H   H1736     1.0  0.70113  0.43088  0.13955  1.0000
  H   H1737     1.0  0.67433  0.40575  0.13225  1.0000
  H   H1738     1.0  0.71677  0.42792  0.08838  1.0000
  H   H1739     1.0  0.74435  0.45238  0.09611  1.0000
  C   C1443     1.0  0.53153  0.36513  0.08631  1.0000
  H   H1740     1.0  0.81799  0.62770  0.02639  1.0000
  H   H1741     1.0  0.54279  0.37904  0.07771  1.0000
  H   H1742     1.0  0.68705  0.34549  0.01776  1.0000
  C   C1444     1.0  0.62912  0.41508  0.15577  1.0000
  C   C1445     1.0  0.65101  0.42808  0.15146  1.0000
  C   C1446     1.0  0.66275  0.43010  0.16181  1.0000
  C   C1447     1.0  0.65265  0.41930  0.17658  1.0000
  C   C1448     1.0  0.63031  0.40730  0.18104  1.0000
  C   C1449     1.0  0.61861  0.40494  0.17063  1.0000
  H   H1743     1.0  0.65907  0.43641  0.14002  1.0000
  H   H1744     1.0  0.67971  0.43996  0.15837  1.0000
  H   H1745     1.0  0.62227  0.39926  0.19252  1.0000
  H   H1746     1.0  0.60161  0.39518  0.17408  1.0000
  H   H1747     1.0  0.70531  0.36520  0.20221  1.0000
  C   C1450     1.0  0.88552  0.64339  0.06576  1.0000
  H   H1748     1.0  0.90577  0.62440  0.03082  1.0000
  H   H1749     1.0  0.59066  0.33731  0.11501  1.0000
  C   C1451     1.0  0.84358  0.55334  0.17530  1.0000
  C   C1452     1.0  0.86733  0.65218  0.06620  1.0000
  Fe  Fe199     1.0  0.53182  0.38148  0.15881  1.0000
  C   C1453     1.0  0.65768  0.46077  0.07786  1.0000
  H   H1750     1.0  0.80114  0.39090  0.11341  1.0000
  H   H1751     1.0  0.79095  0.38584  0.13288  1.0000
  C   C1454     1.0  0.68886  0.47352  0.08674  1.0000
  C   C1455     1.0  0.76338  0.41699  0.08185  1.0000
  C   C1456     1.0  0.51794  0.34842  0.08277  1.0000
  C   C1457     1.0  0.57843  0.35110  0.03679  1.0000
  N   N97       1.0  0.62295  0.43207  0.09506  1.0000
  C   C1458     1.0  0.68753  0.36271  0.01463  1.0000
  H   H1752     1.0  0.76853  0.42434  0.13012  1.0000
  C   C1459     1.0  0.86025  0.54467  0.18000  1.0000
  H   H1753     1.0  0.94707  0.63936  0.04173  1.0000
  H   H1754     1.0  0.92079  0.62009  0.01457  1.0000
  C   C1460     1.0  0.73507  0.36133  0.00604  1.0000
  H   H1755     1.0  0.68866  0.48356  0.06432  1.0000
  H   H1756     1.0  0.75077  0.40377  0.00389  1.0000
  Fe  Fe200     1.0  0.55170  0.34444  0.15467  1.0000
  C   C1461     1.0  0.75908  0.40730  0.13147  1.0000
  H   H1757     1.0  0.66996  0.38687  0.16913  1.0000
  H   H1758     1.0  0.92335  0.64910  0.04227  1.0000
  H   H1759     1.0  0.89853  0.61628  0.06236  1.0000
  H   H1760     1.0  0.58966  0.42788  0.10784  1.0000
  H   H1761     1.0  0.51003  0.38479  0.12766  1.0000
  C   C1462     1.0  0.86165  0.55943  0.20043  1.0000
  H   H1762     1.0  0.59842  0.42082  0.08444  1.0000
  C   C1463     1.0  0.66445  0.37315  0.16467  1.0000
  C   C1464     1.0  0.75643  0.37465  0.12372  1.0000
  S   S405      1.0  0.87571  0.59647  0.22673  1.0000
  H   H1763     1.0  0.87290  0.51537  0.18190  1.0000
  C   C1465     1.0  0.85837  0.65850  0.02357  1.0000
  H   H1764     1.0  0.87216  0.56811  0.20616  1.0000
  S   S406      1.0  0.52382  0.35537  0.14781  1.0000
  H   H1765     1.0  0.50958  0.37786  0.21870  1.0000
  H   H1766     1.0  0.75763  0.39764  0.14277  1.0000
  H   H1767     1.0  0.71900  0.37435  0.15670  1.0000
  C   C1466     1.0  0.95975  0.59691  0.99936  1.0000
  C   C1467     1.0  0.93154  0.66267  0.01151  1.0000
  H   H1768     1.0  0.73881  0.37155  0.99454  1.0000
  C   C1468     1.0  0.67922  0.47366  0.07530  1.0000
  H   H1769     1.0  0.52913  0.35247  0.21680  1.0000
  H   H1770     1.0  0.66629  0.35041  0.11585  1.0000
  H   H1771     1.0  0.70819  0.34273  0.03333  1.0000
  H   H1772     1.0  0.96710  0.63300  0.02149  1.0000
  H   H1773     1.0  0.62679  0.40661  0.11227  1.0000
  C   C1469     1.0  0.66917  0.34511  0.18422  1.0000
  N   N98       1.0  0.76974  0.39770  0.12039  1.0000
  C   C1470     1.0  0.77175  0.41146  0.10556  1.0000
  C   C1471     1.0  0.60103  0.35274  0.03526  1.0000
  H   H1774     1.0  0.96139  0.63805  0.00445  1.0000
  C   C1472     1.0  0.68115  0.35974  0.19035  1.0000
  H   H1775     1.0  0.84962  0.56906  0.19845  1.0000
  N   N99       1.0  0.87504  0.55697  0.18681  1.0000
  C   C1473     1.0  0.66833  0.36799  0.01225  1.0000
  H   H1776     1.0  0.87551  0.58944  0.17446  1.0000
  N   N100      1.0  0.93864  0.64601  0.02118  1.0000
  H   H1777     1.0  0.85210  0.54304  0.20807  1.0000
  H   H1778     1.0  0.65307  0.37848  0.15834  1.0000
  C   C1474     1.0  0.79201  0.39691  0.12205  1.0000
  C   C1475     1.0  0.86139  0.52375  0.17820  1.0000
  H   H1779     1.0  0.65690  0.34122  0.04637  1.0000
  C   C1476     1.0  0.77750  0.43814  0.07690  1.0000
  C   C1477     1.0  0.92253  0.62444  0.02465  1.0000
  C   C1478     1.0  0.60678  0.43839  0.10552  1.0000
  H   H1780     1.0  0.80232  0.41322  0.12149  1.0000
  N   N101      1.0  0.72656  0.37310  0.01643  1.0000
  H   H1781     1.0  0.64044  0.36814  0.19185  1.0000
  H   H1782     1.0  0.63908  0.36222  0.13130  1.0000
  H   H1783     1.0  0.62215  0.35976  0.18152  1.0000
  H   H1784     1.0  0.81608  0.54847  0.16601  1.0000
  H   H1785     1.0  0.67921  0.37189  0.15686  1.0000
  H   H1786     1.0  0.84750  0.49620  0.17115  1.0000
  H   H1787     1.0  0.62633  0.42774  0.07356  1.0000
  H   H1788     1.0  0.86568  0.59732  0.05633  1.0000
  C   C1479     1.0  0.89202  0.54605  0.19067  1.0000
  N   N102      1.0  0.78482  0.52979  0.08924  1.0000
  C   C1480     1.0  0.80290  0.51898  0.08645  1.0000
  C   C1481     1.0  0.76370  0.51446  0.08999  1.0000
  C   C1482     1.0  0.78939  0.54927  0.07649  1.0000
  C   C1483     1.0  0.78337  0.53530  0.10323  1.0000
  C   C1484     1.0  0.77708  0.51834  0.11659  1.0000
  C   C1485     1.0  0.78873  0.55729  0.10405  1.0000
  C   C1486     1.0  0.77551  0.52303  0.12997  1.0000
  C   C1487     1.0  0.78722  0.56180  0.11750  1.0000
  C   C1488     1.0  0.78050  0.54472  0.13043  1.0000
  H   H1789     1.0  0.79982  0.50333  0.09505  1.0000
  H   H1790     1.0  0.80486  0.51491  0.07587  1.0000
  H   H1791     1.0  0.81903  0.52987  0.08596  1.0000
  H   H1792     1.0  0.76034  0.49809  0.09794  1.0000
  H   H1793     1.0  0.76383  0.51115  0.07930  1.0000
  H   H1794     1.0  0.74943  0.52128  0.09317  1.0000
  H   H1795     1.0  0.80591  0.56078  0.07441  1.0000
  H   H1796     1.0  0.78960  0.54458  0.06621  1.0000
  H   H1797     1.0  0.77656  0.55840  0.07797  1.0000
  H   H1798     1.0  0.77338  0.50126  0.11681  1.0000
  H   H1799     1.0  0.79422  0.57133  0.09447  1.0000
  H   H1800     1.0  0.77037  0.50970  0.14003  1.0000
  H   H1801     1.0  0.79133  0.57869  0.11787  1.0000
  H   H1802     1.0  0.77924  0.54827  0.14082  1.0000
  H   H1803     1.0  0.65137  0.46153  0.06846  1.0000
  C   C1489     1.0  0.63526  0.34534  0.13080  1.0000
  C   C1490     1.0  0.86601  0.61254  0.05915  1.0000
  H   H1804     1.0  0.89744  0.58642  0.00105  1.0000
  C   C1491     1.0  0.65552  0.44752  0.10347  1.0000
  C   C1492     1.0  0.78537  0.43340  0.10032  1.0000
  H   H1805     1.0  0.60674  0.45579  0.10121  1.0000
  H   H1806     1.0  0.92756  0.61097  0.03133  1.0000
  H   H1807     1.0  0.64721  0.43747  0.11454  1.0000
  C   C1493     1.0  0.81750  0.63870  0.01642  1.0000
  H   H1808     1.0  0.81374  0.51770  0.21278  1.0000
  C   C1494     1.0  0.65081  0.33835  0.12181  1.0000
  C   C1495     1.0  0.61501  0.43258  0.08186  1.0000
  H   H1809     1.0  0.60447  0.35863  0.08165  1.0000
  H   H1810     1.0  0.61335  0.44911  0.07677  1.0000
  C   C1496     1.0  0.72152  0.35828  0.15953  1.0000
  H   H1811     1.0  0.75452  0.41093  0.07471  1.0000
  H   H1812     1.0  0.75949  0.38715  0.01760  1.0000
  C   C1497     1.0  0.91476  0.58923  0.00064  1.0000
  H   H1813     1.0  0.68444  0.46050  0.10974  1.0000
  H   H1814     1.0  0.76341  0.36645  0.11568  1.0000
  C   C1498     1.0  0.64533  0.44684  0.09203  1.0000
  H   H1815     1.0  0.75050  0.35713  0.00763  1.0000
  C   C1499     1.0  0.74603  0.46433  0.22446  1.0000
  C   C1500     1.0  0.80577  0.62962  0.00779  1.0000
  H   H1816     1.0  0.67935  0.37620  0.18922  1.0000
  H   H1817     1.0  0.86833  0.66507  0.03038  1.0000
  H   H1818     1.0  0.73727  0.47185  0.21728  1.0000
  H   H1819     1.0  0.83391  0.64721  0.06450  1.0000
  C   C1501     1.0  0.69572  0.35345  0.19813  1.0000
  C   C1502     1.0  0.51575  0.34607  0.11200  1.0000
  H   H1820     1.0  0.79881  0.46311  0.08234  1.0000
  H   H1821     1.0  0.79812  0.61211  0.01095  1.0000
  C   C1503     1.0  0.93989  0.65089  0.03512  1.0000
  H   H1822     1.0  0.77983  0.44829  0.06593  1.0000
  H   H1823     1.0  0.70031  0.34570  0.14731  1.0000
  C   C1504     1.0  0.74487  0.39224  0.01512  1.0000
  H   H1824     1.0  0.51474  0.34493  0.12327  1.0000
  C   C1505     1.0  0.71080  0.34192  0.15425  1.0000
  H   H1825     1.0  0.65263  0.39384  0.00689  1.0000
  H   H1826     1.0  0.97709  0.59969  0.99888  1.0000
  C   C1506     1.0  0.66770  0.38983  0.00840  1.0000
  C   C1507     1.0  0.58714  0.35290  0.08870  1.0000
  H   H1827     1.0  0.86987  0.65953  0.01301  1.0000
  C   C1508     1.0  0.73596  0.35390  0.16799  1.0000
  H   H1828     1.0  0.81835  0.65056  0.04185  1.0000
  H   H1829     1.0  0.51873  0.34952  0.07147  1.0000
  H   H1830     1.0  0.71915  0.41518  0.00816  1.0000
  H   H1831     1.0  0.89402  0.64126  0.22584  1.0000
  H   H1832     1.0  0.73968  0.40148  0.02297  1.0000
  C   C1509     1.0  0.75072  0.44466  0.22338  1.0000
  C   C1510     1.0  0.95330  0.60798  0.98765  1.0000
  H   H1833     1.0  0.71385  0.36646  0.03968  1.0000
  S   S407      1.0  0.88643  0.53926  0.23058  1.0000
  H   H1834     1.0  0.62665  0.33968  0.19590  1.0000
  H   H1835     1.0  0.85092  0.64082  0.02938  1.0000
  C   C1511     1.0  0.93079  0.60423  0.98841  1.0000
  H   H1836     1.0  0.74555  0.43706  0.21546  1.0000
  C   C1512     1.0  0.51854  0.33978  0.21406  1.0000
  S   S408      1.0  0.50555  0.39325  0.17163  1.0000
  H   H1837     1.0  0.94201  0.65287  0.99166  1.0000
  C   C1513     1.0  0.82632  0.66809  0.03564  1.0000
  C   C1514     1.0  0.81458  0.66531  0.99054  1.0000
  C   C1515     1.0  0.93475  0.66413  0.99644  1.0000
  H   H1838     1.0  0.50704  0.40601  0.13637  1.0000
  H   H1839     1.0  0.76656  0.42007  0.23105  1.0000
  C   C1516     1.0  0.76267  0.43521  0.23212  1.0000
  S   S409      1.0  0.83987  0.59979  0.98729  1.0000
  H   H1840     1.0  0.98390  0.66466  0.04358  1.0000
  Fe  Fe201     1.0  0.85394  0.51493  0.23327  1.0000
  H   H1841     1.0  0.79597  0.63563  0.98794  1.0000
  C   C1517     1.0  0.86332  0.64106  0.98676  1.0000
  H   H1842     1.0  0.74964  0.49027  0.23411  1.0000
  C   C1518     1.0  0.75348  0.47485  0.23415  1.0000
  H   H1843     1.0  0.86774  0.66743  0.06896  1.0000
  H   H1844     1.0  0.95018  0.66784  0.03318  1.0000
  C   C1519     1.0  0.50200  0.39833  0.12809  1.0000
  C   C1520     1.0  0.87952  0.63433  0.23514  1.0000
  Fe  Fe202     1.0  0.83400  0.53608  0.36360  1.0000
  S   S410      1.0  0.81455  0.54652  0.38150  1.0000
  S   S411      1.0  0.85418  0.51244  0.36839  1.0000
  Fe  Fe203     1.0  0.81660  0.56088  0.34077  1.0000
  S   S412      1.0  0.79507  0.57309  0.35658  1.0000
  S   S413      1.0  0.82285  0.57488  0.31675  1.0000
  Fe  Fe204     1.0  0.82468  0.57962  0.36496  1.0000
  S   S414      1.0  0.83606  0.61128  0.37009  1.0000
  Fe  Fe205     1.0  0.78667  0.53880  0.37160  1.0000
  S   S415      1.0  0.75226  0.52156  0.38655  1.0000
  S   S416      1.0  0.84693  0.56984  0.34812  1.0000
  S   S417      1.0  0.80544  0.52591  0.35475  1.0000
  H   H1845     1.0  0.84814  0.61780  0.33846  1.0000
  Fe  Fe206     1.0  0.83274  0.52198  0.26194  1.0000
  S   S418      1.0  0.80226  0.50856  0.28090  1.0000
  S   S419      1.0  0.95800  0.54443  0.35384  1.0000
  Fe  Fe207     1.0  0.88208  0.52525  0.25468  1.0000
  H   H1846     1.0  0.76930  0.46992  0.27675  1.0000
  S   S420      1.0  0.86232  0.54752  0.26160  1.0000
  S   S421      1.0  0.85206  0.49854  0.25660  1.0000
  Fe  Fe208     1.0  0.69184  0.35782  0.46053  1.0000
  S   S422      1.0  0.68587  0.37481  0.43976  1.0000
  H   H1847     1.0  0.75651  0.39235  0.40743  1.0000
  C   C1521     1.0  0.89319  0.47018  0.32013  1.0000
  S   S423      1.0  0.68388  0.41651  0.45350  1.0000
  C   C1522     1.0  0.76385  0.46205  0.26864  1.0000
  Fe  Fe209     1.0  0.66035  0.38535  0.45399  1.0000
  C   C1523     1.0  0.77004  0.44547  0.24194  1.0000
  Fe  Fe210     1.0  0.70999  0.40421  0.44096  1.0000
  S   S424      1.0  0.73678  0.42142  0.41993  1.0000
  H   H1848     1.0  0.93267  0.58195  0.36360  1.0000
  S   S425      1.0  0.71811  0.38616  0.46085  1.0000
  H   H1849     1.0  0.77639  0.50587  0.26054  1.0000
  H   H1850     1.0  0.92325  0.51655  0.29317  1.0000
  C   C1524     1.0  0.80683  0.64512  0.32243  1.0000
  C   C1525     1.0  0.85560  0.65495  0.35759  1.0000
  C   C1526     1.0  0.89411  0.48268  0.32992  1.0000
  H   H1851     1.0  0.55127  0.34041  0.48115  1.0000
  C   C1527     1.0  0.96184  0.56567  0.27660  1.0000
  H   H1852     1.0  0.72683  0.38401  0.39949  1.0000
  C   C1528     1.0  0.87867  0.50906  0.31579  1.0000
  C   C1529     1.0  0.79624  0.63385  0.33743  1.0000
  C   C1530     1.0  0.80985  0.66615  0.34465  1.0000
  H   H1853     1.0  0.88431  0.46704  0.30062  1.0000
  H   H1854     1.0  0.82984  0.62185  0.29729  1.0000
  H   H1855     1.0  0.51029  0.35040  0.24022  1.0000
  C   C1531     1.0  0.61143  0.36543  0.44555  1.0000
  C   C1532     1.0  0.58861  0.36256  0.44747  1.0000
  H   H1856     1.0  0.88653  0.56418  0.31053  1.0000
  C   C1533     1.0  0.92481  0.59498  0.36092  1.0000
  Fe  Fe211     1.0  0.86479  0.56017  0.23791  1.0000
  H   H1857     1.0  0.85817  0.52551  0.33659  1.0000
  H   H1858     1.0  0.78585  0.65203  0.30172  1.0000
  C   C1534     1.0  0.92641  0.53684  0.27165  1.0000
  C   C1535     1.0  0.93854  0.55641  0.26090  1.0000
  N   N103      1.0  0.74444  0.35755  0.41855  1.0000
  C   C1536     1.0  0.93205  0.53187  0.28491  1.0000
  H   H1859     1.0  0.87790  0.53730  0.29016  1.0000
  H   H1860     1.0  0.95244  0.61206  0.34194  1.0000
  C   C1537     1.0  0.74868  0.49409  0.39631  1.0000
  C   C1538     1.0  0.76281  0.48200  0.39129  1.0000
  C   C1539     1.0  0.75907  0.45979  0.39873  1.0000
  C   C1540     1.0  0.74150  0.44963  0.41142  1.0000
  C   C1541     1.0  0.72772  0.46185  0.41674  1.0000
  C   C1542     1.0  0.73111  0.48396  0.40906  1.0000
  H   H1861     1.0  0.77643  0.48967  0.38152  1.0000
  H   H1862     1.0  0.76991  0.45049  0.39461  1.0000
  H   H1863     1.0  0.71450  0.45429  0.42671  1.0000
  H   H1864     1.0  0.72033  0.49336  0.41308  1.0000
  C   C1543     1.0  0.88311  0.52170  0.36323  1.0000
  C   C1544     1.0  0.89471  0.54167  0.35264  1.0000
  C   C1545     1.0  0.91795  0.54850  0.34908  1.0000
  C   C1546     1.0  0.92942  0.53556  0.35638  1.0000
  C   C1547     1.0  0.91773  0.51559  0.36680  1.0000
  C   C1548     1.0  0.89470  0.50856  0.37007  1.0000
  H   H1865     1.0  0.88585  0.55187  0.34727  1.0000
  H   H1866     1.0  0.92687  0.56404  0.34111  1.0000
  H   H1867     1.0  0.92652  0.50555  0.37246  1.0000
  H   H1868     1.0  0.88581  0.49306  0.37819  1.0000
  C   C1549     1.0  0.81450  0.55638  0.30734  1.0000
  C   C1550     1.0  0.80326  0.53439  0.31461  1.0000
  C   C1551     1.0  0.79835  0.51965  0.30654  1.0000
  C   C1552     1.0  0.80476  0.52704  0.29127  1.0000
  C   C1553     1.0  0.81521  0.54916  0.28412  1.0000
  C   C1554     1.0  0.82021  0.56379  0.29214  1.0000
  H   H1869     1.0  0.79860  0.52866  0.32638  1.0000
  H   H1870     1.0  0.79028  0.50248  0.31208  1.0000
  H   H1871     1.0  0.81967  0.55496  0.27235  1.0000
  H   H1872     1.0  0.82895  0.58077  0.28654  1.0000
  C   C1555     1.0  0.84909  0.63465  0.35498  1.0000
  H   H1873     1.0  0.58422  0.40676  0.40341  1.0000
  H   H1874     1.0  0.77930  0.43751  0.24843  1.0000
  C   C1556     1.0  0.74305  0.36210  0.43282  1.0000
  C   C1557     1.0  0.86364  0.65261  0.32879  1.0000
  C   C1558     1.0  0.85321  0.63343  0.34055  1.0000
  C   C1559     1.0  0.79852  0.48010  0.25028  1.0000
  H   H1875     1.0  0.83879  0.58705  0.25226  1.0000
  S   S426      1.0  0.83284  0.53706  0.23893  1.0000
  S   S427      1.0  0.84602  0.65392  0.26798  1.0000
  H   H1876     1.0  0.82687  0.61009  0.26791  1.0000
  H   H1877     1.0  0.87125  0.49961  0.29682  1.0000
  H   H1878     1.0  0.83910  0.51407  0.32767  1.0000
  Fe  Fe212     1.0  0.69011  0.39612  0.47335  1.0000
  C   C1560     1.0  0.76074  0.37663  0.40710  1.0000
  H   H1879     1.0  0.80029  0.63908  0.28965  1.0000
  N   N104      1.0  0.77421  0.47643  0.25349  1.0000
  H   H1880     1.0  0.59740  0.36367  0.48250  1.0000
  C   C1561     1.0  0.86461  0.53560  0.30014  1.0000
  H   H1881     1.0  0.77763  0.37893  0.40864  1.0000
  H   H1882     1.0  0.90294  0.59581  0.39671  1.0000
  H   H1883     1.0  0.86668  0.65170  0.31769  1.0000
  H   H1884     1.0  0.61850  0.39514  0.48261  1.0000
  H   H1885     1.0  0.63962  0.35447  0.43690  1.0000
  C   C1562     1.0  0.95645  0.57044  0.26325  1.0000
  H   H1886     1.0  0.89260  0.61215  0.32885  1.0000
  S   S428      1.0  0.96519  0.59044  0.31719  1.0000
  C   C1563     1.0  0.84177  0.61678  0.25891  1.0000
  H   H1887     1.0  0.84959  0.52305  0.30058  1.0000
  N   N105      1.0  0.87199  0.52984  0.31355  1.0000
  C   C1564     1.0  0.88690  0.50177  0.32785  1.0000
  H   H1888     1.0  0.93477  0.56025  0.25052  1.0000
  H   H1889     1.0  0.87335  0.60469  0.29082  1.0000
  C   C1565     1.0  0.88087  0.60777  0.31048  1.0000
  H   H1890     1.0  0.60022  0.44662  0.39873  1.0000
  H   H1891     1.0  0.81488  0.66320  0.29231  1.0000
  C   C1566     1.0  0.57660  0.34722  0.44201  1.0000
  H   H1892     1.0  0.76834  0.44618  0.27037  1.0000
  H   H1893     1.0  0.79040  0.63512  0.35973  1.0000
  H   H1894     1.0  0.91410  0.64608  0.26458  1.0000
  C   C1567     1.0  0.97510  0.66051  0.27765  1.0000
  C   C1568     1.0  0.85428  0.63840  0.25620  1.0000
  C   C1569     1.0  0.71571  0.36833  0.40610  1.0000
  N   N106      1.0  0.91486  0.61252  0.27223  1.0000
  C   C1570     1.0  0.90431  0.59082  0.27083  1.0000
  C   C1571     1.0  0.90670  0.62952  0.26370  1.0000
  C   C1572     1.0  0.93902  0.61753  0.26540  1.0000
  C   C1573     1.0  0.90912  0.61225  0.28778  1.0000
  C   C1574     1.0  0.92531  0.61625  0.29540  1.0000
  C   C1575     1.0  0.88665  0.60790  0.29583  1.0000
  C   C1576     1.0  0.91933  0.61626  0.31001  1.0000
  H   H1895     1.0  0.80519  0.48815  0.25787  1.0000
  C   C1577     1.0  0.79052  0.61227  0.31557  1.0000
  H   H1896     1.0  0.88595  0.58679  0.27435  1.0000
  H   H1897     1.0  0.91102  0.63045  0.25189  1.0000
  H   H1898     1.0  0.90962  0.57752  0.27740  1.0000
  H   H1899     1.0  0.88845  0.62633  0.26742  1.0000
  H   H1900     1.0  0.80694  0.49081  0.23900  1.0000
  H   H1901     1.0  0.86366  0.60439  0.31639  1.0000
  H   H1902     1.0  0.94652  0.60556  0.27126  1.0000
  H   H1903     1.0  0.94282  0.61702  0.25385  1.0000
  H   H1904     1.0  0.94772  0.63431  0.26520  1.0000
  H   H1905     1.0  0.94280  0.61964  0.29030  1.0000
  N   N107      1.0  0.80685  0.63414  0.31073  1.0000
  H   H1906     1.0  0.93209  0.61978  0.31543  1.0000
  C   C1578     1.0  0.88475  0.47657  0.30837  1.0000
  C   C1579     1.0  0.85347  0.52809  0.32618  1.0000
  H   H1907     1.0  0.89236  0.54664  0.39706  1.0000
  C   C1580     1.0  0.80166  0.64774  0.29816  1.0000
  H   H1908     1.0  0.87833  0.57361  0.40607  1.0000
  C   C1581     1.0  0.62211  0.35257  0.43834  1.0000
  C   C1582     1.0  0.76590  0.46576  0.24315  1.0000
  Fe  Fe213     1.0  0.97847  0.57086  0.33349  1.0000
  H   H1909     1.0  0.89913  0.45558  0.32162  1.0000
  H   H1910     1.0  0.90535  0.54985  0.30311  1.0000
  C   C1583     1.0  0.61022  0.33768  0.43254  1.0000
  C   C1584     1.0  0.90387  0.59491  0.36956  1.0000
  S   S429      1.0  0.90522  0.51751  0.26862  1.0000
  H   H1911     1.0  0.90510  0.55134  0.37823  1.0000
  C   C1585     1.0  0.84850  0.60372  0.25007  1.0000
  C   C1586     1.0  0.87735  0.49558  0.30626  1.0000
  H   H1912     1.0  0.86005  0.55146  0.29866  1.0000
  H   H1913     1.0  0.75147  0.49656  0.25597  1.0000
  H   H1914     1.0  0.78703  0.61681  0.34114  1.0000
  H   H1915     1.0  0.79446  0.60039  0.32411  1.0000
  C   C1587     1.0  0.82914  0.63103  0.30564  1.0000
  H   H1916     1.0  0.90062  0.47772  0.33911  1.0000
  H   H1917     1.0  0.91866  0.56645  0.38863  1.0000
  H   H1918     1.0  0.77343  0.61345  0.31986  1.0000
  C   C1588     1.0  0.88707  0.58661  0.39559  1.0000
  H   H1919     1.0  0.84761  0.54322  0.32474  1.0000
  H   H1920     1.0  0.83396  0.62163  0.31488  1.0000
  C   C1589     1.0  0.89716  0.61204  0.31754  1.0000
  S   S430      1.0  0.66453  0.36589  0.47470  1.0000
  C   C1590     1.0  0.97415  0.65968  0.30267  1.0000
  H   H1921     1.0  0.89667  0.54615  0.32233  1.0000
  H   H1922     1.0  0.96631  0.58505  0.25461  1.0000
  H   H1923     1.0  0.90885  0.59025  0.25928  1.0000
  H   H1924     1.0  0.95345  0.54231  0.29775  1.0000
  H   H1925     1.0  0.90015  0.64357  0.34851  1.0000
  H   H1926     1.0  0.77733  0.50987  0.24176  1.0000
  N   N108      1.0  0.66406  0.43665  0.41167  1.0000
  C   C1591     1.0  0.67920  0.45375  0.39845  1.0000
  C   C1592     1.0  0.66033  0.44645  0.42398  1.0000
  C   C1593     1.0  0.67555  0.41940  0.41551  1.0000
  C   C1594     1.0  0.64254  0.42817  0.40902  1.0000
  C   C1595     1.0  0.63284  0.40540  0.41152  1.0000
  C   C1596     1.0  0.63016  0.44281  0.40432  1.0000
  C   C1597     1.0  0.61208  0.39791  0.40945  1.0000
  C   C1598     1.0  0.60946  0.43515  0.40221  1.0000
  C   C1599     1.0  0.60042  0.41273  0.40482  1.0000
  H   H1927     1.0  0.68111  0.44744  0.38871  1.0000
  H   H1928     1.0  0.67343  0.46881  0.39589  1.0000
  H   H1929     1.0  0.69606  0.45931  0.39976  1.0000
  H   H1930     1.0  0.65310  0.46057  0.42159  1.0000
  H   H1931     1.0  0.67604  0.45267  0.42657  1.0000
  H   H1932     1.0  0.64875  0.43410  0.43406  1.0000
  H   H1933     1.0  0.67882  0.41122  0.40675  1.0000
  H   H1934     1.0  0.69187  0.42624  0.41716  1.0000
  H   H1935     1.0  0.66572  0.40680  0.42594  1.0000
  H   H1936     1.0  0.64066  0.39292  0.41540  1.0000
  H   H1937     1.0  0.63625  0.46029  0.40247  1.0000
  H   H1938     1.0  0.60479  0.38042  0.41175  1.0000
  H   H1939     1.0  0.58021  0.37240  0.45307  1.0000
  H   H1940     1.0  0.76192  0.37463  0.39599  1.0000
  H   H1941     1.0  0.87168  0.56026  0.37172  1.0000
  H   H1942     1.0  0.88796  0.51086  0.33575  1.0000
  H   H1943     1.0  0.87647  0.59811  0.39436  1.0000
  C   C1600     1.0  0.93641  0.61220  0.34832  1.0000
  C   C1601     1.0  0.92758  0.62967  0.34390  1.0000
  N   N109      1.0  0.89109  0.57720  0.38310  1.0000
  H   H1944     1.0  0.85968  0.55245  0.39106  1.0000
  C   C1602     1.0  0.90239  0.55975  0.38689  1.0000
  H   H1945     1.0  0.85891  0.57813  0.38000  1.0000
  C   C1603     1.0  0.90706  0.63000  0.35202  1.0000
  H   H1946     1.0  0.73199  0.34802  0.44206  1.0000
  H   H1947     1.0  0.85254  0.65600  0.36870  1.0000
  C   C1604     1.0  0.86945  0.56661  0.38141  1.0000
  H   H1948     1.0  0.55909  0.34539  0.44337  1.0000
  C   C1605     1.0  0.94930  0.54642  0.28752  1.0000
  H   H1949     1.0  0.79063  0.60458  0.30647  1.0000
  H   H1950     1.0  0.93668  0.64301  0.33415  1.0000
  S   S431      1.0  0.62630  0.38601  0.45155  1.0000
  H   H1951     1.0  0.87965  0.61408  0.37067  1.0000
  H   H1952     1.0  0.84201  0.64694  0.30055  1.0000
  C   C1606     1.0  0.89540  0.61296  0.36468  1.0000
  C   C1607     1.0  0.89092  0.54827  0.31233  1.0000
  H   H1953     1.0  0.68989  0.37549  0.39650  1.0000
  H   H1954     1.0  0.74549  0.45832  0.27138  1.0000
  C   C1608     1.0  0.79789  0.64428  0.34832  1.0000
  S   S432      1.0  0.98475  0.58390  0.27888  1.0000
  H   H1955     1.0  0.75952  0.36577  0.43495  1.0000
  H   H1956     1.0  0.99204  0.64217  0.29028  1.0000
  C   C1609     1.0  0.76955  0.49810  0.25285  1.0000
  H   H1957     1.0  0.77080  0.34153  0.41900  1.0000
  H   H1958     1.0  0.73319  0.42479  0.48483  1.0000
  H   H1959     1.0  0.73638  0.37654  0.43323  1.0000
  Fe  Fe214     1.0  0.99235  0.58587  0.30040  1.0000
  S   S433      1.0  0.98247  0.65054  0.31832  1.0000
  Fe  Fe215     1.0  0.99089  0.61892  0.31778  1.0000
  C   C1610     1.0  0.98128  0.65287  0.29031  1.0000
  H   H1960     1.0  0.80383  0.46472  0.25132  1.0000
  C   C1611     1.0  0.87319  0.64718  0.24427  1.0000
  C   C1612     1.0  0.86734  0.61249  0.23812  1.0000
  C   C1613     1.0  0.72203  0.35322  0.41635  1.0000
  C   C1614     1.0  0.81914  0.66731  0.31912  1.0000
  H   H1961     1.0  0.98121  0.65565  0.26800  1.0000
  H   H1962     1.0  0.88281  0.66392  0.24198  1.0000
  S   S434      1.0  0.89275  0.66846  0.28550  1.0000
  C   C1615     1.0  0.69436  0.36374  0.40435  1.0000
  C   C1616     1.0  0.75329  0.33811  0.41857  1.0000
  H   H1963     1.0  0.66207  0.34080  0.41157  1.0000
  C   C1617     1.0  0.67867  0.34422  0.41280  1.0000
  Fe  Fe216     1.0  0.56839  0.35940  0.55292  1.0000
  S   S435      1.0  0.60456  0.37701  0.54852  1.0000
  Fe  Fe217     1.0  0.72920  0.40252  0.58296  1.0000
  S   S436      1.0  0.71536  0.42533  0.59422  1.0000
  S   S437      1.0  0.72654  0.36797  0.59556  1.0000
  Fe  Fe218     1.0  0.74027  0.43421  0.55293  1.0000
  S   S438      1.0  0.72817  0.45993  0.56199  1.0000
  S   S439      1.0  0.75259  0.43862  0.52853  1.0000
  Fe  Fe219     1.0  0.74587  0.45159  0.57939  1.0000
  S   S440      1.0  0.76383  0.47895  0.58785  1.0000
  Fe  Fe220     1.0  0.69917  0.43166  0.57607  1.0000
  S   S441      1.0  0.66295  0.43179  0.57973  1.0000
  S   S442      1.0  0.76045  0.42810  0.56895  1.0000
  S   S443      1.0  0.71058  0.40669  0.56627  1.0000
  H   H1964     1.0  0.88132  0.56027  0.59010  1.0000
  C   C1618     1.0  0.95664  0.63955  0.61343  1.0000
  H   H1965     1.0  0.61629  0.44000  0.54439  1.0000
  S   S444      1.0  0.96902  0.57220  0.69800  1.0000
  Fe  Fe221     1.0  0.85470  0.53860  0.62741  1.0000
  S   S445      1.0  0.86127  0.57426  0.61509  1.0000
  S   S446      1.0  0.83455  0.50844  0.62240  1.0000
  Fe  Fe222     1.0  0.89156  0.55085  0.64318  1.0000
  S   S447      1.0  0.90084  0.58658  0.63125  1.0000
  S   S448      1.0  0.90824  0.53711  0.66014  1.0000
  Fe  Fe223     1.0  0.86438  0.58229  0.63596  1.0000
  S   S449      1.0  0.84934  0.60666  0.64510  1.0000
  Fe  Fe224     1.0  0.89707  0.57505  0.61179  1.0000
  S   S450      1.0  0.92209  0.58979  0.59001  1.0000
  S   S451      1.0  0.85468  0.54654  0.64890  1.0000
  S   S452      1.0  0.89094  0.53953  0.62315  1.0000
  C   C1619     1.0  0.86325  0.63393  0.64388  1.0000
  C   C1620     1.0  0.88578  0.64072  0.64321  1.0000
  C   C1621     1.0  0.65159  0.36506  0.58890  1.0000
  C   C1622     1.0  0.84003  0.52750  0.57291  1.0000
  H   H1966     1.0  0.88226  0.59401  0.65924  1.0000
  H   H1967     1.0  0.59437  0.38901  0.51545  1.0000
  H   H1968     1.0  0.89584  0.62932  0.64286  1.0000
  S   S453      1.0  0.54766  0.37230  0.53907  1.0000
  Fe  Fe225     1.0  0.51912  0.35630  0.55927  1.0000
  C   C1623     1.0  0.96062  0.66245  0.69977  1.0000
  C   C1624     1.0  0.95193  0.56524  0.68674  1.0000
  C   C1625     1.0  0.93421  0.54635  0.69299  1.0000
  C   C1626     1.0  0.92069  0.53872  0.68477  1.0000
  C   C1627     1.0  0.92412  0.55008  0.67015  1.0000
  C   C1628     1.0  0.94127  0.56967  0.66386  1.0000
  C   C1629     1.0  0.95524  0.57721  0.67214  1.0000
  H   H1969     1.0  0.90778  0.52350  0.68972  1.0000
  H   H1970     1.0  0.94436  0.57842  0.65249  1.0000
  H   H1971     1.0  0.96864  0.59199  0.66725  1.0000
  C   C1630     1.0  0.91058  0.64358  0.68122  1.0000
  C   C1631     1.0  0.82528  0.51571  0.56705  1.0000
  C   C1632     1.0  0.63239  0.44365  0.53665  1.0000
  C   C1633     1.0  0.98630  0.61587  0.58644  1.0000
  C   C1634     1.0  0.72558  0.34387  0.56088  1.0000
  C   C1635     1.0  0.96552  0.52075  0.67280  1.0000
  H   H1972     1.0  0.97333  0.63912  0.61478  1.0000
  H   H1973     1.0  0.63577  0.34893  0.55707  1.0000
  C   C1636     1.0  0.85063  0.64910  0.64421  1.0000
  C   C1637     1.0  0.96632  0.60992  0.58294  1.0000
  C   C1638     1.0  0.94801  0.59461  0.59341  1.0000
  C   C1639     1.0  0.95003  0.58443  0.60710  1.0000
  C   C1640     1.0  0.96999  0.59035  0.61059  1.0000
  H   H1974     1.0  0.83399  0.53873  0.57834  1.0000
  H   H1975     1.0  0.96486  0.61768  0.57229  1.0000
  H   H1976     1.0  0.93614  0.57218  0.61513  1.0000
  H   H1977     1.0  0.97117  0.58291  0.62136  1.0000
  H   H1978     1.0  0.98481  0.64389  0.69872  1.0000
  H   H1979     1.0  0.81946  0.49086  0.55609  1.0000
  C   C1641     1.0  0.78442  0.48725  0.59686  1.0000
  C   C1642     1.0  0.79913  0.47493  0.60021  1.0000
  C   C1643     1.0  0.81450  0.48188  0.60774  1.0000
  C   C1644     1.0  0.81587  0.50149  0.61185  1.0000
  C   C1645     1.0  0.80168  0.51420  0.60806  1.0000
  C   C1646     1.0  0.78607  0.50708  0.60073  1.0000
  H   H1980     1.0  0.79855  0.45991  0.59716  1.0000
  H   H1981     1.0  0.82527  0.47180  0.61057  1.0000
  H   H1982     1.0  0.80226  0.52924  0.61115  1.0000
  H   H1983     1.0  0.77498  0.51693  0.59817  1.0000
  H   H1984     1.0  0.73887  0.37491  0.56435  1.0000
  C   C1647     1.0  0.61973  0.39184  0.55790  1.0000
  C   C1648     1.0  0.64285  0.39704  0.55308  1.0000
  C   C1649     1.0  0.65611  0.40913  0.55972  1.0000
  C   C1650     1.0  0.64639  0.41644  0.57126  1.0000
  C   C1651     1.0  0.62316  0.41168  0.57596  1.0000
  C   C1652     1.0  0.60982  0.39931  0.56935  1.0000
  H   H1985     1.0  0.65057  0.39201  0.54393  1.0000
  H   H1986     1.0  0.67385  0.41321  0.55565  1.0000
  H   H1987     1.0  0.61549  0.41754  0.58477  1.0000
  H   H1988     1.0  0.59201  0.39597  0.57291  1.0000
  C   C1653     1.0  0.70530  0.41116  0.50398  1.0000
  H   H1989     1.0  0.62030  0.42318  0.52414  1.0000
  C   C1654     1.0  0.74216  0.42953  0.50422  1.0000
  C   C1655     1.0  0.73478  0.42636  0.51937  1.0000
  C   C1656     1.0  0.71281  0.41484  0.52676  1.0000
  C   C1657     1.0  0.69816  0.40761  0.51908  1.0000
  H   H1990     1.0  0.98140  0.52544  0.68942  1.0000
  H   H1991     1.0  0.70682  0.41209  0.53833  1.0000
  H   H1992     1.0  0.68105  0.39948  0.52484  1.0000
  N   N110      1.0  0.69217  0.47625  0.53021  1.0000
  C   C1658     1.0  0.71026  0.46524  0.53002  1.0000
  C   C1659     1.0  0.69976  0.49639  0.51770  1.0000
  C   C1660     1.0  0.68821  0.48295  0.54389  1.0000
  C   C1661     1.0  0.67231  0.46152  0.52885  1.0000
  C   C1662     1.0  0.65088  0.45705  0.53856  1.0000
  C   C1663     1.0  0.67391  0.45182  0.51716  1.0000
  H   H1993     1.0  0.64581  0.37205  0.51050  1.0000
  H   H1994     1.0  0.95465  0.63106  0.60498  1.0000
  H   H1995     1.0  0.73172  0.35014  0.54912  1.0000
  H   H1996     1.0  0.72515  0.47545  0.53166  1.0000
  H   H1997     1.0  0.70479  0.44937  0.53879  1.0000
  H   H1998     1.0  0.71631  0.46184  0.51946  1.0000
  H   H1999     1.0  0.70457  0.49266  0.50708  1.0000
  C   C1664     1.0  0.58143  0.34324  0.59888  1.0000
  H   H2000     1.0  0.62042  0.36097  0.52508  1.0000
  C   C1665     1.0  0.71947  0.34384  0.51442  1.0000
  H   H2001     1.0  0.70363  0.49316  0.54495  1.0000
  H   H2002     1.0  0.67606  0.49295  0.54437  1.0000
  H   H2003     1.0  0.64795  0.46326  0.54794  1.0000
  C   C1666     1.0  0.88879  0.66562  0.60695  1.0000
  C   C1667     1.0  0.66501  0.35201  0.58466  1.0000
  H   H2004     1.0  0.91982  0.62957  0.60714  1.0000
  H   H2005     1.0  0.58436  0.34705  0.60893  1.0000
  H   H2006     1.0  0.94414  0.62969  0.62392  1.0000
  C   C1668     1.0  0.78233  0.45250  0.64264  1.0000
  C   C1669     1.0  0.89487  0.64622  0.60695  1.0000
  H   H2007     1.0  0.76388  0.47282  0.63294  1.0000
  H   H2008     1.0  0.58399  0.37724  0.50257  1.0000
  N   N111      1.0  0.61623  0.37367  0.50378  1.0000
  C   C1670     1.0  0.62858  0.35754  0.59212  1.0000
  H   H2009     1.0  0.85395  0.54282  0.59495  1.0000
  H   H2010     1.0  0.65911  0.38122  0.58959  1.0000
  C   C1671     1.0  0.98797  0.60649  0.60039  1.0000
  H   H2011     1.0  0.64445  0.39403  0.48617  1.0000
  H   H2012     1.0  0.94678  0.64824  0.70225  1.0000
  C   C1672     1.0  0.98315  0.54609  0.64872  1.0000
  H   H2013     1.0  0.75912  0.43844  0.49836  1.0000
  H   H2014     1.0  0.59412  0.33863  0.57207  1.0000
  C   C1673     1.0  0.63464  0.43411  0.52522  1.0000
  C   C1674     1.0  0.64795  0.34544  0.54899  1.0000
  H   H2015     1.0  0.79940  0.42923  0.65054  1.0000
  H   H2016     1.0  0.88311  0.50531  0.56370  1.0000
  C   C1675     1.0  0.72222  0.34998  0.58476  1.0000
  H   H2017     1.0  0.94894  0.66627  0.63066  1.0000
  H   H2018     1.0  0.79007  0.46483  0.64716  1.0000
  C   C1676     1.0  0.98233  0.53073  0.67791  1.0000
  H   H2019     1.0  0.87202  0.66626  0.60712  1.0000
  C   C1677     1.0  0.62718  0.39369  0.49128  1.0000
  H   H2020     1.0  0.95209  0.52145  0.65452  1.0000
  H   H2021     1.0  0.93138  0.53701  0.70422  1.0000
  C   C1678     1.0  0.96585  0.52851  0.65826  1.0000
  C   C1679     1.0  0.83123  0.50027  0.56029  1.0000
  H   H2022     1.0  0.71450  0.50812  0.51840  1.0000
  N   N112      1.0  0.87748  0.53621  0.57822  1.0000
  S   S454      1.0  0.54040  0.34606  0.57353  1.0000
  Fe  Fe226     1.0  0.54094  0.33943  0.53463  1.0000
  H   H2023     1.0  0.58582  0.35884  0.58999  1.0000
  C   C1680     1.0  0.89786  0.54926  0.56645  1.0000
  N   N113      1.0  0.87733  0.58711  0.68232  1.0000
  C   C1681     1.0  0.88818  0.58487  0.66799  1.0000
  C   C1682     1.0  0.88504  0.57382  0.69372  1.0000
  C   C1683     1.0  0.85312  0.57745  0.68548  1.0000
  C   C1684     1.0  0.88318  0.61064  0.68176  1.0000
  C   C1685     1.0  0.90470  0.62130  0.68197  1.0000
  C   C1686     1.0  0.86837  0.62399  0.68000  1.0000
  C   C1687     1.0  0.62905  0.37409  0.51468  1.0000
  C   C1688     1.0  0.87449  0.64628  0.67919  1.0000
  H   H2024     1.0  0.95167  0.50763  0.68027  1.0000
  C   C1689     1.0  0.86711  0.50863  0.56483  1.0000
  H   H2025     1.0  0.90646  0.59135  0.66499  1.0000
  H   H2026     1.0  0.83326  0.64409  0.64480  1.0000
  H   H2027     1.0  0.90336  0.57721  0.69093  1.0000
  H   H2028     1.0  0.87913  0.55588  0.69514  1.0000
  H   H2029     1.0  0.87915  0.57685  0.70447  1.0000
  H   H2030     1.0  0.84658  0.58443  0.67632  1.0000
  H   H2031     1.0  0.84900  0.55945  0.68679  1.0000
  H   H2032     1.0  0.84381  0.58006  0.69566  1.0000
  H   H2033     1.0  0.91731  0.61264  0.68254  1.0000
  H   H2034     1.0  0.85218  0.61780  0.67878  1.0000
  C   C1690     1.0  0.86146  0.52424  0.57201  1.0000
  H   H2035     1.0  0.80883  0.51810  0.56811  1.0000
  C   C1691     1.0  0.78769  0.43249  0.64442  1.0000
  H   H2036     1.0  0.90667  0.53879  0.56123  1.0000
  H   H2037     1.0  0.86477  0.56463  0.57789  1.0000
  H   H2038     1.0  0.85669  0.48473  0.55385  1.0000
  H   H2039     1.0  0.65725  0.43055  0.50670  1.0000
  H   H2040     1.0  0.61928  0.36867  0.59516  1.0000
  N   N114      1.0  0.75431  0.40564  0.62211  1.0000
  C   C1692     1.0  0.72979  0.40057  0.62634  1.0000
  C   C1693     1.0  0.76289  0.41588  0.60612  1.0000
  C   C1694     1.0  0.76012  0.38437  0.62541  1.0000
  C   C1695     1.0  0.76350  0.42112  0.62967  1.0000
  C   C1696     1.0  0.77844  0.41692  0.63808  1.0000
  C   C1697     1.0  0.75832  0.44164  0.62819  1.0000
  H   H2041     1.0  0.68955  0.45452  0.50923  1.0000
  H   H2042     1.0  0.67548  0.36682  0.55230  1.0000
  H   H2043     1.0  0.92698  0.65139  0.68159  1.0000
  H   H2044     1.0  0.72377  0.41532  0.62309  1.0000
  H   H2045     1.0  0.72238  0.38865  0.62097  1.0000
  H   H2046     1.0  0.72274  0.39340  0.63836  1.0000
  H   H2047     1.0  0.78128  0.42005  0.60252  1.0000
  H   H2048     1.0  0.75812  0.43135  0.60255  1.0000
  H   H2049     1.0  0.75654  0.40470  0.59999  1.0000
  H   H2050     1.0  0.75411  0.37567  0.63730  1.0000
  H   H2051     1.0  0.75246  0.37306  0.61972  1.0000
  H   H2052     1.0  0.77828  0.38662  0.62156  1.0000
  H   H2053     1.0  0.78352  0.40191  0.63976  1.0000
  H   H2054     1.0  0.74779  0.44645  0.62150  1.0000
  C   C1698     1.0  0.99977  0.54827  0.66846  1.0000
  C   C1699     1.0  0.76751  0.45696  0.63467  1.0000
  H   H2055     1.0  0.68280  0.35803  0.58206  1.0000
  H   H2056     1.0  0.70317  0.35987  0.53425  1.0000
  C   C1700     1.0  0.89546  0.65600  0.67991  1.0000
  H   H2057     1.0  0.89395  0.56094  0.55776  1.0000
  C   C1701     1.0  0.65537  0.43817  0.51550  1.0000
  C   C1702     1.0  0.88346  0.52030  0.58918  1.0000
  C   C1703     1.0  0.59384  0.37507  0.51057  1.0000
  H   H2058     1.0  0.86844  0.50955  0.59790  1.0000
  H   H2059     1.0  0.90992  0.55914  0.57072  1.0000
  H   H2060     1.0  0.68210  0.46835  0.55370  1.0000
  H   H2061     1.0  0.99550  0.59302  0.63823  1.0000
  H   H2062     1.0  0.58455  0.35983  0.51944  1.0000
  C   C1704     1.0  0.86887  0.55161  0.58558  1.0000
  S   S455      1.0  0.68512  0.40383  0.49501  1.0000
  C   C1705     1.0  0.68618  0.35139  0.53575  1.0000
  H   H2063     1.0  0.89217  0.50946  0.58434  1.0000
  C   C1706     1.0  0.72750  0.42177  0.49653  1.0000
  C   C1707     1.0  0.98216  0.65999  0.69780  1.0000
  C   C1708     1.0  0.89535  0.66257  0.64295  1.0000
  H   H2064     1.0  0.68647  0.50497  0.51728  1.0000
  H   H2065     1.0  0.86312  0.65627  0.67754  1.0000
  H   H2066     1.0  0.89468  0.52878  0.59459  1.0000
  H   H2067     1.0  0.88449  0.56741  0.66788  1.0000
  C   C1709     1.0  0.85215  0.49679  0.55912  1.0000
  C   C1710     1.0  0.60454  0.35124  0.48748  1.0000
  C   C1711     1.0  0.61440  0.35353  0.49887  1.0000
  H   H2068     1.0  0.88282  0.63186  0.60692  1.0000
  H   H2069     1.0  0.63150  0.38983  0.51758  1.0000
  C   C1712     1.0  0.67032  0.35555  0.54627  1.0000
  C   C1713     1.0  0.91621  0.64503  0.60739  1.0000
  H   H2070     1.0  0.73128  0.34014  0.50576  1.0000
  C   C1714     1.0  0.72964  0.35794  0.56952  1.0000
  C   C1715     1.0  0.93198  0.66326  0.60824  1.0000
  H   H2071     1.0  0.69201  0.35790  0.49921  1.0000
  H   H2072     1.0  0.72238  0.36203  0.51129  1.0000
  H   H2073     1.0  0.96613  0.66566  0.58608  1.0000
  C   C1716     1.0  0.69148  0.34013  0.50179  1.0000
  H   H2074     1.0  0.62800  0.40890  0.49480  1.0000
  H   H2075     1.0  0.98191  0.55207  0.63778  1.0000
  H   H2076     1.0  0.91264  0.66784  0.64238  1.0000
  H   H2077     1.0  0.50957  0.36927  0.51566  1.0000
  N   N115      1.0  0.95456  0.66234  0.60901  1.0000
  S   S456      1.0  0.54744  0.33918  0.51091  1.0000
  H   H2078     1.0  0.70365  0.33779  0.49264  1.0000
  H   H2079     1.0  0.72407  0.33845  0.52476  1.0000
  H   H2080     1.0  0.00030  0.62775  0.57837  1.0000
  C   C1717     1.0  0.67998  0.33675  0.52762  1.0000
  C   C1718     1.0  0.00102  0.55614  0.65342  1.0000
  C   C1719     1.0  0.61835  0.33644  0.59128  1.0000
  S   S457      1.0  0.97286  0.62691  0.97205  1.0000
  C   C1720     1.0  0.87052  0.66408  0.98106  1.0000
  H   H2081     1.0  0.94131  0.57870  0.95743  1.0000
  C   C1721     1.0  0.84745  0.63895  0.96676  1.0000
  H   H2082     1.0  0.89721  0.65373  0.94230  1.0000
  C   C1722     1.0  0.92920  0.58815  0.95762  1.0000
  H   H2083     1.0  0.96186  0.65252  0.94658  1.0000
  H   H2084     1.0  0.92421  0.64416  0.92376  1.0000
  H   H2085     1.0  0.90392  0.65693  0.95883  1.0000
  C   C1723     1.0  0.92072  0.62381  0.95129  1.0000
  H   H2086     1.0  0.95330  0.61794  0.94504  1.0000
  H   H2087     1.0  0.88541  0.62115  0.96008  1.0000
  H   H2088     1.0  0.95179  0.64585  0.92536  1.0000
  C   C1724     1.0  0.93592  0.61070  0.95058  1.0000
  H   H2089     1.0  0.94146  0.65281  0.96214  1.0000
  C   C1725     1.0  0.89826  0.61276  0.95902  1.0000
  C   C1726     1.0  0.85116  0.62847  0.97985  1.0000
  C   C1727     1.0  0.90717  0.57794  0.96541  1.0000
  C   C1728     1.0  0.91092  0.65938  0.94695  1.0000
  H   H2090     1.0  0.83813  0.62933  0.96132  1.0000
  C   C1729     1.0  0.89173  0.59020  0.96602  1.0000
  H   H2091     1.0  0.87459  0.58226  0.97220  1.0000
  C   C1730     1.0  0.94653  0.65767  0.94999  1.0000
  N   N116      1.0  0.92848  0.64783  0.94431  1.0000
  H   H2092     1.0  0.92563  0.61315  0.97963  1.0000
  H   H2093     1.0  0.90211  0.56058  0.97118  1.0000
  C   C1731     1.0  0.93705  0.65210  0.92831  1.0000
  C   C1732     1.0  0.85452  0.66192  0.96112  1.0000
  H   H2094     1.0  0.00106  0.66900  0.74138  1.0000
  Fe  Fe227     1.0  0.82319  0.97028  0.12266  1.0000
  C   C1733     1.0  0.89940  0.86477  0.08358  1.0000
  S   S458      1.0  0.84709  0.95128  0.08941  1.0000
  H   H2095     1.0  0.98368  0.78079  0.01534  1.0000
  C   C1734     1.0  0.56353  0.95854  0.00662  1.0000
  H   H2096     1.0  0.57390  0.90364  0.04802  1.0000
  S   S459      1.0  0.80133  0.94847  0.11364  1.0000
  S   S460      1.0  0.80904  0.97928  0.07153  1.0000
  Fe  Fe228     1.0  0.82792  0.93095  0.11202  1.0000
  S   S461      1.0  0.81636  0.89434  0.11784  1.0000
  Fe  Fe229     1.0  0.95401  0.85838  0.14338  1.0000
  S   S462      1.0  0.96825  0.85069  0.16250  1.0000
  Fe  Fe230     1.0  0.91076  0.85281  0.13564  1.0000
  S   S463      1.0  0.92661  0.87064  0.11204  1.0000
  S   S464      1.0  0.87431  0.83830  0.14516  1.0000
  Fe  Fe231     1.0  0.95150  0.85123  0.11390  1.0000
  S   S465      1.0  0.96428  0.83917  0.09459  1.0000
  Fe  Fe232     1.0  0.94775  0.89418  0.12019  1.0000
  S   S466      1.0  0.93390  0.83132  0.13708  1.0000
  S   S467      1.0  0.92919  0.87827  0.14376  1.0000
  H   H2097     1.0  0.87908  0.86919  0.17424  1.0000
  Fe  Fe233     1.0  0.97210  0.91132  0.21910  1.0000
  S   S468      1.0  0.84809  0.95070  0.12283  1.0000
  Fe  Fe234     1.0  0.91881  0.73714  0.07025  1.0000
  S   S469      1.0  0.93510  0.75798  0.04706  1.0000
  S   S470      1.0  0.90956  0.74918  0.09008  1.0000
  Fe  Fe235     1.0  0.91686  0.69402  0.06238  1.0000
  S   S471      1.0  0.93331  0.71133  0.03874  1.0000
  H   H2098     1.0  0.93455  0.99084  0.14072  1.0000
  Fe  Fe236     1.0  0.95583  0.73398  0.04655  1.0000
  H   H2099     1.0  0.96624  0.67960  0.09826  1.0000
  Fe  Fe237     1.0  0.91093  0.73317  0.04149  1.0000
  S   S472      1.0  0.89153  0.73819  0.02511  1.0000
  S   S473      1.0  0.94140  0.71490  0.07009  1.0000
  S   S474      1.0  0.89269  0.71424  0.06472  1.0000
  H   H2100     1.0  0.84175  0.70457  0.01357  1.0000
  Fe  Fe238     1.0  0.71188  0.93438  0.03902  1.0000
  S   S475      1.0  0.73196  0.96358  0.02023  1.0000
  S   S476      1.0  0.72241  0.92607  0.06005  1.0000
  Fe  Fe239     1.0  0.67508  0.92410  0.02335  1.0000
  S   S477      1.0  0.69251  0.95300  0.00396  1.0000
  S   S478      1.0  0.64291  0.90024  0.02450  1.0000
  Fe  Fe240     1.0  0.72300  0.94245  0.00611  1.0000
  H   H2101     1.0  0.81838  0.93108  0.17754  1.0000
  Fe  Fe241     1.0  0.69939  0.97086  0.02019  1.0000
  C   C1735     1.0  1.00000  0.98152  0.19890  1.0000
  S   S479      1.0  0.70539  0.91224  0.02477  1.0000
  S   S480      1.0  0.67937  0.94292  0.03977  1.0000
  C   C1736     1.0  0.65436  0.99226  0.03509  1.0000
  C   C1737     1.0  0.63244  0.99380  0.03866  1.0000
  C   C1738     1.0  0.87818  0.89603  0.09052  1.0000
  H   H2102     1.0  0.97223  0.70213  0.99302  1.0000
  H   H2103     1.0  0.76232  0.90349  0.06873  1.0000
  S   S481      1.0  0.99222  0.74342  0.03535  1.0000
  H   H2104     1.0  0.72509  0.97296  0.05271  1.0000
  C   C1739     1.0  0.83077  0.89590  0.16892  1.0000
  C   C1740     1.0  0.99268  0.68092  0.03641  1.0000
  H   H2105     1.0  0.97488  0.74968  0.10363  1.0000
  H   H2106     1.0  0.59912  0.90458  0.03521  1.0000
  S   S482      1.0  0.89651  0.99051  0.20927  1.0000
  H   H2107     1.0  0.99461  0.99952  0.11433  1.0000
  H   H2108     1.0  0.59257  0.94510  0.05433  1.0000
  C   C1741     1.0  0.98879  0.94915  0.13675  1.0000
  H   H2109     1.0  0.94775  0.94557  0.07765  1.0000
  H   H2110     1.0  0.97363  0.97683  0.10218  1.0000
  C   C1742     1.0  0.62425  0.89352  0.01414  1.0000
  C   C1743     1.0  0.62396  0.90724  0.00079  1.0000
  H   H2111     1.0  0.90060  0.96911  0.12620  1.0000
  C   C1744     1.0  0.59103  0.88052  0.00050  1.0000
  C   C1745     1.0  0.59163  0.86717  0.01373  1.0000
  C   C1746     1.0  0.60802  0.87352  0.02041  1.0000
  C   C1747     1.0  0.99259  0.69154  0.07833  1.0000
  S   S483      1.0  0.90239  0.98324  0.09386  1.0000
  H   H2112     1.0  0.57922  0.85163  0.01892  1.0000
  H   H2113     1.0  0.60792  0.86280  0.03068  1.0000
  H   H2114     1.0  0.94942  0.78543  0.18791  1.0000
  S   S484      1.0  0.84412  0.99092  0.21698  1.0000
  H   H2115     1.0  0.58313  0.97250  0.01880  1.0000
  S   S485      1.0  0.97415  0.87641  0.12030  1.0000
  H   H2116     1.0  0.93506  0.93701  0.16217  1.0000
  H   H2117     1.0  0.65362  0.87680  0.99624  1.0000
  H   H2118     1.0  0.90062  0.92482  0.14470  1.0000
  C   C1748     1.0  0.86677  0.89773  0.17405  1.0000
  C   C1749     1.0  0.98898  0.78004  0.00420  1.0000
  C   C1750     1.0  0.89712  0.96695  0.13816  1.0000
  N   N117      1.0  0.98952  0.75671  0.08041  1.0000
  C   C1751     1.0  0.90821  0.75114  0.00719  1.0000
  C   C1752     1.0  0.82647  0.67457  0.99903  1.0000
  H   H2119     1.0  0.61859  0.96522  0.02115  1.0000
  H   H2120     1.0  0.98871  0.99280  0.16838  1.0000
  C   C1753     1.0  0.60736  0.90067  0.99393  1.0000
  C   C1754     1.0  0.92912  0.76545  0.00434  1.0000
  H   H2121     1.0  0.88423  0.73602  0.99768  1.0000
  H   H2122     1.0  0.97454  0.98505  0.23105  1.0000
  H   H2123     1.0  0.93507  0.76907  0.01327  1.0000
  S   S486      1.0  0.95519  0.93030  0.10944  1.0000
  H   H2124     1.0  0.63625  0.92286  0.99586  1.0000
  C   C1755     1.0  0.91370  0.69280  0.00760  1.0000
  C   C1756     1.0  0.71653  0.98622  0.05150  1.0000
  H   H2125     1.0  0.89698  0.98350  0.13945  1.0000
  C   C1757     1.0  0.82904  0.98647  0.15253  1.0000
  H   H2126     1.0  0.88026  0.95565  0.14334  1.0000
  H   H2127     1.0  0.85569  0.99879  0.13267  1.0000
  H   H2128     1.0  0.92939  0.88974  0.07626  1.0000
  H   H2129     1.0  0.94586  0.98034  0.21111  1.0000
  C   C1758     1.0  0.94789  0.81491  0.09310  1.0000
  C   C1759     1.0  0.93086  0.80061  0.10501  1.0000
  C   C1760     1.0  0.91892  0.78071  0.10383  1.0000
  C   C1761     1.0  0.92372  0.77508  0.09070  1.0000
  C   C1762     1.0  0.94024  0.78971  0.07862  1.0000
  C   C1763     1.0  0.95246  0.80948  0.07987  1.0000
  H   H2130     1.0  0.92718  0.80466  0.11523  1.0000
  H   H2131     1.0  0.90608  0.76949  0.11319  1.0000
  H   H2132     1.0  0.94370  0.78571  0.06838  1.0000
  H   H2133     1.0  0.96546  0.82062  0.07057  1.0000
  C   C1764     1.0  0.96580  0.90109  0.18818  1.0000
  C   C1765     1.0  0.96726  0.86994  0.17250  1.0000
  C   C1766     1.0  0.96970  0.86516  0.18667  1.0000
  C   C1767     1.0  0.96869  0.88064  0.19460  1.0000
  H   H2134     1.0  0.97237  0.84955  0.19153  1.0000
  H   H2135     1.0  0.97040  0.87685  0.20558  1.0000
  H   H2136     1.0  0.91132  0.91621  0.10625  1.0000
  C   C1768     1.0  0.78429  0.96513  0.06874  1.0000
  C   C1769     1.0  0.78218  0.96861  0.05445  1.0000
  C   C1770     1.0  0.76327  0.95701  0.05164  1.0000
  C   C1771     1.0  0.74610  0.94189  0.06313  1.0000
  C   C1772     1.0  0.74802  0.93873  0.07745  1.0000
  C   C1773     1.0  0.76699  0.95030  0.08026  1.0000
  C   C1774     1.0  0.90050  0.74675  0.99558  1.0000
  H   H2137     1.0  0.76220  0.95946  0.04054  1.0000
  H   H2138     1.0  0.73479  0.92717  0.08644  1.0000
  H   H2139     1.0  0.76823  0.94770  0.09133  1.0000
  C   C1775     1.0  0.91801  0.69447  0.99277  1.0000
  N   N118      1.0  0.59267  0.93612  0.03435  1.0000
  H   H2140     1.0  0.62664  0.94707  0.03454  1.0000
  N   N119      1.0  0.91425  0.92514  0.08322  1.0000
  H   H2141     1.0  0.87869  0.67382  0.98689  1.0000
  S   S487      1.0  0.84143  0.99443  0.10065  1.0000
  C   C1776     1.0  0.83275  0.87964  0.12586  1.0000
  C   C1777     1.0  0.85410  0.88997  0.12590  1.0000
  C   C1778     1.0  0.86731  0.87734  0.13152  1.0000
  C   C1779     1.0  0.85878  0.85455  0.13752  1.0000
  C   C1780     1.0  0.83718  0.84448  0.13792  1.0000
  C   C1781     1.0  0.82431  0.85696  0.13193  1.0000
  H   H2142     1.0  0.86057  0.90754  0.12135  1.0000
  H   H2143     1.0  0.88393  0.88516  0.13139  1.0000
  H   H2144     1.0  0.83055  0.82690  0.14263  1.0000
  H   H2145     1.0  0.80779  0.84893  0.13196  1.0000
  H   H2146     1.0  0.96324  0.89426  0.15521  1.0000
  H   H2147     1.0  0.99296  0.67527  0.07741  1.0000
  N   N120      1.0  0.79941  0.89976  0.07777  1.0000
  C   C1782     1.0  0.80811  0.92108  0.06620  1.0000
  C   C1783     1.0  0.78608  0.90307  0.09111  1.0000
  C   C1784     1.0  0.81873  0.89291  0.08136  1.0000
  C   C1785     1.0  0.78529  0.88367  0.07278  1.0000
  C   C1786     1.0  0.78930  0.86309  0.07216  1.0000
  C   C1787     1.0  0.76666  0.88833  0.06843  1.0000
  C   C1788     1.0  0.77560  0.84839  0.06730  1.0000
  C   C1789     1.0  0.92823  0.67996  0.98724  1.0000
  C   C1790     1.0  0.75758  0.85364  0.06299  1.0000
  H   H2148     1.0  0.81862  0.93377  0.06960  1.0000
  H   H2149     1.0  0.81815  0.91929  0.05594  1.0000
  C   C1791     1.0  0.80735  0.90385  0.15308  1.0000
  H   H2150     1.0  0.77138  0.90856  0.08939  1.0000
  H   H2151     1.0  0.79588  0.91573  0.09490  1.0000
  H   H2152     1.0  0.78000  0.88760  0.10028  1.0000
  H   H2153     1.0  0.82975  0.89039  0.07176  1.0000
  H   H2154     1.0  0.82900  0.90555  0.08492  1.0000
  H   H2155     1.0  0.81341  0.87763  0.09065  1.0000
  H   H2156     1.0  0.80289  0.85792  0.07536  1.0000
  H   H2157     1.0  0.94902  0.96987  0.14143  1.0000
  H   H2158     1.0  0.77896  0.83280  0.06686  1.0000
  H   H2159     1.0  0.91719  0.95853  0.07153  1.0000
  C   C1792     1.0  0.97152  0.94621  0.11737  1.0000
  H   H2160     1.0  0.92611  0.92731  0.18881  1.0000
  H   H2161     1.0  0.56028  0.97401  0.00190  1.0000
  C   C1793     1.0  0.90787  0.94140  0.07275  1.0000
  H   H2162     1.0  0.97890  0.96549  0.18050  1.0000
  H   H2163     1.0  0.70193  0.87220  0.98834  1.0000
  H   H2164     1.0  0.79538  0.91325  0.15034  1.0000
  H   H2165     1.0  0.60053  0.91300  0.05091  1.0000
  C   C1794     1.0  0.97207  0.75720  0.09302  1.0000
  H   H2166     1.0  0.56612  0.93988  0.05049  1.0000
  N   N121      1.0  0.92631  0.79305  0.20424  1.0000
  C   C1795     1.0  0.92639  0.80981  0.21233  1.0000
  C   C1796     1.0  0.92086  0.77130  0.21519  1.0000
  C   C1797     1.0  0.94894  0.79707  0.19468  1.0000
  C   C1798     1.0  0.91070  0.79460  0.19516  1.0000
  C   C1799     1.0  0.89321  0.77643  0.19613  1.0000
  C   C1800     1.0  0.91319  0.81464  0.18459  1.0000
  C   C1801     1.0  0.87929  0.77837  0.18700  1.0000
  C   C1802     1.0  0.89918  0.81638  0.17554  1.0000
  C   C1803     1.0  0.88233  0.79827  0.17670  1.0000
  H   H2167     1.0  0.93805  0.80904  0.21923  1.0000
  H   H2168     1.0  0.93175  0.82686  0.20500  1.0000
  H   H2169     1.0  0.90963  0.80735  0.21967  1.0000
  H   H2170     1.0  0.90391  0.76718  0.22270  1.0000
  H   H2171     1.0  0.93227  0.77095  0.22229  1.0000
  H   H2172     1.0  0.95508  0.81389  0.18702  1.0000
  H   H2173     1.0  0.96112  0.79532  0.20111  1.0000
  H   H2174     1.0  0.86729  0.84171  0.09247  1.0000
  H   H2175     1.0  0.89000  0.76048  0.20377  1.0000
  H   H2176     1.0  0.92627  0.82907  0.18305  1.0000
  H   H2177     1.0  0.86618  0.76429  0.18780  1.0000
  H   H2178     1.0  0.90163  0.83176  0.16739  1.0000
  C   C1804     1.0  0.96437  0.89032  0.16622  1.0000
  H   H2179     1.0  0.70300  0.98233  0.06167  1.0000
  Fe  Fe242     1.0  0.82169  0.97043  0.09155  1.0000
  H   H2180     1.0  0.92213  0.75796  0.20992  1.0000
  H   H2181     1.0  0.95812  0.71952  0.00101  1.0000
  C   C1805     1.0  0.98720  0.69934  0.03978  1.0000
  Fe  Fe243     1.0  0.86673  0.97675  0.22857  1.0000
  H   H2182     1.0  0.83425  0.98963  0.18608  1.0000
  H   H2183     1.0  0.96047  0.97726  0.17237  1.0000
  C   C1806     1.0  0.94210  0.77556  0.98985  1.0000
  C   C1807     1.0  0.96382  0.90592  0.17397  1.0000
  H   H2184     1.0  0.96890  0.75930  0.06587  1.0000
  H   H2185     1.0  0.97410  0.69718  0.04948  1.0000
  C   C1808     1.0  0.89931  0.94254  0.19121  1.0000
  C   C1809     1.0  0.91645  0.93630  0.18319  1.0000
  H   H2186     1.0  0.89563  0.93847  0.20303  1.0000
  S   S488      1.0  0.97810  0.93653  0.23098  1.0000
  N   N122      1.0  0.81204  0.90529  0.16708  1.0000
  H   H2187     1.0  0.84652  0.84832  0.16912  1.0000
  H   H2188     1.0  0.89010  0.94081  0.07640  1.0000
  H   H2189     1.0  0.92044  0.94525  0.09749  1.0000
  H   H2190     1.0  0.73384  0.99689  0.09667  1.0000
  H   H2191     1.0  0.95575  0.95866  0.20570  1.0000
  C   C1810     1.0  0.91584  0.93859  0.13930  1.0000
  Fe  Fe244     1.0  0.86504  0.97319  0.10032  1.0000
  C   C1811     1.0  0.83893  0.99170  0.17444  1.0000
  C   C1812     1.0  0.97439  0.98110  0.17723  1.0000
  C   C1813     1.0  0.98977  0.98196  0.11871  1.0000
  C   C1814     1.0  0.97655  0.71501  0.09103  1.0000
  C   C1815     1.0  0.92128  0.94168  0.16796  1.0000
  C   C1816     1.0  0.88718  0.95442  0.18400  1.0000
  H   H2192     1.0  0.67406  0.91596  0.98934  1.0000
  H   H2193     1.0  0.78710  0.87507  0.17953  1.0000
  H   H2194     1.0  0.81638  0.86449  0.16561  1.0000
  C   C1817     1.0  0.84733  0.86484  0.16997  1.0000
  H   H2195     1.0  0.62073  0.98317  0.04873  1.0000
  C   C1818     1.0  0.89175  0.95966  0.16879  1.0000
  C   C1819     1.0  0.98492  0.76824  0.06691  1.0000
  C   C1820     1.0  0.97794  0.96906  0.11179  1.0000
  C   C1821     1.0  0.90867  0.95302  0.16031  1.0000
  C   C1822     1.0  0.97475  0.71776  0.99608  1.0000
  H   H2196     1.0  0.54456  0.94062  0.99540  1.0000
  H   H2197     1.0  0.88199  0.96922  0.16391  1.0000
  H   H2198     1.0  0.91860  0.94203  0.12726  1.0000
  C   C1823     1.0  0.86571  0.87658  0.17287  1.0000
  C   C1824     1.0  0.55473  0.93983  0.00290  1.0000
  H   H2199     1.0  0.91115  0.93861  0.06178  1.0000
  N   N123      1.0  0.91398  0.95838  0.14419  1.0000
  H   H2200     1.0  0.73906  0.87773  0.06027  1.0000
  H   H2201     1.0  0.93020  0.93270  0.14142  1.0000
  H   H2202     1.0  0.96228  0.92190  0.16883  1.0000
  H   H2203     1.0  0.96414  0.71567  0.10022  1.0000
  H   H2204     1.0  0.86508  0.69710  0.00381  1.0000
  C   C1825     1.0  0.99057  0.73422  0.08007  1.0000
  H   H2205     1.0  0.87434  0.95998  0.19020  1.0000
  H   H2206     1.0  0.88088  0.90657  0.17664  1.0000
  C   C1826     1.0  0.97723  0.93626  0.12970  1.0000
  C   C1827     1.0  0.82302  0.98412  0.16760  1.0000
  C   C1828     1.0  0.91990  0.67688  0.01692  1.0000
  H   H2207     1.0  0.94380  0.92716  0.06679  1.0000
  H   H2208     1.0  0.58725  0.96482  0.04080  1.0000
  H   H2209     1.0  0.90769  0.85246  0.08119  1.0000
  C   C1829     1.0  0.83015  0.87429  0.16796  1.0000
  C   C1830     1.0  0.57133  0.91858  0.01897  1.0000
  H   H2210     1.0  0.97274  0.91862  0.13369  1.0000
  H   H2211     1.0  0.94452  0.91714  0.08548  1.0000
  H   H2212     1.0  0.85149  0.92374  0.17328  1.0000
  C   C1831     1.0  0.95066  0.97376  0.20166  1.0000
  C   C1832     1.0  0.69939  0.88828  0.98940  1.0000
  H   H2213     1.0  0.65952  0.98044  0.04240  1.0000
  H   H2214     1.0  0.79504  0.89312  0.19000  1.0000
  C   C1833     1.0  0.61624  0.94761  0.02680  1.0000
  H   H2215     1.0  0.86927  0.90747  0.09358  1.0000
  H   H2216     1.0  0.80190  0.93535  0.16537  1.0000
  H   H2217     1.0  0.89224  0.93130  0.10115  1.0000
  H   H2218     1.0  0.84836  0.86941  0.09848  1.0000
  H   H2219     1.0  0.61560  0.95479  0.98671  1.0000
  S   S489      1.0  0.56896  0.87066  0.99341  1.0000
  H   H2220     1.0  0.79547  0.98005  0.04545  1.0000
  S   S490      1.0  0.96577  0.92139  0.19730  1.0000
  C   C1834     1.0  0.84963  0.90738  0.17211  1.0000
  C   C1835     1.0  0.55897  0.92001  0.00884  1.0000
  H   H2221     1.0  0.71482  0.89785  0.99087  1.0000
  H   H2222     1.0  0.87174  0.79967  0.16948  1.0000
  N   N124      1.0  0.96843  0.99044  0.18959  1.0000
  C   C1836     1.0  0.81613  0.92870  0.16699  1.0000
  C   C1837     1.0  0.91175  0.88642  0.08084  1.0000
  H   H2223     1.0  0.99479  0.96478  0.19854  1.0000
  H   H2224     1.0  0.79476  0.92815  0.06339  1.0000
  H   H2225     1.0  0.80016  0.88674  0.15312  1.0000
  C   C1838     1.0  0.90927  0.92957  0.09765  1.0000
  H   H2226     1.0  0.62315  0.93986  0.01843  1.0000
  H   H2227     1.0  0.74703  0.84223  0.05922  1.0000
  H   H2228     1.0  0.94757  0.99802  0.09407  1.0000
  H   H2229     1.0  0.90545  0.70388  0.01197  1.0000
  H   H2230     1.0  0.95528  0.74855  0.09286  1.0000
  C   C1839     1.0  0.75311  0.87357  0.06358  1.0000
  C   C1840     1.0  0.86601  0.87432  0.09326  1.0000
  C   C1841     1.0  0.79209  0.89264  0.17927  1.0000
  C   C1842     1.0  0.86080  0.00217  0.16615  1.0000
  H   H2231     1.0  0.77764  0.89934  0.17837  1.0000
  C   C1843     1.0  0.93860  0.92881  0.07800  1.0000
  H   H2232     1.0  0.82272  0.91049  0.14389  1.0000
  C   C1844     1.0  0.59135  0.91334  0.04247  1.0000
  C   C1845     1.0  0.58425  0.94691  0.04544  1.0000
  C   C1846     1.0  0.90153  0.90262  0.08463  1.0000
  C   C1847     1.0  0.57629  0.95740  0.01652  1.0000
  C   C1848     1.0  0.57991  0.93717  0.02342  1.0000
  H   H2233     1.0  0.83081  0.93929  0.15793  1.0000
  H   H2234     1.0  0.55249  0.90554  0.00567  1.0000
  H   H2235     1.0  0.57385  0.90266  0.02313  1.0000
  C   C1849     1.0  0.87663  0.85868  0.08993  1.0000
  H   H2236     1.0  0.93555  0.96862  0.19817  1.0000
  H   H2237     1.0  0.68651  0.88527  0.99980  1.0000
  H   H2238     1.0  0.98359  0.71565  0.00465  1.0000
  H   H2239     1.0  0.99780  0.76983  0.05682  1.0000
  H   H2240     1.0  0.90339  0.95419  0.23056  1.0000
  H   H2241     1.0  0.80605  0.97633  0.17400  1.0000
  C   C1850     1.0  0.93537  0.97538  0.13775  1.0000
  S   S491      1.0  0.80914  0.97612  0.14420  1.0000
  C   C1851     1.0  0.97757  0.69403  0.09006  1.0000
  C   C1852     1.0  0.98797  0.99689  0.19490  1.0000
  C   C1853     1.0  0.85339  0.69415  0.01473  1.0000
  H   H2242     1.0  0.86329  0.70037  0.02168  1.0000
  H   H2243     1.0  0.98397  0.78520  0.06683  1.0000
  N   N125      1.0  0.84151  0.67052  0.02126  1.0000
  H   H2244     1.0  0.95796  0.78709  0.98758  1.0000
  C   C1854     1.0  0.85095  0.99670  0.14431  1.0000
  H   H2245     1.0  0.94027  0.97963  0.12562  1.0000
  H   H2246     1.0  0.91528  0.67590  0.02837  1.0000
  H   H2247     1.0  0.75743  0.00051  0.03285  1.0000
  H   H2248     1.0  0.71449  0.99698  0.07782  1.0000
  H   H2249     1.0  0.81288  0.67616  0.03434  1.0000
  H   H2250     1.0  0.97510  0.74576  0.01039  1.0000
  H   H2251     1.0  0.97152  0.77430  0.09291  1.0000
  C   C1855     1.0  0.99519  0.97205  0.13123  1.0000
  C   C1856     1.0  0.98419  0.75982  0.00118  1.0000
  H   H2252     1.0  0.83445  0.69195  0.99472  1.0000
  C   C1857     1.0  0.99911  0.72044  0.03094  1.0000
  H   H2253     1.0  0.62150  0.85473  0.99193  1.0000
  H   H2254     1.0  0.70821  0.98505  0.04278  1.0000
  H   H2255     1.0  0.83519  0.67559  0.04264  1.0000
  H   H2256     1.0  0.99291  0.94134  0.14641  1.0000
  C   C1858     1.0  0.00055  0.79914  0.99301  1.0000
  C   C1859     1.0  0.99105  0.75815  0.98676  1.0000
  C   C1860     1.0  0.73234  0.00220  0.07437  1.0000
  C   C1861     1.0  0.74323  0.00232  0.08526  1.0000
  S   S492      1.0  0.74571  0.94003  0.98604  1.0000
  H   H2257     1.0  0.74206  0.98370  0.98598  1.0000
  Fe  Fe245     1.0  0.88824  0.69688  0.29400  1.0000
  C   C1862     1.0  0.94074  0.77988  0.25218  1.0000
  S   S493      1.0  0.91902  0.72075  0.27813  1.0000
  S   S494      1.0  0.56627  0.91299  0.35050  1.0000
  H   H2258     1.0  0.88331  0.76912  0.28454  1.0000
  H   H2259     1.0  0.57609  0.00140  0.29453  1.0000
  H   H2260     1.0  0.61505  0.99381  0.37493  1.0000
  C   C1863     1.0  0.53084  0.96980  0.28079  1.0000
  H   H2261     1.0  0.51710  0.98606  0.32093  1.0000
  S   S495      1.0  0.88082  0.69785  0.31735  1.0000
  C   C1864     1.0  0.55619  0.88681  0.31736  1.0000
  C   C1865     1.0  0.79927  0.99714  0.25089  1.0000
  C   C1866     1.0  0.52948  0.96389  0.29570  1.0000
  S   S496      1.0  0.68980  0.97392  0.31435  1.0000
  H   H2262     1.0  0.83204  0.95019  0.27023  1.0000
  S   S497      1.0  0.86599  0.70621  0.28037  1.0000
  Fe  Fe246     1.0  0.89723  0.72812  0.26375  1.0000
  H   H2263     1.0  0.93168  0.76530  0.29817  1.0000
  H   H2264     1.0  0.87634  0.79940  0.31153  1.0000
  H   H2265     1.0  0.81160  0.67396  0.35316  1.0000
  N   N126      1.0  0.89846  0.76953  0.30210  1.0000
  H   H2266     1.0  0.92383  0.85838  0.28400  1.0000
  C   C1867     1.0  0.91607  0.76091  0.30708  1.0000
  H   H2267     1.0  0.63574  0.97698  0.35945  1.0000
  H   H2268     1.0  0.53833  0.87486  0.29765  1.0000
  S   S498      1.0  0.93212  0.91524  0.26819  1.0000
  C   C1868     1.0  0.54850  0.98683  0.27087  1.0000
  C   C1869     1.0  0.88920  0.91483  0.26960  1.0000
  Fe  Fe247     1.0  0.92149  0.69308  0.26829  1.0000
  C   C1870     1.0  0.89202  0.80669  0.30332  1.0000
  H   H2269     1.0  0.54945  0.99117  0.25936  1.0000
  C   C1871     1.0  0.87736  0.93484  0.24990  1.0000
  C   C1872     1.0  0.54617  0.99482  0.38933  1.0000
  S   S499      1.0  0.74554  0.97602  0.28623  1.0000
  S   S500      1.0  0.85595  0.94234  0.24328  1.0000
  N   N127      1.0  0.60683  0.98711  0.35585  1.0000
  C   C1873     1.0  0.87226  0.92039  0.26390  1.0000
  C   C1874     1.0  0.53988  0.97262  0.38988  1.0000
  H   H2270     1.0  0.54721  0.96110  0.39569  1.0000
  C   C1875     1.0  0.54455  0.91444  0.30248  1.0000
  H   H2271     1.0  0.85521  0.91378  0.27043  1.0000
  C   C1876     1.0  0.91119  0.92279  0.26103  1.0000
  H   H2272     1.0  0.87346  0.74151  0.31760  1.0000
  Fe  Fe248     1.0  0.72138  0.99264  0.29669  1.0000
  H   H2273     1.0  0.52719  0.90456  0.30820  1.0000
  Fe  Fe249     1.0  0.53172  0.91606  0.35146  1.0000
  C   C1877     1.0  0.58340  0.91460  0.29571  1.0000
  C   C1878     1.0  0.95899  0.79717  0.25079  1.0000
  H   H2274     1.0  0.77526  0.96647  0.26350  1.0000
  C   C1879     1.0  0.89876  0.82968  0.29848  1.0000
  H   H2275     1.0  0.54411  0.92326  0.29146  1.0000
  C   C1880     1.0  0.92057  0.78416  0.25122  1.0000
  C   C1881     1.0  0.58687  0.93206  0.33540  1.0000
  C   C1882     1.0  0.60923  0.93497  0.33498  1.0000
  C   C1883     1.0  0.62572  0.95076  0.32328  1.0000
  C   C1884     1.0  0.61994  0.96350  0.31186  1.0000
  C   C1885     1.0  0.59766  0.96010  0.31207  1.0000
  C   C1886     1.0  0.58119  0.94455  0.32384  1.0000
  H   H2276     1.0  0.61380  0.92524  0.34382  1.0000
  H   H2277     1.0  0.64289  0.95300  0.32312  1.0000
  H   H2278     1.0  0.59310  0.96961  0.30315  1.0000
  H   H2279     1.0  0.56415  0.94215  0.32389  1.0000
  C   C1887     1.0  0.93199  0.82850  0.28195  1.0000
  S   S501      1.0  0.95230  0.68260  0.26191  1.0000
  S   S502      1.0  0.90242  0.70242  0.25230  1.0000
  C   C1888     1.0  0.96684  0.99598  0.26385  1.0000
  C   C1889     1.0  0.60062  0.91208  0.30241  1.0000
  C   C1890     1.0  0.95724  0.81883  0.24836  1.0000
  H   H2280     1.0  0.83153  0.97616  0.25940  1.0000
  C   C1891     1.0  0.52416  0.96523  0.38294  1.0000
  H   H2281     1.0  0.54579  0.97049  0.31189  1.0000
  C   C1892     1.0  0.56464  0.99856  0.27581  1.0000
  C   C1893     1.0  0.56341  0.99270  0.29070  1.0000
  H   H2282     1.0  0.59841  0.95654  0.37288  1.0000
  S   S503      1.0  0.52752  0.94872  0.34110  1.0000
  C   C1894     1.0  0.62758  0.94086  0.28238  1.0000
  H   H2283     1.0  0.99542  0.96523  0.24722  1.0000
  H   H2284     1.0  0.59773  0.90065  0.31298  1.0000
  C   C1895     1.0  0.87085  0.97121  0.27421  1.0000
  H   H2285     1.0  0.54869  0.92702  0.30819  1.0000
  C   C1896     1.0  0.54613  0.97512  0.30057  1.0000
  H   H2286     1.0  0.56613  0.87464  0.31792  1.0000
  S   S504      1.0  0.64015  0.98363  0.29717  1.0000
  Fe  Fe250     1.0  0.95766  0.90951  0.25092  1.0000
  H   H2287     1.0  0.91064  0.76558  0.28078  1.0000
  C   C1897     1.0  0.95317  0.68045  0.29006  1.0000
  C   C1898     1.0  0.82557  0.95919  0.29583  1.0000
  C   C1899     1.0  0.62235  0.92500  0.29574  1.0000
  H   H2288     1.0  0.88821  0.74343  0.29274  1.0000
  C   C1900     1.0  0.82033  0.67768  0.33007  1.0000
  H   H2289     1.0  0.94204  0.69084  0.29010  1.0000
  S   S505      1.0  0.50644  0.94276  0.30776  1.0000
  C   C1901     1.0  0.96580  0.98916  0.24080  1.0000
  H   H2290     1.0  0.58928  0.95449  0.35704  1.0000
  H   H2291     1.0  0.97454  0.79376  0.25161  1.0000
  C   C1902     1.0  0.59179  0.96516  0.36429  1.0000
  C   C1903     1.0  0.98379  0.96866  0.25611  1.0000
  C   C1904     1.0  0.91870  0.84055  0.28782  1.0000
  C   C1905     1.0  0.96083  0.67410  0.27756  1.0000
  S   S506      1.0  0.98629  0.89760  0.25601  1.0000
  H   H2292     1.0  0.64433  0.95129  0.27758  1.0000
  C   C1906     1.0  0.89498  0.76159  0.28953  1.0000
  C   C1907     1.0  0.58941  0.93071  0.28196  1.0000
  H   H2293     1.0  0.53859  0.87709  0.32213  1.0000
  H   H2294     1.0  0.83041  0.69442  0.32728  1.0000
  S   S507      1.0  0.89731  0.76289  0.25301  1.0000
  H   H2295     1.0  0.96874  0.95468  0.25960  1.0000
  H   H2296     1.0  0.92000  0.76733  0.31609  1.0000
  C   C1908     1.0  0.91878  0.80577  0.24881  1.0000
  H   H2297     1.0  0.50377  0.83770  0.41863  1.0000
  C   C1909     1.0  0.87768  0.75983  0.31420  1.0000
  H   H2298     1.0  0.94746  0.83704  0.27359  1.0000
  H   H2299     1.0  0.87918  0.76508  0.32407  1.0000
  C   C1910     1.0  0.92533  0.80553  0.28656  1.0000
  H   H2300     1.0  0.87031  0.68968  0.34812  1.0000
  H   H2301     1.0  0.88843  0.83920  0.30293  1.0000
  C   C1911     1.0  0.76781  0.99329  0.27135  1.0000
  C   C1912     1.0  0.91629  0.93677  0.24686  1.0000
  H   H2302     1.0  0.57519  0.96609  0.36994  1.0000
  C   C1913     1.0  0.93629  0.98540  0.28633  1.0000
  H   H2303     1.0  0.91109  0.74260  0.31110  1.0000
  C   C1914     1.0  0.86962  0.67300  0.33151  1.0000
  H   H2304     1.0  0.86332  0.76424  0.31085  1.0000
  H   H2305     1.0  0.64666  0.99307  0.26275  1.0000
  H   H2306     1.0  0.88523  0.90391  0.28051  1.0000
  Fe  Fe251     1.0  0.97881  0.87542  0.24198  1.0000
  C   C1915     1.0  0.90522  0.79387  0.29750  1.0000
  H   H2307     1.0  0.62906  0.97288  0.34345  1.0000
  Fe  Fe252     1.0  0.87326  0.67975  0.27027  1.0000
  H   H2308     1.0  0.83277  0.94505  0.29558  1.0000
  C   C1916     1.0  0.55546  0.88587  0.29310  1.0000
  C   C1917     1.0  0.89381  0.97969  0.26898  1.0000
  H   H2309     1.0  0.61518  0.95632  0.26521  1.0000
  H   H2310     1.0  0.93597  0.79702  0.28130  1.0000
  H   H2311     1.0  0.80881  0.98979  0.24382  1.0000
  H   H2312     1.0  0.55689  0.89521  0.28174  1.0000
  N   N128      1.0  0.56036  0.90065  0.30216  1.0000
  S   S508      1.0  0.68612  0.99630  0.34825  1.0000
  N   N129      1.0  0.83234  0.97566  0.28132  1.0000
  H   H2313     1.0  0.80724  0.95232  0.29980  1.0000
  C   C1918     1.0  0.51409  0.97988  0.37585  1.0000
  S   S509      1.0  0.94851  0.88549  0.23861  1.0000
  H   H2314     1.0  0.90413  0.96894  0.26657  1.0000
  H   H2315     1.0  0.86422  0.95388  0.27585  1.0000
  C   C1919     1.0  0.86572  0.67402  0.34593  1.0000
  H   H2316     1.0  0.92225  0.97306  0.29429  1.0000
  C   C1920     1.0  0.61114  0.94376  0.27551  1.0000
  S   S510      1.0  0.51003  0.89701  0.34097  1.0000
  C   C1921     1.0  0.78025  0.98397  0.26202  1.0000
  S   S511      1.0  0.98029  0.83997  0.24724  1.0000
  H   H2317     1.0  0.93321  0.94278  0.24014  1.0000
  H   H2318     1.0  0.90318  0.80918  0.24817  1.0000
  H   H2319     1.0  0.55994  0.89708  0.32468  1.0000
  H   H2320     1.0  0.51817  0.96119  0.27689  1.0000
  C   C1922     1.0  0.59778  0.99725  0.34412  1.0000
  H   H2321     1.0  0.82872  0.67657  0.30811  1.0000
  H   H2322     1.0  0.94237  0.76329  0.25392  1.0000
  C   C1923     1.0  0.89941  0.94321  0.24142  1.0000
  H   H2323     1.0  0.62477  0.99944  0.32518  1.0000
  H   H2324     1.0  0.94263  0.96389  0.27344  1.0000
  C   C1924     1.0  0.94823  0.98026  0.27439  1.0000
  C   C1925     1.0  0.93706  0.82305  0.24733  1.0000
  H   H2325     1.0  0.65553  0.99977  0.37329  1.0000
  C   C1926     1.0  0.51475  0.99878  0.32654  1.0000
  H   H2326     1.0  0.57736  0.93347  0.27610  1.0000
  C   C1927     1.0  0.62918  0.98422  0.35038  1.0000
  H   H2327     1.0  0.80722  0.95859  0.27329  1.0000
  Fe  Fe253     1.0  0.67341  0.99465  0.30102  1.0000
  H   H2328     1.0  0.83093  0.96665  0.30409  1.0000
  Fe  Fe254     1.0  0.50442  0.92981  0.33161  1.0000
  C   C1928     1.0  0.96018  0.67359  0.30252  1.0000
  C   C1929     1.0  0.82553  0.96469  0.27065  1.0000
  H   H2329     1.0  0.56715  0.87537  0.29242  1.0000
  H   H2330     1.0  0.63511  0.92330  0.30124  1.0000
  H   H2331     1.0  0.56715  0.99773  0.35892  1.0000
  H   H2332     1.0  0.51516  0.99211  0.33797  1.0000
  H   H2333     1.0  0.80162  0.98510  0.28553  1.0000
  N   N130      1.0  0.97924  0.99030  0.25124  1.0000
  H   H2334     1.0  0.51936  0.94805  0.38348  1.0000
  H   H2335     1.0  0.95448  0.67880  0.31209  1.0000
  H   H2336     1.0  0.94965  0.97656  0.24589  1.0000
  H   H2337     1.0  0.64146  0.00015  0.34402  1.0000
  H   H2338     1.0  0.93536  0.83954  0.24564  1.0000
  S   S512      1.0  0.50451  0.91008  0.37189  1.0000
  C   C1930     1.0  0.81986  0.99242  0.28244  1.0000
  H   H2339     1.0  0.99131  0.96796  0.26537  1.0000
  C   C1931     1.0  0.85667  0.98492  0.27671  1.0000
  C   C1932     1.0  0.60853  0.00105  0.36585  1.0000
  C   C1933     1.0  0.57686  0.00174  0.34770  1.0000
  H   H2340     1.0  0.82303  0.00053  0.29091  1.0000
  C   C1934     1.0  0.52036  0.00214  0.37527  1.0000
  Fe  Fe255     1.0  0.69648  0.00221  0.32387  1.0000
  C   C1935     1.0  0.90338  0.00198  0.26647  1.0000
  C   C1936     1.0  0.60898  0.00262  0.32902  1.0000
  Fe  Fe256     1.0  0.83365  0.95792  0.72034  1.0000
  S   S513      1.0  0.83798  0.92625  0.71611  1.0000
  S   S514      1.0  0.80160  0.96263  0.73189  1.0000
  C   C1937     1.0  0.56212  0.94714  0.62745  1.0000
  H   H2341     1.0  0.89929  0.69909  0.60724  1.0000
  S   S515      1.0  0.94418  0.89329  0.71299  1.0000
  H   H2342     1.0  0.65635  0.99497  0.60563  1.0000
  Fe  Fe257     1.0  0.96203  0.86758  0.71918  1.0000
  S   S516      1.0  0.96807  0.83932  0.70997  1.0000
  H   H2343     1.0  0.71963  0.91027  0.68038  1.0000
  H   H2344     1.0  0.51788  0.96705  0.70265  1.0000
  Fe  Fe258     1.0  0.57079  0.88325  0.58051  1.0000
  S   S517      1.0  0.55603  0.91051  0.58384  1.0000
  S   S518      1.0  0.59857  0.87614  0.59036  1.0000
  Fe  Fe259     1.0  0.53913  0.86948  0.56193  1.0000
  H   H2345     1.0  0.76947  0.92595  0.72447  1.0000
  H   H2346     1.0  0.66386  0.98320  0.62935  1.0000
  Fe  Fe260     1.0  0.55724  0.91743  0.56021  1.0000
  S   S519      1.0  0.57132  0.95270  0.54677  1.0000
  Fe  Fe261     1.0  0.52349  0.88680  0.58735  1.0000
  C   C1938     1.0  0.59325  0.96015  0.59951  1.0000
  S   S520      1.0  0.57399  0.89121  0.55632  1.0000
  S   S521      1.0  0.53784  0.85861  0.58576  1.0000
  S   S522      1.0  0.66023  0.00128  0.65379  1.0000
  C   C1939     1.0  0.51299  0.82608  0.62785  1.0000
  S   S523      1.0  0.52892  0.92203  0.68612  1.0000
  C   C1940     1.0  0.93608  0.97106  0.72904  1.0000
  Fe  Fe262     1.0  0.52010  0.89569  0.67557  1.0000
  H   H2347     1.0  0.87007  0.90239  0.70924  1.0000
  Fe  Fe263     1.0  0.51928  0.89450  0.70672  1.0000
  H   H2348     1.0  0.98759  0.67372  0.59438  1.0000
  C   C1941     1.0  0.96129  0.67328  0.61975  1.0000
  S   S524      1.0  0.54334  0.89488  0.65519  1.0000
  H   H2349     1.0  0.56357  0.95425  0.59199  1.0000
  Fe  Fe264     1.0  0.70460  0.94669  0.65873  1.0000
  S   S525      1.0  0.67936  0.95401  0.67528  1.0000
  S   S526      1.0  0.74084  0.95394  0.65888  1.0000
  Fe  Fe265     1.0  0.66964  0.93145  0.64267  1.0000
  S   S527      1.0  0.64250  0.93815  0.65828  1.0000
  S   S528      1.0  0.66338  0.91612  0.62458  1.0000
  Fe  Fe266     1.0  0.66801  0.96876  0.65618  1.0000
  H   H2350     1.0  0.79011  0.93567  0.68418  1.0000
  Fe  Fe267     1.0  0.65688  0.92259  0.67559  1.0000
  S   S529      1.0  0.63864  0.89763  0.69709  1.0000
  S   S530      1.0  0.69462  0.96346  0.63933  1.0000
  S   S531      1.0  0.68274  0.91383  0.66027  1.0000
  Fe  Fe268     1.0  0.93566  0.71272  0.67725  1.0000
  S   S532      1.0  0.90747  0.72580  0.67284  1.0000
  C   C1942     1.0  0.51640  0.81480  0.53964  1.0000
  Fe  Fe269     1.0  0.96702  0.73984  0.64801  1.0000
  S   S533      1.0  0.94133  0.75536  0.64124  1.0000
  Fe  Fe270     1.0  0.80921  0.99204  0.71247  1.0000
  Fe  Fe271     1.0  0.93280  0.75871  0.66414  1.0000
  S   S534      1.0  0.92443  0.78874  0.67007  1.0000
  Fe  Fe272     1.0  0.91882  0.72089  0.65071  1.0000
  C   C1943     1.0  0.86034  0.67092  0.64332  1.0000
  S   S535      1.0  0.96025  0.74565  0.67012  1.0000
  S   S536      1.0  0.94525  0.70536  0.65583  1.0000
  C   C1944     1.0  0.71122  0.90103  0.71692  1.0000
  H   H2351     1.0  0.61031  0.96358  0.67230  1.0000
  C   C1945     1.0  0.90531  0.76232  0.71884  1.0000
  C   C1946     1.0  0.77912  0.93075  0.71282  1.0000
  H   H2352     1.0  0.55019  0.94205  0.63811  1.0000
  H   H2353     1.0  0.80807  0.92270  0.69241  1.0000
  H   H2354     1.0  0.79431  0.89486  0.71531  1.0000
  H   H2355     1.0  0.93672  0.69797  0.60744  1.0000
  H   H2356     1.0  0.98183  0.90742  0.68562  1.0000
  H   H2357     1.0  0.92812  0.95053  0.70076  1.0000
  C   C1947     1.0  0.92151  0.74062  0.70455  1.0000
  C   C1948     1.0  0.52973  0.84010  0.52763  1.0000
  H   H2358     1.0  0.91959  0.93509  0.71929  1.0000
  C   C1949     1.0  0.95719  0.68340  0.69781  1.0000
  H   H2359     1.0  0.59024  0.95317  0.63582  1.0000
  H   H2360     1.0  0.61594  0.99443  0.68201  1.0000
  C   C1950     1.0  0.57267  0.97465  0.68535  1.0000
  H   H2361     1.0  0.54380  0.84187  0.51866  1.0000
  C   C1951     1.0  0.51499  0.97317  0.66257  1.0000
  H   H2362     1.0  0.70376  0.99685  0.65492  1.0000
  C   C1952     1.0  0.55485  0.94736  0.61505  1.0000
  H   H2363     1.0  0.63798  0.98443  0.58944  1.0000
  H   H2364     1.0  0.56897  0.98787  0.65733  1.0000
  C   C1953     1.0  0.56574  0.89275  0.71595  1.0000
  C   C1954     1.0  0.57621  0.90390  0.70120  1.0000
  C   C1955     1.0  0.59882  0.90610  0.69538  1.0000
  C   C1956     1.0  0.61073  0.89643  0.70418  1.0000
  C   C1957     1.0  0.60014  0.88506  0.71885  1.0000
  C   C1958     1.0  0.79090  0.91994  0.69125  1.0000
  H   H2365     1.0  0.56702  0.91120  0.69435  1.0000
  H   H2366     1.0  0.60693  0.91507  0.68412  1.0000
  H   H2367     1.0  0.89864  0.96969  0.70932  1.0000
  H   H2368     1.0  0.59388  0.95810  0.69588  1.0000
  C   C1959     1.0  0.57011  0.95388  0.60128  1.0000
  C   C1960     1.0  0.63249  0.97081  0.58483  1.0000
  H   H2369     1.0  0.88222  0.77800  0.70959  1.0000
  H   H2370     1.0  0.63517  0.95545  0.59117  1.0000
  C   C1961     1.0  0.56132  0.97022  0.55622  1.0000
  C   C1962     1.0  0.54267  0.96184  0.56833  1.0000
  H   H2371     1.0  0.88918  0.75448  0.69580  1.0000
  C   C1963     1.0  0.53520  0.97577  0.57615  1.0000
  S   S537      1.0  0.52281  0.89658  0.56403  1.0000
  H   H2372     1.0  0.77300  0.87902  0.70967  1.0000
  H   H2373     1.0  0.53382  0.94466  0.57159  1.0000
  H   H2374     1.0  0.58688  0.99908  0.54257  1.0000
  H   H2375     1.0  0.64383  0.97541  0.57361  1.0000
  C   C1964     1.0  0.50222  0.99499  0.67794  1.0000
  H   H2376     1.0  0.76620  0.88753  0.72593  1.0000
  C   C1965     1.0  0.53082  0.89386  0.64108  1.0000
  C   C1966     1.0  0.54020  0.88583  0.62983  1.0000
  C   C1967     1.0  0.52927  0.88266  0.61933  1.0000
  H   H2377     1.0  0.55577  0.88180  0.62927  1.0000
  H   H2378     1.0  0.53635  0.87573  0.61100  1.0000
  C   C1968     1.0  0.61622  0.89062  0.59884  1.0000
  C   C1969     1.0  0.60990  0.90411  0.60752  1.0000
  C   C1970     1.0  0.62418  0.91275  0.61530  1.0000
  C   C1971     1.0  0.64473  0.90783  0.61448  1.0000
  C   C1972     1.0  0.65105  0.89509  0.60538  1.0000
  C   C1973     1.0  0.63697  0.88650  0.59777  1.0000
  H   H2379     1.0  0.59380  0.90724  0.60864  1.0000
  H   H2380     1.0  0.61916  0.92298  0.62196  1.0000
  H   H2381     1.0  0.66683  0.89127  0.60449  1.0000
  H   H2382     1.0  0.64208  0.87612  0.59120  1.0000
  C   C1974     1.0  0.95590  0.82610  0.69853  1.0000
  C   C1975     1.0  0.96329  0.80845  0.69512  1.0000
  C   C1976     1.0  0.95406  0.79710  0.68629  1.0000
  C   C1977     1.0  0.93705  0.80306  0.68089  1.0000
  C   C1978     1.0  0.92979  0.82088  0.68417  1.0000
  C   C1979     1.0  0.93921  0.83242  0.69291  1.0000
  H   H2383     1.0  0.79686  0.93507  0.71265  1.0000
  H   H2384     1.0  0.96029  0.78387  0.68357  1.0000
  H   H2385     1.0  0.91672  0.82570  0.67999  1.0000
  H   H2386     1.0  0.93328  0.84590  0.69547  1.0000
  H   H2387     1.0  0.60930  0.87758  0.72568  1.0000
  H   H2388     1.0  0.68936  0.90092  0.70307  1.0000
  C   C1980     1.0  0.77421  0.97020  0.67018  1.0000
  C   C1981     1.0  0.75123  0.96419  0.67215  1.0000
  C   C1982     1.0  0.73729  0.96708  0.68430  1.0000
  Fe  Fe273     1.0  0.97474  0.91761  0.71298  1.0000
  H   H2389     1.0  0.96854  0.88789  0.65382  1.0000
  H   H2390     1.0  0.78518  0.96804  0.66083  1.0000
  H   H2391     1.0  0.71956  0.96213  0.68619  1.0000
  C   C1983     1.0  0.88408  0.89709  0.72746  1.0000
  H   H2392     1.0  0.90253  0.98517  0.72201  1.0000
  H   H2393     1.0  0.85046  0.68258  0.64299  1.0000
  H   H2394     1.0  0.52715  0.94179  0.72206  1.0000
  H   H2395     1.0  0.96576  0.89943  0.67412  1.0000
  C   C1984     1.0  0.86979  0.90486  0.71983  1.0000
  H   H2396     1.0  0.93516  0.74060  0.70979  1.0000
  C   C1985     1.0  0.92551  0.78488  0.73129  1.0000
  H   H2397     1.0  0.89518  0.88846  0.72281  1.0000
  H   H2398     1.0  0.62047  0.88284  0.67537  1.0000
  H   H2399     1.0  0.97161  0.82518  0.64820  1.0000
  N   N131      1.0  0.99747  0.89174  0.67062  1.0000
  N   N132      1.0  0.60901  0.96774  0.58471  1.0000
  H   H2400     1.0  0.73607  0.90243  0.72814  1.0000
  H   H2401     1.0  0.97809  0.72924  0.59362  1.0000
  C   C1986     1.0  0.89405  0.77885  0.71588  1.0000
  H   H2402     1.0  0.53117  0.87889  0.52304  1.0000
  H   H2403     1.0  0.52064  0.96924  0.58544  1.0000
  H   H2404     1.0  0.92744  0.75460  0.69445  1.0000
  C   C1987     1.0  0.99654  0.69924  0.69291  1.0000
  H   H2405     1.0  0.58858  0.95148  0.57333  1.0000
  C   C1988     1.0  0.00010  0.67843  0.69429  1.0000
  N   N133      1.0  0.77410  0.91326  0.70566  1.0000
  H   H2406     1.0  0.61254  0.97937  0.65449  1.0000
  C   C1989     1.0  0.97740  0.83880  0.65233  1.0000
  H   H2407     1.0  0.94840  0.94861  0.71070  1.0000
  C   C1990     1.0  0.57779  0.88351  0.72478  1.0000
  H   H2408     1.0  0.96331  0.69124  0.61640  1.0000
  C   C1991     1.0  0.72344  0.90835  0.69079  1.0000
  C   C1992     1.0  0.97025  0.67370  0.59441  1.0000
  H   H2409     1.0  0.54554  0.98762  0.67993  1.0000
  C   C1993     1.0  0.60011  0.95998  0.61239  1.0000
  C   C1994     1.0  0.57247  0.99259  0.55194  1.0000
  S   S538      1.0  0.51412  0.86825  0.69563  1.0000
  H   H2410     1.0  0.86768  0.74107  0.71286  1.0000
  H   H2411     1.0  0.61730  0.96495  0.61213  1.0000
  H   H2412     1.0  0.60331  0.93480  0.58268  1.0000
  C   C1995     1.0  0.57752  0.96048  0.69690  1.0000
  C   C1996     1.0  0.58469  0.95339  0.62613  1.0000
  C   C1997     1.0  0.74629  0.97681  0.69395  1.0000
  C   C1998     1.0  0.52196  0.86284  0.53032  1.0000
  S   S539      1.0  0.52602  0.84111  0.55310  1.0000
  H   H2413     1.0  0.53726  0.94248  0.61609  1.0000
  C   C1999     1.0  0.92120  0.76596  0.72670  1.0000
  H   H2414     1.0  0.73536  0.97953  0.70308  1.0000
  S   S540      1.0  0.89425  0.70627  0.63980  1.0000
  C   C2000     1.0  0.56127  0.94892  0.71000  1.0000
  H   H2415     1.0  0.58932  0.98770  0.57614  1.0000
  C   C2001     1.0  0.99159  0.73180  0.59852  1.0000
  H   H2416     1.0  0.91883  0.72532  0.70113  1.0000
  H   H2417     1.0  0.88986  0.81019  0.71809  1.0000
  H   H2418     1.0  0.93667  0.98796  0.69287  1.0000
  H   H2419     1.0  0.91783  0.81551  0.73162  1.0000
  C   C2002     1.0  0.99675  0.97779  0.71140  1.0000
  C   C2003     1.0  0.88267  0.67784  0.64275  1.0000
  C   C2004     1.0  0.55078  0.97705  0.68794  1.0000
  H   H2420     1.0  0.77553  0.94600  0.70723  1.0000
  H   H2421     1.0  0.96997  0.69113  0.59063  1.0000
  C   C2005     1.0  0.70637  0.90315  0.70356  1.0000
  H   H2422     1.0  0.61763  0.99540  0.56553  1.0000
  H   H2423     1.0  0.69787  0.89707  0.72683  1.0000
  C   C2006     1.0  0.96893  0.85700  0.65005  1.0000
  C   C2007     1.0  0.99272  0.83775  0.66038  1.0000
  H   H2424     1.0  0.80094  0.98438  0.67822  1.0000
  C   C2008     1.0  0.90510  0.97018  0.71894  1.0000
  C   C2009     1.0  0.60191  0.89728  0.65426  1.0000
  C   C2010     1.0  0.58199  0.99903  0.66006  1.0000
  H   H2425     1.0  0.61709  0.95584  0.56576  1.0000
  N   N134      1.0  0.60211  0.87430  0.66049  1.0000
  C   C2011     1.0  0.58196  0.86341  0.67296  1.0000
  C   C2012     1.0  0.62158  0.87487  0.66640  1.0000
  C   C2013     1.0  0.60245  0.86289  0.64898  1.0000
  C   C2014     1.0  0.58389  0.85883  0.64340  1.0000
  C   C2015     1.0  0.62139  0.85683  0.64234  1.0000
  C   C2016     1.0  0.58434  0.84963  0.63179  1.0000
  C   C2017     1.0  0.62148  0.84720  0.63093  1.0000
  C   C2018     1.0  0.60306  0.84374  0.62561  1.0000
  H   H2426     1.0  0.58027  0.84551  0.67697  1.0000
  H   H2427     1.0  0.58229  0.87041  0.68232  1.0000
  H   H2428     1.0  0.56659  0.86559  0.67008  1.0000
  H   H2429     1.0  0.62305  0.85805  0.67093  1.0000
  H   H2430     1.0  0.63729  0.88467  0.65793  1.0000
  H   H2431     1.0  0.63664  0.86008  0.64537  1.0000
  H   H2432     1.0  0.57054  0.84805  0.62707  1.0000
  H   H2433     1.0  0.63634  0.84343  0.62566  1.0000
  H   H2434     1.0  0.60367  0.83750  0.61619  1.0000
  N   N135      1.0  0.90093  0.74201  0.71423  1.0000
  C   C2019     1.0  0.97512  0.70175  0.69450  1.0000
  H   H2435     1.0  0.53713  0.80324  0.65275  1.0000
  H   H2436     1.0  0.58865  0.89836  0.64873  1.0000
  H   H2437     1.0  0.58785  0.95758  0.66436  1.0000
  S   S541      1.0  0.85356  0.97698  0.73167  1.0000
  C   C2020     1.0  0.78320  0.97942  0.68004  1.0000
  H   H2438     1.0  0.97630  0.80355  0.69933  1.0000
  C   C2021     1.0  0.88390  0.74074  0.70612  1.0000
  H   H2439     1.0  0.93067  0.75434  0.72918  1.0000
  H   H2440     1.0  0.54111  0.81274  0.62617  1.0000
  H   H2441     1.0  0.78881  0.90712  0.68544  1.0000
  S   S542      1.0  0.99084  0.94876  0.69450  1.0000
  H   H2442     1.0  0.56518  0.93775  0.71853  1.0000
  H   H2443     1.0  0.90017  0.67331  0.67919  1.0000
  C   C2022     1.0  0.92553  0.68308  0.60748  1.0000
  C   C2023     1.0  0.54662  0.99800  0.57210  1.0000
  H   H2444     1.0  0.99699  0.91736  0.65224  1.0000
  H   H2445     1.0  0.56922  0.86369  0.64755  1.0000
  H   H2446     1.0  0.95670  0.85751  0.64399  1.0000
  H   H2447     1.0  0.59918  0.90591  0.66281  1.0000
  C   C2024     1.0  0.52980  0.99240  0.65231  1.0000
  C   C2025     1.0  0.53465  0.96541  0.70109  1.0000
  S   S543      1.0  0.84042  0.98613  0.70046  1.0000
  C   C2026     1.0  0.53983  0.95122  0.71204  1.0000
  H   H2448     1.0  0.97238  0.73898  0.61707  1.0000
  H   H2449     1.0  0.97249  0.71793  0.69313  1.0000
  C   C2027     1.0  0.99939  0.85471  0.66640  1.0000
  C   C2028     1.0  0.75100  0.90973  0.70470  1.0000
  C   C2029     1.0  0.60427  0.95174  0.57636  1.0000
  H   H2450     1.0  0.95949  0.99138  0.70071  1.0000
  H   H2451     1.0  0.61010  0.00163  0.58268  1.0000
  C   C2030     1.0  0.97750  0.89448  0.68017  1.0000
  H   H2452     1.0  0.90603  0.72104  0.73313  1.0000
  H   H2453     1.0  0.54038  0.99136  0.64240  1.0000
  N   N136      1.0  0.59019  0.98668  0.67157  1.0000
  C   C2031     1.0  0.74546  0.91167  0.69125  1.0000
  H   H2454     1.0  0.96840  0.87885  0.68883  1.0000
  C   C2032     1.0  0.60650  0.98906  0.57687  1.0000
  N   N137      1.0  0.92873  0.97040  0.71578  1.0000
  C   C2033     1.0  0.73315  0.90417  0.71753  1.0000
  S   S544      1.0  0.99335  0.89230  0.71744  1.0000
  C   C2034     1.0  0.94134  0.98955  0.70295  1.0000
  H   H2455     1.0  0.61780  0.90662  0.64592  1.0000
  C   C2035     1.0  0.77696  0.89275  0.71452  1.0000
  H   H2456     1.0  0.99882  0.82327  0.66242  1.0000
  C   C2036     1.0  0.76928  0.98308  0.69188  1.0000
  H   H2457     1.0  0.51408  0.95739  0.66048  1.0000
  C   C2037     1.0  0.93135  0.95032  0.71149  1.0000
  H   H2458     1.0  0.87819  0.72330  0.73510  1.0000
  S   S545      1.0  0.93092  0.68698  0.69805  1.0000
  C   C2038     1.0  0.94872  0.99061  0.73062  1.0000
  C   C2039     1.0  0.85534  0.91602  0.72583  1.0000
  C   C2040     1.0  0.52773  0.81610  0.63347  1.0000
  H   H2459     1.0  0.75777  0.91622  0.68085  1.0000
  C   C2041     1.0  0.52546  0.81079  0.64843  1.0000
  C   C2042     1.0  0.60060  0.97108  0.66546  1.0000
  S   S546      1.0  0.53772  0.89040  0.72365  1.0000
  H   H2460     1.0  0.52214  0.80070  0.53822  1.0000
  C   C2043     1.0  0.98834  0.73733  0.61176  1.0000
  S   S547      1.0  0.77992  0.99697  0.70359  1.0000
  H   H2461     1.0  0.88914  0.70696  0.72418  1.0000
  C   C2044     1.0  0.97571  0.87421  0.65583  1.0000
  C   C2045     1.0  0.99103  0.87353  0.66431  1.0000
  C   C2046     1.0  0.91400  0.80059  0.72837  1.0000
  H   H2462     1.0  0.50437  0.90724  0.64948  1.0000
  H   H2463     1.0  0.72191  0.99543  0.66619  1.0000
  H   H2464     1.0  0.98349  0.96595  0.72019  1.0000
  C   C2047     1.0  0.65775  0.99749  0.62691  1.0000
  H   H2465     1.0  0.75342  0.00157  0.64531  1.0000
  C   C2048     1.0  0.50913  0.88790  0.61982  1.0000
  H   H2466     1.0  0.88099  0.72529  0.70283  1.0000
  H   H2467     1.0  0.51505  0.83062  0.61618  1.0000
  C   C2049     1.0  0.51108  0.89991  0.64130  1.0000
  C   C2050     1.0  0.90417  0.68408  0.60702  1.0000
  C   C2051     1.0  0.89829  0.79757  0.72071  1.0000
  C   C2052     1.0  0.89322  0.72253  0.72725  1.0000
  H   H2468     1.0  0.89460  0.95570  0.72812  1.0000
  C   C2053     1.0  0.50836  0.81539  0.65781  1.0000
  H   H2469     1.0  0.50737  0.81120  0.66931  1.0000
  H   H2470     1.0  0.73635  0.00285  0.63335  1.0000
  C   C2054     1.0  0.60724  0.00265  0.67467  1.0000
  H   H2471     1.0  0.97767  0.67154  0.62108  1.0000
  Fe  Fe274     1.0  0.89887  0.72632  0.94720  1.0000
  S   S548      1.0  0.93141  0.72613  0.95175  1.0000
  S   S549      1.0  0.86840  0.70307  0.96403  1.0000
  Fe  Fe275     1.0  0.91971  0.76628  0.92006  1.0000
  S   S550      1.0  0.95379  0.76902  0.92274  1.0000
  S   S551      1.0  0.91399  0.79236  0.90271  1.0000
  Fe  Fe276     1.0  0.94406  0.73240  0.92760  1.0000
  Fe  Fe277     1.0  0.93738  0.76258  0.94648  1.0000
  S   S552      1.0  0.95188  0.78128  0.96031  1.0000
  S   S553      1.0  0.91095  0.72973  0.92323  1.0000
  S   S554      1.0  0.90385  0.76263  0.94362  1.0000
  H   H2472     1.0  0.95150  0.67592  0.94599  1.0000
  Fe  Fe278     1.0  0.97317  0.93927  0.85501  1.0000
  S   S555      1.0  0.95235  0.95499  0.86852  1.0000
  S   S556      1.0  0.96130  0.90631  0.85187  1.0000
  N   N138      1.0  0.95357  0.83890  0.92795  1.0000
  H   H2473     1.0  0.98982  0.99222  0.85818  1.0000
  S   S557      1.0  0.88332  0.97883  0.83500  1.0000
  C   C2055     1.0  0.95563  0.99064  0.74320  1.0000
  C   C2056     1.0  0.50674  0.79653  0.92565  1.0000
  C   C2057     1.0  0.71400  0.90752  0.96391  1.0000
  Fe  Fe279     1.0  0.52505  0.86517  0.95526  1.0000
  S   S558      1.0  0.53709  0.89827  0.93859  1.0000
  C   C2058     1.0  0.96485  0.84043  0.79802  1.0000
  H   H2474     1.0  0.96053  0.79379  0.89297  1.0000
  C   C2059     1.0  0.95042  0.97134  0.75448  1.0000
  C   C2060     1.0  0.76216  0.98267  0.94584  1.0000
  Fe  Fe280     1.0  0.70361  0.97432  0.92342  1.0000
  S   S559      1.0  0.68499  0.94110  0.93890  1.0000
  H   H2475     1.0  0.87621  0.00132  0.79455  1.0000
  H   H2476     1.0  0.62206  0.85142  0.96724  1.0000
  H   H2477     1.0  0.99496  0.68544  0.92483  1.0000
  Fe  Fe281     1.0  0.57095  0.89671  0.94031  1.0000
  S   S560      1.0  0.59975  0.90683  0.92040  1.0000
  S   S561      1.0  0.55958  0.86269  0.95572  1.0000
  H   H2478     1.0  0.97761  0.83515  0.79156  1.0000
  H   H2479     1.0  0.98607  0.86329  0.90143  1.0000
  S   S562      1.0  0.51851  0.93893  0.95915  1.0000
  Fe  Fe282     1.0  0.97877  0.88900  0.74108  1.0000
  C   C2061     1.0  0.66214  0.92964  0.93354  1.0000
  C   C2062     1.0  0.66273  0.93436  0.91878  1.0000
  C   C2063     1.0  0.64374  0.92645  0.91469  1.0000
  C   C2064     1.0  0.62414  0.91409  0.92539  1.0000
  C   C2065     1.0  0.62382  0.90869  0.94011  1.0000
  C   C2066     1.0  0.64284  0.91642  0.94418  1.0000
  H   H2480     1.0  0.67784  0.94400  0.91051  1.0000
  H   H2481     1.0  0.64415  0.93026  0.90327  1.0000
  H   H2482     1.0  0.60896  0.89846  0.94838  1.0000
  H   H2483     1.0  0.64243  0.91241  0.95560  1.0000
  H   H2484     1.0  0.94589  0.91516  0.78645  1.0000
  C   C2067     1.0  0.91393  0.75595  0.98121  1.0000
  H   H2485     1.0  0.93824  0.78774  0.73683  1.0000
  C   C2068     1.0  0.97505  0.84863  0.87545  1.0000
  H   H2486     1.0  0.56979  0.87493  0.73619  1.0000
  Fe  Fe283     1.0  0.97823  0.92280  0.82815  1.0000
  S   S563      1.0  0.96616  0.71273  0.91958  1.0000
  C   C2069     1.0  0.97075  0.86342  0.83507  1.0000
  H   H2487     1.0  0.90802  0.75184  0.97242  1.0000
  C   C2070     1.0  0.93825  0.89027  0.91028  1.0000
  H   H2488     1.0  0.76168  0.94902  0.95497  1.0000
  Fe  Fe284     1.0  0.99470  0.90251  0.85324  1.0000
  H   H2489     1.0  0.67074  0.96206  0.96392  1.0000
  S   S564      1.0  0.98683  0.95625  0.83116  1.0000
  S   S565      1.0  0.57118  0.91465  0.95742  1.0000
  H   H2490     1.0  0.60048  0.97023  0.89454  1.0000
  C   C2071     1.0  0.93258  0.96125  0.85965  1.0000
  C   C2072     1.0  0.92733  0.95019  0.84965  1.0000
  C   C2073     1.0  0.91187  0.95542  0.84230  1.0000
  C   C2074     1.0  0.90216  0.97219  0.84459  1.0000
  C   C2075     1.0  0.90760  0.98348  0.85446  1.0000
  C   C2076     1.0  0.92261  0.97781  0.86215  1.0000
  H   H2491     1.0  0.93496  0.93742  0.84765  1.0000
  H   H2492     1.0  0.90769  0.94665  0.83468  1.0000
  C   C2077     1.0  0.94866  0.84847  0.82075  1.0000
  H   H2493     1.0  0.97074  0.85570  0.94047  1.0000
  C   C2078     1.0  0.93760  0.81370  0.89202  1.0000
  C   C2079     1.0  0.95864  0.81009  0.88910  1.0000
  C   C2080     1.0  0.95398  0.85220  0.87834  1.0000
  C   C2081     1.0  0.93532  0.83477  0.88650  1.0000
  H   H2494     1.0  0.95204  0.86845  0.87468  1.0000
  H   H2495     1.0  0.91911  0.83773  0.88883  1.0000
  H   H2496     1.0  0.76747  0.98223  0.93468  1.0000
  C   C2082     1.0  0.97161  0.82887  0.92299  1.0000
  H   H2497     1.0  0.94617  0.82656  0.85650  1.0000
  H   H2498     1.0  0.60894  0.98066  0.98287  1.0000
  C   C2083     1.0  0.67429  0.88397  0.95971  1.0000
  C   C2084     1.0  0.96455  0.84064  0.81231  1.0000
  H   H2499     1.0  0.77590  0.99652  0.82719  1.0000
  H   H2500     1.0  0.76657  0.96941  0.81434  1.0000
  H   H2501     1.0  0.64096  0.99018  0.92108  1.0000
  H   H2502     1.0  0.65559  0.87025  0.94659  1.0000
  C   C2085     1.0  0.50661  0.78898  0.94018  1.0000
  C   C2086     1.0  0.93157  0.85785  0.84304  1.0000
  Fe  Fe285     1.0  0.82227  0.98494  0.74121  1.0000
  C   C2087     1.0  0.60091  0.99031  0.91653  1.0000
  C   C2088     1.0  0.63669  0.86076  0.96908  1.0000
  H   H2503     1.0  0.80063  0.98432  0.90991  1.0000
  C   C2089     1.0  0.97729  0.82750  0.88085  1.0000
  C   C2090     1.0  0.94655  0.82671  0.84502  1.0000
  C   C2091     1.0  0.96876  0.90207  0.77384  1.0000
  H   H2504     1.0  0.97011  0.81301  0.93099  1.0000
  H   H2505     1.0  0.95626  0.97133  0.76406  1.0000
  C   C2092     1.0  0.75183  0.00244  0.96330  1.0000
  S   S566      1.0  0.81360  0.98291  0.76520  1.0000
  H   H2506     1.0  0.84391  0.96761  0.87686  1.0000
  H   H2507     1.0  0.97348  0.88027  0.82794  1.0000
  C   C2093     1.0  0.55641  0.98644  0.97166  1.0000
  H   H2508     1.0  0.86281  0.97233  0.80176  1.0000
  C   C2094     1.0  0.93470  0.77049  0.97829  1.0000
  C   C2095     1.0  0.75135  0.96411  0.97181  1.0000
  C   C2096     1.0  0.89496  0.95880  0.78649  1.0000
  H   H2509     1.0  0.98819  0.83963  0.92170  1.0000
  C   C2097     1.0  0.63347  0.95706  0.95854  1.0000
  C   C2098     1.0  0.86882  0.91092  0.74730  1.0000
  H   H2510     1.0  0.68256  0.92890  0.96997  1.0000
  C   C2099     1.0  0.92981  0.95206  0.74118  1.0000
  C   C2100     1.0  0.66999  0.97622  0.96781  1.0000
  C   C2101     1.0  0.93328  0.85533  0.79977  1.0000
  C   C2102     1.0  0.61131  0.96595  0.90158  1.0000
  H   H2511     1.0  0.62358  0.96245  0.92636  1.0000
  C   C2103     1.0  0.90616  0.95256  0.79712  1.0000
  C   C2104     1.0  0.68871  0.98591  0.97148  1.0000
  N   N139      1.0  0.69372  0.90020  0.97644  1.0000
  C   C2105     1.0  0.97303  0.89005  0.89499  1.0000
  H   H2512     1.0  0.81199  0.95673  0.89890  1.0000
  H   H2513     1.0  0.92329  0.99715  0.78474  1.0000
  C   C2106     1.0  0.83002  0.00180  0.78432  1.0000
  H   H2514     1.0  0.91479  0.84759  0.84424  1.0000
  H   H2515     1.0  0.92060  0.86262  0.81937  1.0000
  H   H2516     1.0  0.60208  0.95056  0.91037  1.0000
  H   H2517     1.0  0.92501  0.89813  0.91240  1.0000
  C   C2107     1.0  0.83908  0.97992  0.88178  1.0000
  H   H2518     1.0  0.86157  0.97260  0.77635  1.0000
  Fe  Fe286     1.0  0.55778  0.88078  0.97292  1.0000
  H   H2519     1.0  0.81404  0.67553  0.98024  1.0000
  C   C2108     1.0  0.90162  0.91618  0.79395  1.0000
  H   H2520     1.0  0.92670  0.98641  0.86986  1.0000
  S   S567      1.0  0.90133  0.89075  0.75095  1.0000
  H   H2521     1.0  0.92994  0.81956  0.92018  1.0000
  H   H2522     1.0  0.99351  0.82456  0.87862  1.0000
  H   H2523     1.0  0.99239  0.97884  0.78648  1.0000
  C   C2109     1.0  0.85074  0.00191  0.87560  1.0000
  H   H2524     1.0  0.93088  0.81522  0.84537  1.0000
  H   H2525     1.0  0.59697  0.95948  0.97578  1.0000
  C   C2110     1.0  0.77201  0.98673  0.80843  1.0000
  C   C2111     1.0  0.96053  0.90934  0.78579  1.0000
  H   H2526     1.0  0.91238  0.96382  0.80283  1.0000
  H   H2527     1.0  0.61829  0.95020  0.95556  1.0000
  H   H2528     1.0  0.64598  0.99859  0.88780  1.0000
  H   H2529     1.0  0.84356  0.92744  0.74431  1.0000
  C   C2112     1.0  0.97243  0.87019  0.90455  1.0000
  C   C2113     1.0  0.87912  0.98473  0.79668  1.0000
  C   C2114     1.0  0.95517  0.84308  0.94200  1.0000
  C   C2115     1.0  0.93756  0.87048  0.92002  1.0000
  C   C2116     1.0  0.88761  0.94281  0.77954  1.0000
  H   H2530     1.0  0.70214  0.93172  0.98040  1.0000
  H   H2531     1.0  0.94112  0.84895  0.94704  1.0000
  C   C2117     1.0  0.93741  0.95209  0.75350  1.0000
  S   S568      1.0  0.96290  0.91650  0.73633  1.0000
  H   H2532     1.0  0.63600  0.94316  0.96645  1.0000
  Fe  Fe287     1.0  0.53601  0.91252  0.95756  1.0000
  H   H2533     1.0  0.79092  0.99653  0.86059  1.0000
  H   H2534     1.0  0.91778  0.92716  0.80904  1.0000
  S   S569      1.0  0.99888  0.87014  0.86525  1.0000
  H   H2535     1.0  0.94994  0.84815  0.78053  1.0000
  C   C2118     1.0  0.65156  0.98534  0.96860  1.0000
  H   H2536     1.0  0.86821  0.91312  0.75797  1.0000
  H   H2537     1.0  0.88704  0.98335  0.76156  1.0000
  N   N140      1.0  0.89129  0.98099  0.78313  1.0000
  H   H2538     1.0  0.77087  0.98095  0.78777  1.0000
  C   C2119     1.0  0.95454  0.85969  0.91738  1.0000
  H   H2539     1.0  0.91772  0.82729  0.93586  1.0000
  C   C2120     1.0  0.68781  0.92005  0.97920  1.0000
  C   C2121     1.0  0.94923  0.84773  0.79177  1.0000
  C   C2122     1.0  0.74780  0.98340  0.97481  1.0000
  C   C2123     1.0  0.95595  0.90003  0.89777  1.0000
  H   H2540     1.0  0.92153  0.86150  0.79468  1.0000
  C   C2124     1.0  0.87828  0.98448  0.77240  1.0000
  H   H2541     1.0  0.96040  0.81977  0.84113  1.0000
  N   N141      1.0  0.98741  0.73689  0.98327  1.0000
  H   H2542     1.0  0.90416  0.89991  0.79681  1.0000
  C   C2125     1.0  0.75877  0.00200  0.94882  1.0000
  C   C2126     1.0  0.77427  0.99318  0.79349  1.0000
  C   C2127     1.0  0.93297  0.85586  0.81402  1.0000
  H   H2543     1.0  0.87923  0.94604  0.77117  1.0000
  H   H2544     1.0  0.93325  0.93702  0.76228  1.0000
  H   H2545     1.0  0.97160  0.86477  0.84606  1.0000
  C   C2128     1.0  0.99483  0.73440  0.93184  1.0000
  C   C2129     1.0  0.97497  0.73720  0.97216  1.0000
  H   H2546     1.0  0.98674  0.89752  0.88521  1.0000
  S   S570      1.0  0.99846  0.88603  0.75754  1.0000
  Fe  Fe288     1.0  0.93385  0.89000  0.73704  1.0000
  H   H2547     1.0  0.71197  0.91896  0.95422  1.0000
  H   H2548     1.0  0.51643  0.79947  0.94494  1.0000
  H   H2549     1.0  0.98499  0.85721  0.83085  1.0000
  C   C2130     1.0  0.61242  0.96730  0.97811  1.0000
  N   N142      1.0  0.61914  0.98410  0.90766  1.0000
  H   H2550     1.0  0.99855  0.90138  0.80431  1.0000
  S   S571      1.0  0.94896  0.86226  0.74339  1.0000
  H   H2551     1.0  0.70286  0.97909  0.97040  1.0000
  H   H2552     1.0  0.68800  0.89244  0.95011  1.0000
  H   H2553     1.0  0.91917  0.93689  0.74121  1.0000
  C   C2131     1.0  0.57838  0.97801  0.92053  1.0000
  C   C2132     1.0  0.86568  0.67460  0.96843  1.0000
  C   C2133     1.0  0.51524  0.97650  0.96597  1.0000
  H   H2554     1.0  0.95499  0.82788  0.95018  1.0000
  H   H2555     1.0  0.72842  0.91688  0.96654  1.0000
  C   C2134     1.0  0.67460  0.88619  0.97380  1.0000
  S   S572      1.0  0.52203  0.87970  0.97432  1.0000
  C   C2135     1.0  0.82115  0.97386  0.89417  1.0000
  S   S573      1.0  0.74017  0.98544  0.91321  1.0000
  C   C2136     1.0  0.91286  0.99789  0.77707  1.0000
  H   H2556     1.0  0.87540  0.00108  0.77042  1.0000
  C   C2137     1.0  0.98854  0.71598  0.92703  1.0000
  H   H2557     1.0  0.95837  0.73959  0.97634  1.0000
  H   H2558     1.0  0.51669  0.81290  0.91921  1.0000
  C   C2138     1.0  0.99016  0.90155  0.79588  1.0000
  H   H2559     1.0  0.85022  0.66991  0.95157  1.0000
  H   H2560     1.0  0.97121  0.82521  0.91246  1.0000
  H   H2561     1.0  0.97251  0.72160  0.96903  1.0000
  C   C2139     1.0  0.93231  0.82242  0.93058  1.0000
  S   S574      1.0  0.95957  0.91785  0.81175  1.0000
  C   C2140     1.0  0.65563  0.87128  0.95749  1.0000
  H   H2562     1.0  0.92361  0.86371  0.92965  1.0000
  H   H2563     1.0  0.57317  0.96328  0.91742  1.0000
  H   H2564     1.0  0.88839  0.98400  0.80501  1.0000
  H   H2565     1.0  0.81944  0.98728  0.79275  1.0000
  H   H2566     1.0  0.97719  0.83505  0.81659  1.0000
  H   H2567     1.0  0.62530  0.96172  0.89484  1.0000
  H   H2568     1.0  0.93324  0.87515  0.83696  1.0000
  H   H2569     1.0  0.64711  0.97203  0.91060  1.0000
  N   N143      1.0  0.94919  0.84913  0.83571  1.0000
  C   C2141     1.0  0.89094  0.92182  0.78329  1.0000
  C   C2142     1.0  0.97106  0.90899  0.79688  1.0000
  C   C2143     1.0  0.54929  0.96708  0.96764  1.0000
  C   C2144     1.0  0.75882  0.96385  0.95733  1.0000
  C   C2145     1.0  0.88353  0.90006  0.74123  1.0000
  C   C2146     1.0  0.63325  0.97691  0.91688  1.0000
  C   C2147     1.0  0.63640  0.86271  0.98298  1.0000
  H   H2570     1.0  0.95643  0.91533  0.89020  1.0000
  H   H2571     1.0  0.71866  0.89331  0.96077  1.0000
  H   H2572     1.0  0.93240  0.85805  0.85427  1.0000
  C   C2148     1.0  0.54281  0.00080  0.97271  1.0000
  H   H2573     1.0  0.96004  0.90181  0.76564  1.0000
  C   C2149     1.0  0.81482  0.98978  0.90041  1.0000
  H   H2574     1.0  0.91738  0.67746  0.94174  1.0000
  H   H2575     1.0  0.93165  0.80636  0.93799  1.0000
  H   H2576     1.0  0.55985  0.95622  0.96651  1.0000
  N   N144      1.0  0.63144  0.97561  0.96479  1.0000
  H   H2577     1.0  0.64755  0.96233  0.94843  1.0000
  C   C2150     1.0  0.98785  0.89472  0.77273  1.0000
  C   C2151     1.0  0.90931  0.93154  0.80080  1.0000
  H   H2578     1.0  0.88536  0.90985  0.77782  1.0000
  C   C2152     1.0  0.52856  0.96212  0.96482  1.0000
  H   H2579     1.0  0.93090  0.68086  0.97577  1.0000
  C   C2153     1.0  0.56164  0.98445  0.92889  1.0000
  H   H2580     1.0  0.61242  0.98539  0.94995  1.0000
  H   H2581     1.0  0.98633  0.74713  0.93054  1.0000
  H   H2582     1.0  0.50415  0.82439  0.75689  1.0000
  H   H2583     1.0  0.92243  0.99612  0.76667  1.0000
  H   H2584     1.0  0.94225  0.66998  0.92254  1.0000
  C   C2154     1.0  0.85493  0.91912  0.73954  1.0000
  C   C2155     1.0  0.99855  0.89441  0.78379  1.0000
  C   C2156     1.0  0.65497  0.87530  0.98534  1.0000
  S   S575      1.0  0.69539  0.99153  0.90352  1.0000
  H   H2585     1.0  0.91296  0.70673  0.98563  1.0000
  C   C2157     1.0  0.99974  0.69966  0.92859  1.0000
  C   C2158     1.0  0.62653  0.99249  0.95383  1.0000
  H   H2586     1.0  0.89991  0.99623  0.85641  1.0000
  H   H2587     1.0  0.54456  0.97482  0.93187  1.0000
  H   H2588     1.0  0.60699  0.91109  0.98371  1.0000
  H   H2589     1.0  0.51516  0.85343  0.75068  1.0000
  C   C2159     1.0  0.52233  0.99566  0.96980  1.0000
  S   S576      1.0  0.70283  0.00157  0.93367  1.0000
  H   H2590     1.0  0.57249  0.99058  0.97353  1.0000
  H   H2591     1.0  0.64125  0.00044  0.94417  1.0000
  H   H2592     1.0  0.98349  0.75054  0.96187  1.0000
  C   C2160     1.0  0.77728  0.00244  0.81569  1.0000
