data_image0
_chemical_formula_structural       C4HCH2SH2C2SC2HCH2C4SHFeH3C2H2CH3C2SC2HFeSHCHCH3C2H2NH3CH2C2H2FeH2SH2FeCH2SC2HCH2FeCSHCHCS2C2SC2HC2FeH2NH3CHSHCH5CFeC2NHSHSHCH9CHC3HCHCNHCH3CHC7H2CHC4H2C3S2CHC3SCH2FeH2C2HCHSH3CHFeCS3HSH2CSHFeSCSFeH3C2HC2H2C2H2FeCH2C2SCFeHCHCNH2CNCSCHSFeHCHFeCSH3CHCH2CSC3HSC3H3SCHFe2C3SC2FeCH4CH2SC3HC2SH8C2FeCHSHCH3CHNH2C2H2NHCHC3HCHCFeCHFeHSCH2SC3H2CHCHC2H5SH2SFeHC2NCSCH3C4HCH3C2SCH2C2HCHFeH2CHSCH2CFeCSCHCSCHCHCH5CH2SHCH2CHC2H2NHFeCHCH2CHNHC2HC4HCH4CFeHSHSH3NHSHSC4HNH3CHCFeHSH2FeHCH3CHFeCSH3C4HNCHFeH7SCH2CH7NC3H3SC2HC2HSC4HC3H2CH2S2HC4HSHCH3CH2CHS2NHFeSHSHFeCFeHCHC3HC2HSH2CHCSCSCSFeHCH4CS2FeSH5C2HFeCSHC3NHCH5N2H2FeHC2H3C2HC4HCHC3H4C2H2SCHCHCHC2SCHC4HNHSH2CH2CH5C2HC2SCHC2SC3FeC2FeHFeHCH3CSC2HCHCH2CHCSC3HSH2CHFeHSC3SH2CSHNSH4C2SCHNH4CH2C2FeHC3H2CHCHCH2CHCHC2H2C2SHCH2CSC3H7SH3CH2C2HCHCFeHC4H3SCFeHSCHC4SH2FeSHCH2NSH2Fe2SC3SH2C2HC2HCH2C3HSCHNHCH3C2HCS2CFeHC4HCH6C2H6CHCH
_chemical_formula_sum              "C360 H432 S96 Fe48 N24"
_cell_length_a       28.6776
_cell_length_b       23.374
_cell_length_c       22.8188
_cell_angle_alpha    88.4499
_cell_angle_beta     78.8314
_cell_angle_gamma    120.209

_space_group_name_H-M_alt    "P 1"
_space_group_IT_number       1

loop_
  _space_group_symop_operation_xyz
  'x, y, z'

loop_
  _atom_site_type_symbol
  _atom_site_label
  _atom_site_symmetry_multiplicity
  _atom_site_fract_x
  _atom_site_fract_y
  _atom_site_fract_z
  _atom_site_occupancy
  C   C1        1.0  0.18184  0.19192  0.84122  1.0000
  C   C2        1.0  0.14600  0.14114  0.81274  1.0000
  C   C3        1.0  0.07029  0.51139  0.86375  1.0000
  C   C4        1.0  0.29651  0.58950  0.90073  1.0000
  H   H1        1.0  0.04502  0.23668  0.90761  1.0000
  C   C5        1.0  0.21086  0.60064  0.77141  1.0000
  H   H2        1.0  0.38503  0.35242  0.95546  1.0000
  H   H3        1.0  0.07777  0.30395  0.84583  1.0000
  S   S1        1.0  0.40561  0.48942  0.75361  1.0000
  H   H4        1.0  0.41078  0.18733  0.73113  1.0000
  H   H5        1.0  0.32473  0.18107  0.72452  1.0000
  C   C6        1.0  0.30941  0.50103  0.85710  1.0000
  C   C7        1.0  0.41483  0.40292  0.96106  1.0000
  S   S2        1.0  0.21850  0.49373  0.73779  1.0000
  C   C8        1.0  0.32291  0.14138  0.90128  1.0000
  C   C9        1.0  0.07474  0.42468  0.91813  1.0000
  H   H6        1.0  0.35520  0.53239  0.85168  1.0000
  C   C10       1.0  0.33023  0.14477  0.83873  1.0000
  H   H7        1.0  0.26387  0.26730  0.93369  1.0000
  H   H8        1.0  0.24052  0.60810  0.79760  1.0000
  C   C11       1.0  0.19261  0.54755  0.73775  1.0000
  C   C12       1.0  0.48135  0.11573  0.91391  1.0000
  C   C13       1.0  0.16147  0.14041  0.74971  1.0000
  C   C14       1.0  0.23375  0.24311  0.80814  1.0000
  S   S3        1.0  0.40164  0.32164  0.74418  1.0000
  H   H9        1.0  0.42460  0.14326  0.96069  1.0000
  Fe  Fe1       1.0  0.47448  0.33356  0.77630  1.0000
  H   H10       1.0  0.19378  0.48367  0.94920  1.0000
  H   H11       1.0  0.09297  0.31945  0.91834  1.0000
  H   H12       1.0  0.12522  0.53043  0.92200  1.0000
  C   C15       1.0  0.03056  0.46333  0.83742  1.0000
  C   C16       1.0  0.25020  0.24357  0.74659  1.0000
  H   H13       1.0  0.16873  0.19234  0.88896  1.0000
  H   H14       1.0  0.34628  0.19302  0.81337  1.0000
  C   C17       1.0  0.47145  0.42511  0.94656  1.0000
  H   H15       1.0  0.20988  0.49085  0.86819  1.0000
  H   H16       1.0  0.50126  0.15826  0.87836  1.0000
  H   H17       1.0  0.29817  0.44790  0.86449  1.0000
  C   C18       1.0  0.05917  0.29036  0.89534  1.0000
  C   C19       1.0  0.09323  0.49236  0.90305  1.0000
  S   S4        1.0  0.51706  0.44512  0.76571  1.0000
  C   C20       1.0  0.21915  0.47696  0.90975  1.0000
  C   C21       1.0  0.50674  0.28140  0.95238  1.0000
  H   H18       1.0  0.26108  0.28331  0.82980  1.0000
  Fe  Fe2       1.0  0.44791  0.43304  0.72557  1.0000
  S   S5        1.0  0.45617  0.26854  0.86100  1.0000
  H   H19       1.0  0.33308  0.18622  0.92197  1.0000
  C   C22       1.0  0.51388  0.28883  0.88984  1.0000
  H   H20       1.0  0.19787  0.30669  0.93289  1.0000
  C   C23       1.0  0.51179  0.49090  0.95346  1.0000
  H   H21       1.0  0.08343  0.56357  0.85343  1.0000
  H   H22       1.0  0.48238  0.38951  0.93008  1.0000
  H   H23       1.0  0.20447  0.42264  0.91342  1.0000
  C   C24       1.0  0.28918  0.49835  0.96425  1.0000
  C   C25       1.0  0.03306  0.37410  0.89348  1.0000
  H   H24       1.0  0.09269  0.41176  0.94979  1.0000
  H   H25       1.0  0.29957  0.50737  0.81333  1.0000
  N   N1        1.0  0.27922  0.51785  0.90749  1.0000
  H   H26       1.0  0.28158  0.44666  0.96759  1.0000
  H   H27       1.0  0.33271  0.53326  0.96742  1.0000
  H   H28       1.0  0.29000  0.28447  0.72079  1.0000
  C   C26       1.0  0.18362  0.59110  0.12193  1.0000
  H   H29       1.0  0.30263  0.37653  0.15079  1.0000
  H   H30       1.0  0.11335  0.46267  0.21185  1.0000
  C   C27       1.0  0.10311  0.52096  0.05762  1.0000
  C   C28       1.0  0.18222  0.30942  0.02869  1.0000
  H   H31       1.0  0.50924  0.16111  0.05026  1.0000
  H   H32       1.0  0.47684  0.54421  0.10685  1.0000
  Fe  Fe3       1.0  0.33839  0.24891  0.10822  1.0000
  H   H33       1.0  0.35240  0.42643  0.99571  1.0000
  H   H34       1.0  0.07119  0.49329  0.03354  1.0000
  S   S6        1.0  0.13102  0.32997  0.02931  1.0000
  H   H35       1.0  0.24283  0.27026  0.12460  1.0000
  H   H36       1.0  0.51903  0.22893  0.13081  1.0000
  Fe  Fe4       1.0  0.35167  0.32279  0.21628  1.0000
  C   C29       1.0  0.23387  0.27927  0.08259  1.0000
  H   H37       1.0  0.18438  0.14411  0.09472  1.0000
  H   H38       1.0  0.46655  0.26535  0.98182  1.0000
  S   S7        1.0  0.32017  0.59084  0.09238  1.0000
  C   C30       1.0  0.39649  0.44489  0.98323  1.0000
  C   C31       1.0  0.31284  0.52806  0.14386  1.0000
  H   H39       1.0  0.43848  0.57077  0.15866  1.0000
  C   C32       1.0  0.30583  0.46814  0.12560  1.0000
  H   H40       1.0  0.26110  0.49817  0.00541  1.0000
  H   H41       1.0  0.12688  0.44720  0.06020  1.0000
  Fe  Fe5       1.0  0.45133  0.32315  0.13815  1.0000
  C   C33       1.0  0.45542  0.53698  0.15504  1.0000
  S   S8        1.0  0.29203  0.21754  0.20551  1.0000
  H   H42       1.0  0.17398  0.37755  0.20475  1.0000
  C   C34       1.0  0.13439  0.49507  0.07242  1.0000
  H   H43       1.0  0.46993  0.44687  0.21509  1.0000
  C   C35       1.0  0.25784  0.26648  0.02903  1.0000
  S   S9        1.0  0.05604  0.20948  0.18526  1.0000
  S   S10       1.0  0.39419  0.35550  0.11823  1.0000
  C   C36       1.0  0.11224  0.58218  0.07441  1.0000
  C   C37       1.0  0.17515  0.53062  0.10356  1.0000
  S   S11       1.0  0.39921  0.21834  0.12035  1.0000
  C   C38       1.0  0.31779  0.53985  0.20276  1.0000
  C   C39       1.0  0.24524  0.27715  0.97502  1.0000
  H   H44       1.0  0.41966  0.48477  0.16602  1.0000
  C   C40       1.0  0.50705  0.49654  0.19418  1.0000
  C   C41       1.0  0.30681  0.42203  0.16527  1.0000
  Fe  Fe6       1.0  0.05382  0.25445  0.09843  1.0000
  H   H45       1.0  0.25271  0.58548  0.99186  1.0000
  H   H46       1.0  0.44643  0.12215  0.14484  1.0000
  N   N2        1.0  0.49357  0.55019  0.19510  1.0000
  H   H47       1.0  0.19944  0.51031  0.11522  1.0000
  H   H48       1.0  0.08768  0.60084  0.06114  1.0000
  H   H49       1.0  0.17630  0.30838  0.12416  1.0000
  C   C42       1.0  0.19562  0.29996  0.08250  1.0000
  H   H50       1.0  0.30132  0.45812  0.08049  1.0000
  S   S12       1.0  0.29890  0.23059  0.02969  1.0000
  H   H51       1.0  0.52020  0.58498  0.97762  1.0000
  C   C43       1.0  0.20806  0.29947  0.97464  1.0000
  H   H52       1.0  0.11871  0.11958  0.07952  1.0000
  H   H53       1.0  0.21883  0.12475  0.98872  1.0000
  H   H54       1.0  0.42073  0.54338  0.00557  1.0000
  H   H55       1.0  0.32154  0.58473  0.21811  1.0000
  H   H56       1.0  0.52124  0.48993  0.14733  1.0000
  C   C44       1.0  0.43494  0.51026  0.98921  1.0000
  Fe  Fe7       1.0  0.35819  0.19715  0.21914  1.0000
  C   C45       1.0  0.49185  0.53337  0.97382  1.0000
  C   C46       1.0  0.04357  0.43186  0.35830  1.0000
  N   N3        1.0  0.49162  0.39290  0.41912  1.0000
  H   H57       1.0  0.18865  0.45610  0.27588  1.0000
  S   S13       1.0  0.11933  0.55545  0.29187  1.0000
  H   H58       1.0  0.22052  0.54255  0.40493  1.0000
  S   S14       1.0  0.52537  0.20744  0.43176  1.0000
  H   H59       1.0  0.48595  0.30400  0.45864  1.0000
  C   C47       1.0  0.46437  0.54520  0.25820  1.0000
  H   H60       1.0  0.24937  0.53021  0.33326  1.0000
  H   H61       1.0  0.16365  0.23560  0.33723  1.0000
  H   H62       1.0  0.46017  0.19641  0.24621  1.0000
  H   H63       1.0  0.40685  0.12010  0.46661  1.0000
  H   H64       1.0  0.12980  0.36287  0.46888  1.0000
  H   H65       1.0  0.22745  0.39852  0.45276  1.0000
  H   H66       1.0  0.24934  0.48363  0.45632  1.0000
  H   H67       1.0  0.33171  0.39485  0.40680  1.0000
  H   H68       1.0  0.28337  0.27864  0.38609  1.0000
  C   C48       1.0  0.18563  0.39274  0.35127  1.0000
  H   H69       1.0  0.43065  0.49290  0.27750  1.0000
  C   C49       1.0  0.31925  0.49423  0.24207  1.0000
  C   C50       1.0  0.16880  0.28385  0.32471  1.0000
  C   C51       1.0  0.48990  0.19938  0.32681  1.0000
  H   H70       1.0  0.44305  0.57405  0.26188  1.0000
  C   C52       1.0  0.21121  0.50770  0.37077  1.0000
  H   H71       1.0  0.17744  0.50796  0.35380  1.0000
  C   C53       1.0  0.39264  0.13569  0.32315  1.0000
  N   N4        1.0  0.19469  0.43917  0.39654  1.0000
  H   H72       1.0  0.27798  0.46081  0.39018  1.0000
  C   C54       1.0  0.38781  0.59934  0.41775  1.0000
  H   H73       1.0  0.49376  0.56287  0.28821  1.0000
  H   H74       1.0  0.17624  0.31143  0.41179  1.0000
  H   H75       1.0  0.34515  0.57234  0.44345  1.0000
  C   C55       1.0  0.14245  0.41195  0.44389  1.0000
  H   H76       1.0  0.32587  0.50550  0.28642  1.0000
  C   C56       1.0  0.18320  0.40871  0.29178  1.0000
  C   C57       1.0  0.42601  0.58528  0.43383  1.0000
  C   C58       1.0  0.08461  0.43474  0.25427  1.0000
  C   C59       1.0  0.32503  0.30098  0.39302  1.0000
  C   C60       1.0  0.44870  0.17904  0.29405  1.0000
  C   C61       1.0  0.23924  0.44573  0.42504  1.0000
  C   C62       1.0  0.17679  0.32818  0.36689  1.0000
  H   H77       1.0  0.10742  0.40395  0.42409  1.0000
  H   H78       1.0  0.42625  0.44786  0.42082  1.0000
  C   C63       1.0  0.43414  0.36009  0.41105  1.0000
  H   H79       1.0  0.42252  0.26160  0.39622  1.0000
  C   C64       1.0  0.41875  0.13595  0.41834  1.0000
  C   C65       1.0  0.40636  0.39626  0.41311  1.0000
  C   C66       1.0  0.35130  0.26434  0.38983  1.0000
  C   C67       1.0  0.35240  0.36665  0.40488  1.0000
  H   H80       1.0  0.04039  0.45762  0.39620  1.0000
  H   H81       1.0  0.32999  0.21326  0.38026  1.0000
  C   C68       1.0  0.40496  0.29307  0.39895  1.0000
  C   C69       1.0  0.47485  0.17862  0.38921  1.0000
  C   C70       1.0  0.08000  0.46820  0.30271  1.0000
  S   S15       1.0  0.07460  0.60902  0.44938  1.0000
  S   S16       1.0  0.32484  0.38452  0.26964  1.0000
  C   C71       1.0  0.16811  0.30175  0.26635  1.0000
  H   H82       1.0  0.16275  0.26761  0.23360  1.0000
  C   C72       1.0  0.31456  0.43573  0.22312  1.0000
  C   C73       1.0  0.05125  0.36524  0.26012  1.0000
  C   C74       1.0  0.51282  0.34671  0.42116  1.0000
  S   S17       1.0  0.41442  0.30043  0.23756  1.0000
  C   C75       1.0  0.17461  0.36368  0.25015  1.0000
  H   H83       1.0  0.51541  0.32632  0.37796  1.0000
  H   H84       1.0  0.51856  0.48713  0.36664  1.0000
  Fe  Fe8       1.0  0.07839  0.60010  0.35115  1.0000
  H   H85       1.0  0.05456  0.34002  0.22200  1.0000
  H   H86       1.0  0.52732  0.42816  0.32423  1.0000
  C   C76       1.0  0.37788  0.11347  0.38515  1.0000
  C   C77       1.0  0.31784  0.21522  0.54452  1.0000
  H   H87       1.0  0.22906  0.19658  0.66961  1.0000
  C   C78       1.0  0.43966  0.55689  0.63852  1.0000
  H   H88       1.0  0.27279  0.58614  0.52200  1.0000
  S   S18       1.0  0.03288  0.36595  0.56488  1.0000
  H   H89       1.0  0.37056  0.34667  0.62268  1.0000
  H   H90       1.0  0.14109  0.49845  0.67633  1.0000
  H   H91       1.0  0.32511  0.17662  0.52830  1.0000
  C   C79       1.0  0.11062  0.12258  0.67225  1.0000
  H   H92       1.0  0.10490  0.57475  0.67670  1.0000
  Fe  Fe9       1.0  0.16884  0.40480  0.69414  1.0000
  C   C80       1.0  0.28441  0.58847  0.56591  1.0000
  S   S19       1.0  0.07749  0.25159  0.62319  1.0000
  S   S20       1.0  0.17495  0.41010  0.59440  1.0000
  S   S21       1.0  0.49094  0.43845  0.63091  1.0000
  H   H93       1.0  0.14609  0.44629  0.47793  1.0000
  S   S22       1.0  0.21149  0.27731  0.53273  1.0000
  H   H94       1.0  0.14805  0.15957  0.63706  1.0000
  H   H95       1.0  0.40420  0.14320  0.66751  1.0000
  C   C81       1.0  0.49443  0.42146  0.47653  1.0000
  S   S23       1.0  0.51975  0.33093  0.68593  1.0000
  H   H96       1.0  0.09134  0.14987  0.69471  1.0000
  Fe  Fe10      1.0  0.44990  0.32724  0.65267  1.0000
  S   S24       1.0  0.40685  0.25333  0.59326  1.0000
  C   C82       1.0  0.35268  0.26073  0.57726  1.0000
  S   S25       1.0  0.17143  0.31058  0.70223  1.0000
  Fe  Fe11      1.0  0.17011  0.31165  0.60428  1.0000
  H   H97       1.0  0.24806  0.18592  0.50502  1.0000
  H   H98       1.0  0.43094  0.51024  0.62248  1.0000
  H   H99       1.0  0.46362  0.38224  0.51518  1.0000
  C   C83       1.0  0.43001  0.55980  0.70065  1.0000
  C   C84       1.0  0.26551  0.27123  0.55098  1.0000
  H   H100      1.0  0.29300  0.35546  0.59996  1.0000
  C   C85       1.0  0.27436  0.22054  0.53132  1.0000
  C   C86       1.0  0.34367  0.31123  0.59743  1.0000
  H   H101      1.0  0.46675  0.61203  0.54904  1.0000
  H   H102      1.0  0.24543  0.56268  0.60240  1.0000
  C   C87       1.0  0.29976  0.31621  0.58465  1.0000
  C   C88       1.0  0.13440  0.58207  0.70323  1.0000
  H   H103      1.0  0.41244  0.54720  0.47176  1.0000
  H   H104      1.0  0.48587  0.46281  0.47652  1.0000
  Fe  Fe12      1.0  0.08200  0.34974  0.62094  1.0000
  C   C89       1.0  0.15471  0.53863  0.70325  1.0000
  H   H105      1.0  0.30472  0.55845  0.56583  1.0000
  H   H106      1.0  0.30919  0.12755  0.66927  1.0000
  C   C90       1.0  0.21486  0.19304  0.71770  1.0000
  C   C91       1.0  0.30516  0.12744  0.71886  1.0000
  S   S26       1.0  0.07589  0.35143  0.72012  1.0000
  C   C92       1.0  0.39299  0.13639  0.71785  1.0000
  Fe  Fe13      1.0  0.07850  0.25739  0.72051  1.0000
  H   H107      1.0  0.39395  0.98723  0.88072  1.0000
  C   C93       1.0  0.49516  0.75429  0.94018  1.0000
  H   H108      1.0  0.07461  0.01323  0.93424  1.0000
  C   C94       1.0  0.47187  0.01201  0.95758  1.0000
  N   N5        1.0  0.48619  0.95929  0.95552  1.0000
  H   H109      1.0  0.51697  0.97238  0.85899  1.0000
  H   H110      1.0  0.42108  0.89423  0.91339  1.0000
  C   C95       1.0  0.32357  0.86539  0.79975  1.0000
  N   N6        1.0  0.33203  0.09471  0.74271  1.0000
  C   C96       1.0  0.34455  0.70112  0.84091  1.0000
  S   S27       1.0  0.29098  0.86174  0.92136  1.0000
  C   C97       1.0  0.04106  0.96448  0.93036  1.0000
  H   H111      1.0  0.44499  0.85251  0.95516  1.0000
  S   S28       1.0  0.14181  0.82924  0.96211  1.0000
  Fe  Fe14      1.0  0.08162  0.72238  0.95650  1.0000
  H   H112      1.0  0.03956  0.78311  0.74129  1.0000
  C   C98       1.0  0.32014  0.08827  0.80950  1.0000
  H   H113      1.0  0.10599  0.10386  0.84088  1.0000
  Fe  Fe15      1.0  0.20596  0.81391  0.90463  1.0000
  C   C99       1.0  0.51713  0.78728  0.88072  1.0000
  S   S29       1.0  0.47766  0.81033  0.84730  1.0000
  H   H114      1.0  0.34062  0.77857  0.88591  1.0000
  H   H115      1.0  0.28295  0.97906  0.93702  1.0000
  H   H116      1.0  0.26650  0.99509  0.73829  1.0000
  C   C100      1.0  0.05236  0.92232  0.89601  1.0000
  H   H117      1.0  0.43368  0.62270  0.76898  1.0000
  C   C101      1.0  0.19035  0.64387  0.77169  1.0000
  H   H118      1.0  0.07753  0.00837  0.79140  1.0000
  H   H119      1.0  0.17291  0.05055  0.96178  1.0000
  C   C102      1.0  0.32737  0.72602  0.88976  1.0000
  S   S30       1.0  0.19475  0.84566  0.81748  1.0000
  C   C103      1.0  0.35849  0.89585  0.74203  1.0000
  C   C104      1.0  0.29407  0.68359  0.94369  1.0000
  C   C105      1.0  0.27841  0.61620  0.94911  1.0000
  H   H120      1.0  0.41474  0.11327  0.73434  1.0000
  S   S31       1.0  0.14736  0.70450  0.90640  1.0000
  C   C106      1.0  0.38455  0.96143  0.84218  1.0000
  C   C107      1.0  0.30597  0.08191  0.93671  1.0000
  C   C108      1.0  0.33663  0.89812  0.84987  1.0000
  H   H121      1.0  0.45442  0.74298  0.96446  1.0000
  H   H122      1.0  0.29336  0.98224  0.82933  1.0000
  H   H123      1.0  0.37110  0.73469  0.79940  1.0000
  S   S32       1.0  0.06082  0.74696  0.87351  1.0000
  C   C109      1.0  0.29518  0.02516  0.90970  1.0000
  H   H124      1.0  0.28696  0.81598  0.80560  1.0000
  Fe  Fe16      1.0  0.12628  0.85343  0.87496  1.0000
  Fe  Fe17      1.0  0.13119  0.73715  0.82300  1.0000
  C   C110      1.0  0.41934  0.99220  0.78439  1.0000
  C   C111      1.0  0.43615  0.89377  0.95475  1.0000
  C   C112      1.0  0.30175  0.02783  0.84712  1.0000
  S   S33       1.0  0.12106  0.94561  0.86384  1.0000
  C   C113      1.0  0.49833  0.06905  0.91225  1.0000
  C   C114      1.0  0.40618  0.95944  0.73428  1.0000
  Fe  Fe18      1.0  0.51163  0.85564  0.75008  1.0000
  C   C115      1.0  0.32952  0.63397  0.84591  1.0000
  H   H125      1.0  0.20485  0.68494  0.79752  1.0000
  H   H126      1.0  0.45661  0.04098  0.77867  1.0000
  H   H127      1.0  0.34437  0.61827  0.80617  1.0000
  H   H128      1.0  0.33414  0.00468  0.73101  1.0000
  C   C116      1.0  0.07060  0.03639  0.75735  1.0000
  H   H129      1.0  0.26026  0.10193  0.74187  1.0000
  H   H130      1.0  0.04675  0.05771  0.78148  1.0000
  S   S34       1.0  0.12231  0.68444  0.74167  1.0000
  C   C117      1.0  0.15145  0.63395  0.73830  1.0000
  C   C118      1.0  0.52539  0.73508  0.96833  1.0000
  C   C119      1.0  0.43821  0.10754  0.96054  1.0000
  H   H131      1.0  0.04285  0.99910  0.73185  1.0000
  C   C120      1.0  0.44015  0.61983  0.72109  1.0000
  C   C121      1.0  0.17389  0.73082  0.07663  1.0000
  S   S35       1.0  0.30541  0.69374  0.21670  1.0000
  H   H132      1.0  0.10582  0.71029  0.18647  1.0000
  H   H133      1.0  0.50197  0.67150  0.20752  1.0000
  H   H134      1.0  0.27112  0.95704  0.12376  1.0000
  H   H135      1.0  0.06489  0.01480  0.04760  1.0000
  H   H136      1.0  0.18871  0.67662  0.20731  1.0000
  H   H137      1.0  0.22574  0.91653  0.03948  1.0000
  H   H138      1.0  0.37346  0.02233  0.21481  1.0000
  H   H139      1.0  0.51761  0.91540  0.00911  1.0000
  C   C122      1.0  0.24632  0.97601  0.11087  1.0000
  C   C123      1.0  0.41271  0.05353  0.00672  1.0000
  Fe  Fe19      1.0  0.35751  0.68388  0.13566  1.0000
  C   C124      1.0  0.06038  0.81729  0.13528  1.0000
  H   H140      1.0  0.06259  0.78383  0.10465  1.0000
  S   S36       1.0  0.42652  0.70398  0.17999  1.0000
  H   H141      1.0  0.09024  0.95980  0.03012  1.0000
  C   C125      1.0  0.19907  0.71131  0.16604  1.0000
  H   H142      1.0  0.21298  0.74070  0.04522  1.0000
  H   H143      1.0  0.07027  0.96970  0.10714  1.0000
  H   H144      1.0  0.40097  0.87934  0.99414  1.0000
  C   C126      1.0  0.14317  0.10010  0.09545  1.0000
  H   H145      1.0  0.24159  0.72719  0.13946  1.0000
  N   N7        1.0  0.14832  0.05193  0.05757  1.0000
  H   H146      1.0  0.26065  0.04149  0.17837  1.0000
  H   H147      1.0  0.20583  0.08503  0.15100  1.0000
  C   C127      1.0  0.20829  0.04808  0.12536  1.0000
  C   C128      1.0  0.10064  0.88802  0.20885  1.0000
  H   H148      1.0  0.07002  0.64817  0.14215  1.0000
  H   H149      1.0  0.30236  0.08057  0.98494  1.0000
  N   N8        1.0  0.15718  0.68044  0.12950  1.0000
  H   H150      1.0  0.17042  0.95952  0.00894  1.0000
  C   C129      1.0  0.24028  0.02346  0.14162  1.0000
  H   H151      1.0  0.12136  0.07636  0.14325  1.0000
  C   C130      1.0  0.50642  0.95474  0.00954  1.0000
  C   C131      1.0  0.10298  0.66549  0.16759  1.0000
  C   C132      1.0  0.22053  0.95310  0.06356  1.0000
  H   H152      1.0  0.08825  0.62585  0.20656  1.0000
  C   C133      1.0  0.42936  0.00658  0.00563  1.0000
  H   H153      1.0  0.18155  0.77951  0.09049  1.0000
  C   C134      1.0  0.17442  0.08585  0.99418  1.0000
  Fe  Fe20      1.0  0.35127  0.80264  0.17911  1.0000
  C   C135      1.0  0.41646  0.03546  0.20762  1.0000
  H   H154      1.0  0.20134  0.75690  0.18241  1.0000
  Fe  Fe21      1.0  0.46228  0.81173  0.14546  1.0000
  H   H155      1.0  0.28110  0.70331  0.98172  1.0000
  S   S37       1.0  0.31288  0.86603  0.18016  1.0000
  C   C136      1.0  0.10256  0.84726  0.16624  1.0000
  H   H156      1.0  0.13631  0.83771  0.15836  1.0000
  H   H157      1.0  0.40791  0.96516  0.04229  1.0000
  S   S38       1.0  0.39768  0.79093  0.09388  1.0000
  C   C137      1.0  0.45860  0.09255  0.16774  1.0000
  C   C138      1.0  0.09113  0.99636  0.06046  1.0000
  C   C139      1.0  0.18132  0.02576  0.07724  1.0000
  H   H158      1.0  0.47487  0.94159  0.05247  1.0000
  H   H159      1.0  0.37949  0.04758  0.04329  1.0000
  C   C140      1.0  0.18863  0.97761  0.04676  1.0000
  H   H160      1.0  0.14153  0.71461  0.05044  1.0000
  C   C141      1.0  0.51517  0.11105  0.15779  1.0000
  H   H161      1.0  0.50801  0.70941  0.01433  1.0000
  C   C142      1.0  0.15160  0.61827  0.10861  1.0000
  C   C143      1.0  0.52680  0.06871  0.19012  1.0000
  H   H162      1.0  0.15350  0.11090  0.97939  1.0000
  H   H163      1.0  0.21485  0.61477  0.14743  1.0000
  H   H164      1.0  0.19410  0.89918  0.34372  1.0000
  H   H165      1.0  0.47352  0.72214  0.29912  1.0000
  H   H166      1.0  0.35651  0.95708  0.39766  1.0000
  S   S39       1.0  0.11055  0.70810  0.32254  1.0000
  H   H167      1.0  0.24846  0.92144  0.23815  1.0000
  H   H168      1.0  0.05401  0.92889  0.25540  1.0000
  S   S40       1.0  0.35599  0.66771  0.35356  1.0000
  Fe  Fe22      1.0  0.10092  0.71582  0.42128  1.0000
  H   H169      1.0  0.25183  0.77126  0.39273  1.0000
  C   C144      1.0  0.42420  0.90142  0.41092  1.0000
  C   C145      1.0  0.46931  0.02034  0.41402  1.0000
  N   N9        1.0  0.43336  0.95325  0.45102  1.0000
  C   C146      1.0  0.25241  0.80584  0.35980  1.0000
  S   S41       1.0  0.41773  0.82903  0.22880  1.0000
  C   C147      1.0  0.28035  0.85833  0.25591  1.0000
  H   H170      1.0  0.30562  0.79333  0.28846  1.0000
  H   H171      1.0  0.51053  0.02855  0.39110  1.0000
  H   H172      1.0  0.39509  0.85021  0.43660  1.0000
  C   C148      1.0  0.21978  0.87766  0.33189  1.0000
  C   C149      1.0  0.25004  0.88967  0.27202  1.0000
  C   C150      1.0  0.34464  0.94872  0.44649  1.0000
  C   C151      1.0  0.40479  0.64886  0.36937  1.0000
  H   H173      1.0  0.13303  0.91042  0.23332  1.0000
  C   C152      1.0  0.28255  0.81784  0.30022  1.0000
  H   H174      1.0  0.46381  0.90416  0.38938  1.0000
  H   H175      1.0  0.45107  0.02805  0.37798  1.0000
  H   H176      1.0  0.50452  0.95307  0.46953  1.0000
  C   C153      1.0  0.42924  0.99501  0.23846  1.0000
  C   C154      1.0  0.46029  0.68367  0.33625  1.0000
  S   S42       1.0  0.17143  0.80516  0.44519  1.0000
  C   C155      1.0  0.48169  0.62077  0.40172  1.0000
  H   H177      1.0  0.39617  0.95036  0.26859  1.0000
  H   H178      1.0  0.26775  0.94411  0.44618  1.0000
  C   C156      1.0  0.22026  0.83481  0.37559  1.0000
  C   C157      1.0  0.49896  0.66983  0.35251  1.0000
  H   H179      1.0  0.40650  0.90674  0.37336  1.0000
  C   C158      1.0  0.48429  0.01161  0.22982  1.0000
  H   H180      1.0  0.33459  0.08050  0.40789  1.0000
  Fe  Fe23      1.0  0.37640  0.71906  0.25934  1.0000
  H   H181      1.0  0.49413  0.97967  0.25347  1.0000
  H   H182      1.0  0.47667  0.06059  0.44260  1.0000
  C   C159      1.0  0.05615  0.89826  0.22132  1.0000
  H   H183      1.0  0.52018  0.81659  0.22888  1.0000
  S   S43       1.0  0.34058  0.11040  0.28293  1.0000
  C   C160      1.0  0.29373  0.94174  0.47387  1.0000
  H   H184      1.0  0.03817  0.62525  0.62832  1.0000
  H   H185      1.0  0.47504  0.98682  0.52353  1.0000
  C   C161      1.0  0.33995  0.65417  0.63140  1.0000
  Fe  Fe24      1.0  0.49917  0.94284  0.65974  1.0000
  C   C162      1.0  0.25326  0.75772  0.63281  1.0000
  S   S44       1.0  0.45230  0.83290  0.69108  1.0000
  C   C163      1.0  0.37107  0.69177  0.52470  1.0000
  H   H186      1.0  0.04205  0.69170  0.69546  1.0000
  C   C164      1.0  0.29140  0.69489  0.57936  1.0000
  S   S45       1.0  0.45179  0.99484  0.66287  1.0000
  C   C165      1.0  0.22923  0.75908  0.58569  1.0000
  H   H187      1.0  0.35922  0.62293  0.62858  1.0000
  C   C166      1.0  0.27575  0.93093  0.53649  1.0000
  H   H188      1.0  0.37181  0.70437  0.63918  1.0000
  C   C167      1.0  0.47004  0.67452  0.61771  1.0000
  H   H189      1.0  0.08079  0.08594  0.64810  1.0000
  H   H190      1.0  0.39948  0.74463  0.53003  1.0000
  H   H191      1.0  0.29491  0.91913  0.62090  1.0000
  H   H192      1.0  0.16371  0.03237  0.71741  1.0000
  H   H193      1.0  0.12342  0.01574  0.66191  1.0000
  C   C168      1.0  0.28405  0.72628  0.62999  1.0000
  H   H194      1.0  0.39547  0.66650  0.52147  1.0000
  H   H195      1.0  0.34887  0.86978  0.70358  1.0000
  S   S46       1.0  0.49419  0.74644  0.56655  1.0000
  H   H196      1.0  0.46800  0.72281  0.69652  1.0000
  C   C169      1.0  0.30899  0.92782  0.57213  1.0000
  H   H197      1.0  0.18921  0.09103  0.64937  1.0000
  H   H198      1.0  0.23571  0.92437  0.55717  1.0000
  C   C170      1.0  0.46029  0.67702  0.67978  1.0000
  H   H199      1.0  0.21857  0.73251  0.49811  1.0000
  C   C171      1.0  0.36012  0.93485  0.54525  1.0000
  C   C172      1.0  0.26830  0.69978  0.53104  1.0000
  H   H200      1.0  0.36045  0.69224  0.48045  1.0000
  H   H201      1.0  0.44026  0.89729  0.52235  1.0000
  N   N10       1.0  0.32126  0.65817  0.57588  1.0000
  H   H202      1.0  0.32006  0.03595  0.66945  1.0000
  Fe  Fe25      1.0  0.51708  0.83140  0.61981  1.0000
  C   C173      1.0  0.23727  0.73090  0.53465  1.0000
  H   H203      1.0  0.38367  0.93195  0.57561  1.0000
  C   C174      1.0  0.46433  0.94721  0.49372  1.0000
  H   H204      1.0  0.20404  0.78175  0.58872  1.0000
  H   H205      1.0  0.24635  0.77915  0.67277  1.0000
  C   C175      1.0  0.15150  0.05593  0.68509  1.0000
  H   H206      1.0  0.30049  0.72597  0.66867  1.0000
  N   N11       1.0  0.12395  0.08945  0.71713  1.0000
  H   H207      1.0  0.30459  0.63009  0.67191  1.0000
  C   C176      1.0  0.37945  0.94533  0.48130  1.0000
  C   C177      1.0  0.31198  0.02953  0.71966  1.0000
  H   H208      1.0  0.27348  0.67880  0.49030  1.0000
  C   C178      1.0  0.45947  0.61428  0.59701  1.0000
  C   C179      1.0  0.60400  0.31811  0.93968  1.0000
  C   C180      1.0  0.66345  0.48548  0.73799  1.0000
  C   C181      1.0  0.58534  0.46308  0.92597  1.0000
  H   H209      1.0  0.86118  0.57585  0.74398  1.0000
  C   C182      1.0  0.68867  0.50028  0.78680  1.0000
  H   H210      1.0  0.93039  0.26099  0.89721  1.0000
  H   H211      1.0  0.98040  0.36106  0.83052  1.0000
  H   H212      1.0  0.95356  0.20278  0.89916  1.0000
  H   H213      1.0  0.57154  0.31569  0.80332  1.0000
  C   C183      1.0  0.97341  0.53851  0.72641  1.0000
  Fe  Fe26      1.0  0.79367  0.31850  0.80387  1.0000
  H   H214      1.0  0.01520  0.57552  0.73284  1.0000
  S   S47       1.0  0.90266  0.36345  0.96511  1.0000
  H   H215      1.0  0.97225  0.60448  0.93595  1.0000
  S   S48       1.0  0.82459  0.26233  0.84890  1.0000
  H   H216      1.0  0.67660  0.46090  0.82273  1.0000
  H   H217      1.0  0.98172  0.26402  0.83419  1.0000
  H   H218      1.0  0.01344  0.47855  0.80630  1.0000
  N   N12       1.0  0.01269  0.30266  0.91216  1.0000
  H   H219      1.0  0.56452  0.42219  0.96500  1.0000
  S   S49       1.0  0.75206  0.58696  0.85565  1.0000
  H   H220      1.0  0.58148  0.54686  0.84531  1.0000
  S   S50       1.0  0.70442  0.24969  0.85058  1.0000
  C   C184      1.0  0.59963  0.56749  0.88416  1.0000
  C   C185      1.0  0.61109  0.32390  0.87689  1.0000
  C   C186      1.0  0.56609  0.31040  0.85181  1.0000
  C   C187      1.0  0.96756  0.25593  0.88428  1.0000
  H   H221      1.0  0.90540  0.36078  0.74593  1.0000
  N   N13       1.0  0.57214  0.51608  0.93848  1.0000
  H   H222      1.0  0.64480  0.58591  0.87028  1.0000
  H   H223      1.0  0.57309  0.44157  0.88472  1.0000
  H   H224      1.0  0.94431  0.51833  0.77195  1.0000
  C   C188      1.0  0.93848  0.49779  0.94897  1.0000
  H   H225      1.0  0.63071  0.48248  0.91807  1.0000
  C   C189      1.0  0.73234  0.12056  0.78278  1.0000
  Fe  Fe27      1.0  0.73560  0.19710  0.89937  1.0000
  H   H226      1.0  0.87243  0.13618  0.85741  1.0000
  S   S51       1.0  0.80942  0.39144  0.87002  1.0000
  H   H227      1.0  0.92518  0.49022  0.90715  1.0000
  H   H228      1.0  0.61037  0.17343  0.72663  1.0000
  Fe  Fe28      1.0  0.83229  0.32863  0.91982  1.0000
  H   H229      1.0  0.75532  0.17114  0.79124  1.0000
  C   C190      1.0  0.72755  0.56651  0.79046  1.0000
  H   H230      1.0  0.86946  0.48739  0.72191  1.0000
  H   H231      1.0  0.81560  0.57931  0.96493  1.0000
  H   H232      1.0  0.63212  0.43444  0.73612  1.0000
  C   C191      1.0  0.01215  0.39563  0.85163  1.0000
  H   H233      1.0  0.65146  0.34039  0.84774  1.0000
  Fe  Fe29      1.0  0.72200  0.31648  0.92122  1.0000
  C   C192      1.0  0.96531  0.56237  0.96518  1.0000
  S   S52       1.0  0.02566  0.17175  0.79629  1.0000
  H   H234      1.0  0.59536  0.61165  0.89191  1.0000
  H   H235      1.0  0.83025  0.49060  0.96852  1.0000
  H   H236      1.0  0.75926  0.46617  0.96850  1.0000
  C   C193      1.0  0.86920  0.54660  0.21972  1.0000
  C   C194      1.0  0.55848  0.23116  0.13185  1.0000
  C   C195      1.0  0.98286  0.57209  0.01922  1.0000
  C   C196      1.0  0.82126  0.28125  0.12134  1.0000
  H   H237      1.0  0.64772  0.23025  0.07735  1.0000
  N   N14       1.0  0.55881  0.17073  0.11401  1.0000
  C   C197      1.0  0.73326  0.17722  0.15403  1.0000
  H   H238      1.0  0.63388  0.51585  0.10404  1.0000
  Fe  Fe30      1.0  0.92766  0.16578  0.12067  1.0000
  H   H239      1.0  0.96963  0.23086  0.99388  1.0000
  H   H240      1.0  0.91513  0.36613  0.16851  1.0000
  H   H241      1.0  0.98746  0.52464  0.09823  1.0000
  H   H242      1.0  0.60047  0.58798  0.12796  1.0000
  H   H243      1.0  0.80800  0.40734  0.07734  1.0000
  H   H244      1.0  0.94487  0.34247  0.21961  1.0000
  H   H245      1.0  0.85707  0.49571  0.06921  1.0000
  S   S53       1.0  0.74572  0.25790  0.97496  1.0000
  C   C198      1.0  0.94974  0.45391  0.03902  1.0000
  H   H246      1.0  0.77490  0.40552  0.99140  1.0000
  H   H247      1.0  0.94541  0.41239  0.06646  1.0000
  C   C199      1.0  0.65146  0.50591  0.18990  1.0000
  H   H248      1.0  0.02336  0.31106  0.00355  1.0000
  H   H249      1.0  0.56489  0.23826  0.17833  1.0000
  H   H250      1.0  0.68925  0.43123  0.06606  1.0000
  H   H251      1.0  0.76798  0.52472  0.16037  1.0000
  H   H252      1.0  0.80089  0.45259  0.13555  1.0000
  H   H253      1.0  0.54620  0.29253  0.02549  1.0000
  H   H254      1.0  0.59685  0.59361  0.99609  1.0000
  N   N15       1.0  0.77673  0.47066  0.05663  1.0000
  C   C200      1.0  0.76428  0.24697  0.14773  1.0000
  C   C201      1.0  0.80854  0.58907  0.01086  1.0000
  C   C202      1.0  0.93552  0.38125  0.20660  1.0000
  H   H255      1.0  0.53480  0.31978  0.20856  1.0000
  H   H256      1.0  0.95881  0.29972  0.99338  1.0000
  H   H257      1.0  0.70650  0.36962  0.08306  1.0000
  S   S54       1.0  0.99804  0.15541  0.07132  1.0000
  C   C203      1.0  0.78227  0.55945  0.11962  1.0000
  C   C204      1.0  0.62353  0.48205  0.14413  1.0000
  H   H258      1.0  0.68177  0.55851  0.18609  1.0000
  C   C205      1.0  0.56830  0.37128  0.20259  1.0000
  C   C206      1.0  0.97382  0.51747  0.05671  1.0000
  H   H259      1.0  0.64069  0.56006  0.98183  1.0000
  S   S55       1.0  0.84880  0.12952  0.08978  1.0000
  C   C207      1.0  0.59661  0.54667  0.98934  1.0000
  C   C208      1.0  0.81238  0.45639  0.08593  1.0000
  C   C209      1.0  0.71757  0.42221  0.08679  1.0000
  C   C210      1.0  0.55183  0.29676  0.97714  1.0000
  H   H260      1.0  0.89206  0.27212  0.08514  1.0000
  C   C211      1.0  0.78952  0.53981  0.06189  1.0000
  C   C212      1.0  0.54752  0.16124  0.05316  1.0000
  C   C213      1.0  0.99043  0.28553  0.97859  1.0000
  H   H261      1.0  0.59200  0.27747  0.10086  1.0000
  H   H262      1.0  0.70749  0.42445  0.13588  1.0000
  C   C214      1.0  0.78595  0.45825  0.99328  1.0000
  H   H263      1.0  0.68922  0.15099  0.17395  1.0000
  H   H264      1.0  0.97637  0.42817  0.18966  1.0000
  S   S56       1.0  0.73302  0.29000  0.18066  1.0000
  S   S57       1.0  0.98339  0.26863  0.14093  1.0000
  H   H265      1.0  0.62731  0.19248  0.15376  1.0000
  C   C215      1.0  0.58082  0.41527  0.15130  1.0000
  C   C216      1.0  0.81673  0.17550  0.11086  1.0000
  C   C217      1.0  0.75921  0.14150  0.13480  1.0000
  C   C218      1.0  0.61591  0.18406  0.10952  1.0000
  H   H266      1.0  0.84498  0.33526  0.11555  1.0000
  S   S58       1.0  0.54214  0.38905  0.09691  1.0000
  H   H267      1.0  0.58188  0.20192  0.01772  1.0000
  C   C219      1.0  0.84781  0.24547  0.10430  1.0000
  H   H268      1.0  0.62076  0.14259  0.09281  1.0000
  H   H269      1.0  0.95824  0.61004  0.19509  1.0000
  H   H270      1.0  0.57309  0.51142  0.03221  1.0000
  C   C220      1.0  0.93139  0.44372  0.98569  1.0000
  H   H271      1.0  0.97538  0.52037  0.21518  1.0000
  H   H272      1.0  0.53938  0.50682  0.21938  1.0000
  C   C221      1.0  0.92328  0.55938  0.20987  1.0000
  H   H273      1.0  0.86188  0.58705  0.21242  1.0000
  S   S59       1.0  0.65946  0.33798  0.97295  1.0000
  S   S60       1.0  0.92070  0.11435  0.20874  1.0000
  N   N16       1.0  0.89931  0.38804  0.25832  1.0000
  H   H274      1.0  0.55564  0.37214  0.42847  1.0000
  Fe  Fe31      1.0  0.68316  0.59029  0.30838  1.0000
  S   S61       1.0  0.71498  0.17009  0.31356  1.0000
  H   H275      1.0  0.85433  0.51079  0.35781  1.0000
  S   S62       1.0  0.98984  0.57006  0.35848  1.0000
  H   H276      1.0  0.82446  0.30331  0.24418  1.0000
  Fe  Fe32      1.0  0.68706  0.23277  0.27367  1.0000
  C   C222      1.0  0.83981  0.55688  0.43395  1.0000
  Fe  Fe33      1.0  0.98816  0.58797  0.45445  1.0000
  H   H277      1.0  0.89759  0.12144  0.40873  1.0000
  C   C223      1.0  0.88809  0.44069  0.24131  1.0000
  H   H278      1.0  0.86175  0.18428  0.44784  1.0000
  C   C224      1.0  0.64075  0.46169  0.23995  1.0000
  C   C225      1.0  0.82439  0.48175  0.24011  1.0000
  C   C226      1.0  0.01362  0.32880  0.31488  1.0000
  H   H279      1.0  0.88402  0.58886  0.42891  1.0000
  C   C227      1.0  0.84827  0.32103  0.27959  1.0000
  C   C228      1.0  0.72704  0.46894  0.44096  1.0000
  H   H280      1.0  0.57324  0.47268  0.37174  1.0000
  S   S63       1.0  0.78120  0.24126  0.43749  1.0000
  H   H281      1.0  0.59123  0.35986  0.28496  1.0000
  H   H282      1.0  0.75410  0.43393  0.36334  1.0000
  C   C229      1.0  0.83340  0.42913  0.24974  1.0000
  H   H283      1.0  0.79676  0.38000  0.26456  1.0000
  C   C230      1.0  0.82320  0.51191  0.39243  1.0000
  S   S64       1.0  0.59693  0.15294  0.30359  1.0000
  C   C231      1.0  0.76696  0.46843  0.39569  1.0000
  S   S65       1.0  0.62141  0.13855  0.43703  1.0000
  C   C232      1.0  0.92829  0.40718  0.30788  1.0000
  S   S66       1.0  0.68798  0.28606  0.35406  1.0000
  Fe  Fe34      1.0  0.59922  0.20174  0.38695  1.0000
  H   H284      1.0  0.89493  0.32888  0.43383  1.0000
  C   C233      1.0  0.59982  0.39401  0.24592  1.0000
  H   H285      1.0  0.68335  0.43485  0.44318  1.0000
  H   H286      1.0  0.85800  0.28232  0.29181  1.0000
  H   H287      1.0  0.98252  0.33355  0.40747  1.0000
  H   H288      1.0  0.90645  0.42216  0.34414  1.0000
  C   C234      1.0  0.01106  0.36175  0.36472  1.0000
  S   S67       1.0  0.96665  0.24334  0.31867  1.0000
  S   S68       1.0  0.67684  0.49218  0.29609  1.0000
  Fe  Fe35      1.0  0.70991  0.21771  0.39627  1.0000
  S   S69       1.0  0.66457  0.60934  0.40297  1.0000
  H   H289      1.0  0.82074  0.32141  0.32107  1.0000
  H   H290      1.0  0.95530  0.21120  0.44973  1.0000
  H   H291      1.0  0.97188  0.44977  0.29252  1.0000
  H   H292      1.0  0.93027  0.36508  0.32835  1.0000
  H   H293      1.0  0.78221  0.47196  0.24851  1.0000
  C   C235      1.0  0.87276  0.35270  0.45292  1.0000
  C   C236      1.0  0.81536  0.32037  0.45980  1.0000
  H   H294      1.0  0.53314  0.23264  0.30415  1.0000
  Fe  Fe36      1.0  0.98135  0.21582  0.22619  1.0000
  C   C237      1.0  0.52927  0.44764  0.36823  1.0000
  S   S70       1.0  0.52783  0.60169  0.42486  1.0000
  H   H295      1.0  0.94650  0.44140  0.46352  1.0000
  C   C238      1.0  0.93273  0.50750  0.22100  1.0000
  C   C239      1.0  0.90185  0.41618  0.46991  1.0000
  C   C240      1.0  0.64872  0.24415  0.61738  1.0000
  N   N17       1.0  0.95444  0.56896  0.68620  1.0000
  H   H296      1.0  0.53633  0.44290  0.48583  1.0000
  C   C241      1.0  0.62021  0.12455  0.61964  1.0000
  H   H297      1.0  0.69471  0.40930  0.62970  1.0000
  H   H298      1.0  0.72303  0.21797  0.55642  1.0000
  H   H299      1.0  0.81390  0.59995  0.62070  1.0000
  H   H300      1.0  0.99359  0.37153  0.69120  1.0000
  H   H301      1.0  0.82451  0.11538  0.61078  1.0000
  N   N18       1.0  0.81616  0.60583  0.52555  1.0000
  N   N19       1.0  0.65840  0.19054  0.63600  1.0000
  H   H302      1.0  0.55958  0.59704  0.61008  1.0000
  H   H303      1.0  0.93683  0.34216  0.52795  1.0000
  Fe  Fe37      1.0  0.55684  0.44202  0.67216  1.0000
  H   H304      1.0  0.71095  0.32066  0.65825  1.0000
  C   C242      1.0  0.92964  0.34532  0.57565  1.0000
  C   C243      1.0  0.87066  0.34383  0.66794  1.0000
  H   H305      1.0  0.76620  0.14860  0.68693  1.0000
  H   H306      1.0  0.99245  0.55135  0.60243  1.0000
  H   H307      1.0  0.75650  0.53030  0.60066  1.0000
  C   C244      1.0  0.89977  0.51549  0.67811  1.0000
  C   C245      1.0  0.60228  0.28659  0.56526  1.0000
  H   H308      1.0  0.85572  0.22215  0.51306  1.0000
  C   C246      1.0  0.65139  0.18175  0.70246  1.0000
  C   C247      1.0  0.87958  0.33841  0.60664  1.0000
  C   C248      1.0  0.67865  0.53675  0.69201  1.0000
  C   C249      1.0  0.71591  0.20945  0.60619  1.0000
  H   H309      1.0  0.89460  0.13741  0.61233  1.0000
  C   C250      1.0  0.74319  0.51310  0.48319  1.0000
  H   H310      1.0  0.88158  0.53610  0.65148  1.0000
  C   C251      1.0  0.67137  0.36060  0.61610  1.0000
  C   C252      1.0  0.67972  0.30912  0.63300  1.0000
  C   C253      1.0  0.96164  0.36132  0.66773  1.0000
  H   H311      1.0  0.72455  0.16958  0.61701  1.0000
  H   H312      1.0  0.97731  0.14487  0.69167  1.0000
  H   H313      1.0  0.84804  0.32989  0.58290  1.0000
  H   H314      1.0  0.74173  0.32508  0.49228  1.0000
  C   C254      1.0  0.91157  0.35501  0.69877  1.0000
  C   C255      1.0  0.84984  0.17447  0.49807  1.0000
  H   H315      1.0  0.74759  0.25593  0.61976  1.0000
  H   H316      1.0  0.87864  0.20095  0.60203  1.0000
  S   S71       1.0  0.80966  0.34072  0.70416  1.0000
  C   C256      1.0  0.78630  0.35014  0.48639  1.0000
  H   H317      1.0  0.68432  0.22576  0.71765  1.0000
  C   C257      1.0  0.80015  0.55928  0.48042  1.0000
  H   H318      1.0  0.58433  0.18705  0.56815  1.0000
  C   C258      1.0  0.86947  0.15098  0.59013  1.0000
  H   H319      1.0  0.90339  0.47727  0.65282  1.0000
  C   C259      1.0  0.63290  0.34945  0.58213  1.0000
  C   C260      1.0  0.71951  0.60253  0.69440  1.0000
  S   S72       1.0  0.64573  0.51899  0.63231  1.0000
  C   C261      1.0  0.94276  0.20221  0.49993  1.0000
  H   H320      1.0  0.82280  0.53786  0.58369  1.0000
  C   C262      1.0  0.97069  0.35680  0.60596  1.0000
  C   C263      1.0  0.99415  0.59343  0.62586  1.0000
  C   C264      1.0  0.80179  0.56700  0.58532  1.0000
  C   C265      1.0  0.60975  0.23443  0.58260  1.0000
  H   H321      1.0  0.95407  0.25176  0.51422  1.0000
  N   N20       1.0  0.88275  0.15202  0.52367  1.0000
  H   H322      1.0  0.62630  0.38940  0.56954  1.0000
  S   S73       1.0  0.90938  0.52168  0.52434  1.0000
  H   H323      1.0  0.71068  0.51067  0.51819  1.0000
  H   H324      1.0  0.79222  0.43308  0.53068  1.0000
  C   C266      1.0  0.87284  0.44468  0.49902  1.0000
  H   H325      1.0  0.96908  0.18611  0.51630  1.0000
  H   H326      1.0  0.74076  0.60860  0.55072  1.0000
  C   C267      1.0  0.81489  0.41129  0.50801  1.0000
  H   H327      1.0  0.80451  0.13652  0.51234  1.0000
  H   H328      1.0  0.97637  0.49664  0.70757  1.0000
  H   H329      1.0  0.62568  0.12634  0.56987  1.0000
  H   H330      1.0  0.57210  0.27781  0.53894  1.0000
  H   H331      1.0  0.65408  0.13825  0.71838  1.0000
  C   C268      1.0  0.73735  0.96205  0.88896  1.0000
  C   C269      1.0  0.90304  0.98075  0.80432  1.0000
  H   H332      1.0  0.88333  0.93519  0.83564  1.0000
  C   C270      1.0  0.97143  0.09946  0.77824  1.0000
  C   C271      1.0  0.95401  0.83888  0.91928  1.0000
  S   S74       1.0  0.68712  0.08587  0.90486  1.0000
  C   C272      1.0  0.56984  0.80161  0.84955  1.0000
  H   H333      1.0  0.86164  0.66945  0.78730  1.0000
  C   C273      1.0  0.66946  0.99085  0.75813  1.0000
  C   C274      1.0  0.57782  0.74889  0.93723  1.0000
  S   S75       1.0  0.84510  0.78487  0.84388  1.0000
  C   C275      1.0  0.66453  0.00351  0.81800  1.0000
  C   C276      1.0  0.00878  0.86006  0.88976  1.0000
  C   C277      1.0  0.90080  0.67375  0.76658  1.0000
  Fe  Fe38      1.0  0.81682  0.80352  0.93595  1.0000
  C   C278      1.0  0.81689  0.05388  0.81867  1.0000
  C   C279      1.0  0.94380  0.04026  0.81915  1.0000
  Fe  Fe39      1.0  0.79775  0.82802  0.81413  1.0000
  H   H334      1.0  0.53158  0.07814  0.87444  1.0000
  Fe  Fe40      1.0  0.76378  0.68773  0.86686  1.0000
  H   H335      1.0  0.57003  0.01836  0.89995  1.0000
  C   C280      1.0  0.74347  0.61750  0.74396  1.0000
  H   H336      1.0  0.84030  0.07660  0.77271  1.0000
  H   H337      1.0  0.58705  0.82721  0.80373  1.0000
  H   H338      1.0  0.92065  0.79005  0.91530  1.0000
  C   C281      1.0  0.88838  0.98034  0.74926  1.0000
  S   S76       1.0  0.77433  0.85262  0.90526  1.0000
  C   C282      1.0  0.53012  0.97117  0.90158  1.0000
  C   C283      1.0  0.83485  0.08745  0.86659  1.0000
  H   H339      1.0  0.75539  0.96468  0.79237  1.0000
  C   C284      1.0  0.80471  0.05824  0.92605  1.0000
  H   H340      1.0  0.53955  0.93036  0.90166  1.0000
  C   C285      1.0  0.98633  0.94249  0.96143  1.0000
  H   H341      1.0  0.64453  0.94065  0.74878  1.0000
  H   H342      1.0  0.01712  0.82840  0.86164  1.0000
  C   C286      1.0  0.75468  0.99468  0.93912  1.0000
  H   H343      1.0  0.63649  0.96288  0.85445  1.0000
  C   C287      1.0  0.94283  0.87964  0.95581  1.0000
  S   S77       1.0  0.71825  0.72863  0.82832  1.0000
  C   C288      1.0  0.90126  0.62029  0.74086  1.0000
  C   C289      1.0  0.76882  0.99093  0.82986  1.0000
  C   C290      1.0  0.69552  0.06872  0.83041  1.0000
  H   H344      1.0  0.64089  0.79334  0.85370  1.0000
  S   S78       1.0  0.73878  0.70329  0.96109  1.0000
  H   H345      1.0  0.95466  0.03991  0.86199  1.0000
  H   H346      1.0  0.69987  0.91385  0.89405  1.0000
  C   C291      1.0  0.60030  0.78245  0.87786  1.0000
  H   H347      1.0  0.77387  0.66875  0.74653  1.0000
  Fe  Fe41      1.0  0.69855  0.75051  0.92167  1.0000
  H   H348      1.0  0.94965  0.77329  0.78701  1.0000
  S   S79       1.0  0.83511  0.90623  0.73238  1.0000
  C   C292      1.0  0.95040  0.73238  0.76647  1.0000
  C   C293      1.0  0.95715  0.09922  0.72290  1.0000
  C   C294      1.0  0.00087  0.73795  0.74051  1.0000
  S   S80       1.0  0.55328  0.96592  0.72434  1.0000
  H   H349      1.0  0.82079  0.08582  0.96183  1.0000
  H   H350      1.0  0.71429  0.81718  0.73064  1.0000
  C   C295      1.0  0.73835  0.10768  0.72315  1.0000
  S   S81       1.0  0.87491  0.85102  0.99598  1.0000
  H   H351      1.0  0.66793  0.79772  0.10295  1.0000
  N   N21       1.0  0.96888  0.79242  0.11553  1.0000
  S   S82       1.0  0.99399  0.01621  0.17531  1.0000
  H   H352      1.0  0.96327  0.69828  0.13446  1.0000
  H   H353      1.0  0.92963  0.00061  0.08844  1.0000
  H   H354      1.0  0.68605  0.98758  0.08158  1.0000
  H   H355      1.0  0.74508  0.05902  0.03383  1.0000
  C   C296      1.0  0.54303  0.61791  0.17334  1.0000
  C   C297      1.0  0.60496  0.98377  0.18206  1.0000
  S   S83       1.0  0.74481  0.80650  0.17578  1.0000
  C   C298      1.0  0.63331  0.74821  0.12259  1.0000
  H   H356      1.0  0.95635  0.77526  0.02581  1.0000
  N   N22       1.0  0.72404  0.96410  0.00254  1.0000
  H   H357      1.0  0.97893  0.87541  0.20552  1.0000
  H   H358      1.0  0.67752  0.70038  0.08758  1.0000
  H   H359      1.0  0.57985  0.78296  0.16276  1.0000
  H   H360      1.0  0.56839  0.07850  0.18547  1.0000
  C   C299      1.0  0.80716  0.66925  0.07511  1.0000
  H   H361      1.0  0.64885  0.87775  0.05618  1.0000
  H   H362      1.0  0.95305  0.87312  0.10928  1.0000
  C   C300      1.0  0.81765  0.65289  0.01781  1.0000
  C   C301      1.0  0.93664  0.72053  0.14052  1.0000
  Fe  Fe42      1.0  0.99531  0.11177  0.16105  1.0000
  H   H363      1.0  0.73769  0.92717  0.08150  1.0000
  C   C302      1.0  0.90349  0.96191  0.12686  1.0000
  C   C303      1.0  0.01301  0.86715  0.19186  1.0000
  C   C304      1.0  0.59401  0.62850  0.13791  1.0000
  H   H364      1.0  0.91839  0.71293  0.18988  1.0000
  H   H365      1.0  0.97751  0.97426  0.98931  1.0000
  C   C305      1.0  0.63858  0.69290  0.11379  1.0000
  H   H366      1.0  0.83199  0.91827  0.08869  1.0000
  C   C306      1.0  0.84806  0.91550  0.12711  1.0000
  H   H367      1.0  0.73903  0.95100  0.18908  1.0000
  C   C307      1.0  0.93028  0.81802  0.12359  1.0000
  H   H368      1.0  0.81145  0.71765  0.08001  1.0000
  H   H369      1.0  0.62342  0.02019  0.14163  1.0000
  C   C308      1.0  0.76008  0.95363  0.03465  1.0000
  H   H370      1.0  0.90571  0.80598  0.17109  1.0000
  C   C309      1.0  0.99066  0.79935  0.04946  1.0000
  H   H371      1.0  0.73493  0.08748  0.14022  1.0000
  C   C310      1.0  0.79066  0.62309  0.12592  1.0000
  C   C311      1.0  0.01460  0.82718  0.14646  1.0000
  H   H372      1.0  0.89919  0.79573  0.09593  1.0000
  H   H373      1.0  0.83161  0.68943  0.97834  1.0000
  C   C312      1.0  0.70849  0.00907  0.03367  1.0000
  C   C313      1.0  0.58395  0.73973  0.15678  1.0000
  S   S84       1.0  0.55276  0.88900  0.11202  1.0000
  H   H374      1.0  0.77539  0.92313  0.01085  1.0000
  C   C314      1.0  0.67193  0.89849  0.00826  1.0000
  H   H375      1.0  0.68052  0.01717  0.01159  1.0000
  H   H376      1.0  0.90261  0.69151  0.11780  1.0000
  C   C315      1.0  0.57123  0.91574  0.17898  1.0000
  S   S85       1.0  0.01895  0.65252  0.03901  1.0000
  C   C316      1.0  0.81399  0.86490  0.17625  1.0000
  C   C317      1.0  0.92521  0.95710  0.17537  1.0000
  C   C318      1.0  0.53952  0.67560  0.18216  1.0000
  H   H377      1.0  0.64268  0.90293  0.98536  1.0000
  H   H378      1.0  0.79726  0.00164  0.03825  1.0000
  H   H379      1.0  0.54448  0.00272  0.01138  1.0000
  H   H380      1.0  0.78302  0.63608  0.17051  1.0000
  H   H381      1.0  0.68041  0.86043  0.98934  1.0000
  H   H382      1.0  0.01705  0.85271  0.02889  1.0000
  H   H383      1.0  0.01489  0.77459  0.03805  1.0000
  S   S86       1.0  0.61381  0.72285  0.97375  1.0000
  H   H384      1.0  0.77664  0.05667  0.21999  1.0000
  H   H385      1.0  0.54276  0.11330  0.04048  1.0000
  H   H386      1.0  0.53270  0.85379  0.32822  1.0000
  C   C319      1.0  0.61104  0.84903  0.41433  1.0000
  H   H387      1.0  0.57128  0.80234  0.42247  1.0000
  H   H388      1.0  0.80872  0.82598  0.26563  1.0000
  C   C320      1.0  0.87216  0.01865  0.42546  1.0000
  C   C321      1.0  0.58491  0.95821  0.29093  1.0000
  H   H389      1.0  0.75196  0.01587  0.38906  1.0000
  C   C322      1.0  0.78549  0.96232  0.28214  1.0000
  H   H390      1.0  0.90705  0.90492  0.26371  1.0000
  C   C323      1.0  0.84211  0.69329  0.35934  1.0000
  Fe  Fe43      1.0  0.62523  0.09545  0.35156  1.0000
  H   H391      1.0  0.77652  0.06918  0.29623  1.0000
  C   C324      1.0  0.91518  0.79989  0.37593  1.0000
  C   C325      1.0  0.85859  0.75394  0.38183  1.0000
  C   C326      1.0  0.88178  0.68098  0.32637  1.0000
  C   C327      1.0  0.62724  0.88371  0.46228  1.0000
  H   H392      1.0  0.84545  0.91601  0.45407  1.0000
  H   H393      1.0  0.62956  0.84565  0.32083  1.0000
  H   H394      1.0  0.54198  0.69743  0.32749  1.0000
  S   S87       1.0  0.01436  0.69580  0.43455  1.0000
  C   C328      1.0  0.54643  0.86899  0.23144  1.0000
  Fe  Fe44      1.0  0.73765  0.71306  0.37125  1.0000
  H   H395      1.0  0.88180  0.01510  0.37781  1.0000
  S   S88       1.0  0.68642  0.75309  0.34718  1.0000
  C   C329      1.0  0.88126  0.07939  0.44369  1.0000
  H   H396      1.0  0.99884  0.82185  0.33985  1.0000
  C   C330      1.0  0.89097  0.90745  0.22514  1.0000
  C   C331      1.0  0.95508  0.78633  0.34471  1.0000
  C   C332      1.0  0.70987  0.92805  0.23442  1.0000
  C   C333      1.0  0.93825  0.72777  0.31829  1.0000
  S   S89       1.0  0.75997  0.69058  0.27872  1.0000
  H   H397      1.0  0.80978  0.99451  0.31288  1.0000
  H   H398      1.0  0.70000  0.87546  0.24076  1.0000
  Fe  Fe45      1.0  0.61489  0.64674  0.36902  1.0000
  S   S90       1.0  0.80775  0.77184  0.41535  1.0000
  H   H399      1.0  0.92818  0.84641  0.39414  1.0000
  C   C334      1.0  0.71274  0.96957  0.39429  1.0000
  H   H400      1.0  0.71356  0.03985  0.27163  1.0000
  H   H401      1.0  0.67132  0.92790  0.23261  1.0000
  N   N23       1.0  0.73475  0.96478  0.28285  1.0000
  S   S91       1.0  0.63018  0.62294  0.27548  1.0000
  H   H402      1.0  0.63564  0.05746  0.24169  1.0000
  H   H403      1.0  0.79855  0.65542  0.36740  1.0000
  Fe  Fe46      1.0  0.02186  0.67908  0.33822  1.0000
  Fe  Fe47      1.0  0.70614  0.72663  0.25580  1.0000
  S   S92       1.0  0.58888  0.98498  0.36114  1.0000
  C   C335      1.0  0.75097  0.03551  0.26718  1.0000
  C   C336      1.0  0.69698  0.93650  0.34393  1.0000
  C   C337      1.0  0.64516  0.87478  0.35587  1.0000
  S   S93       1.0  0.98709  0.71225  0.27498  1.0000
  H   H404      1.0  0.77466  0.91033  0.29646  1.0000
  H   H405      1.0  0.86853  0.63473  0.30784  1.0000
  C   C338      1.0  0.55333  0.89008  0.28749  1.0000
  C   C339      1.0  0.61142  0.00497  0.23837  1.0000
  H   H406      1.0  0.81386  0.97944  0.23613  1.0000
  C   C340      1.0  0.83526  0.86197  0.22585  1.0000
  C   C341      1.0  0.67800  0.94377  0.45241  1.0000
  H   H407      1.0  0.89006  0.68650  0.46527  1.0000
  C   C342      1.0  0.85202  0.96295  0.46833  1.0000
  H   H408      1.0  0.66823  0.71369  0.68787  1.0000
  H   H409      1.0  0.65274  0.62719  0.54017  1.0000
  C   C343      1.0  0.71734  0.87908  0.65728  1.0000
  C   C344      1.0  0.84096  0.96787  0.52960  1.0000
  C   C345      1.0  0.84964  0.02830  0.54837  1.0000
  H   H410      1.0  0.57591  0.10653  0.64127  1.0000
  S   S94       1.0  0.57324  0.84595  0.68101  1.0000
  C   C346      1.0  0.58636  0.64238  0.62923  1.0000
  H   H411      1.0  0.58196  0.72334  0.54474  1.0000
  N   N24       1.0  0.63292  0.69630  0.58182  1.0000
  H   H412      1.0  0.88671  0.69409  0.54367  1.0000
  C   C347      1.0  0.91572  0.03964  0.70834  1.0000
  H   H413      1.0  0.73164  0.64243  0.65919  1.0000
  H   H414      1.0  0.71666  0.92898  0.57755  1.0000
  H   H415      1.0  0.60080  0.62416  0.66313  1.0000
  C   C348      1.0  0.00185  0.68516  0.71414  1.0000
  C   C349      1.0  0.70548  0.04313  0.71063  1.0000
  H   H416      1.0  0.98456  0.62241  0.59584  1.0000
  C   C350      1.0  0.95215  0.62487  0.71288  1.0000
  S   S95       1.0  0.55972  0.94049  0.58275  1.0000
  S   S96       1.0  0.70161  0.02948  0.63628  1.0000
  C   C351      1.0  0.67298  0.67533  0.55854  1.0000
  Fe  Fe48      1.0  0.61091  0.95500  0.65009  1.0000
  H   H417      1.0  0.58350  0.65367  0.51678  1.0000
  C   C352      1.0  0.67683  0.75925  0.66295  1.0000
  C   C353      1.0  0.78548  0.64168  0.52971  1.0000
  C   C354      1.0  0.67835  0.82268  0.57615  1.0000
  C   C355      1.0  0.70361  0.81826  0.68773  1.0000
  H   H418      1.0  0.62876  0.08567  0.63432  1.0000
  C   C356      1.0  0.70520  0.88133  0.60137  1.0000
  H   H419      1.0  0.78850  0.66272  0.48426  1.0000
  H   H420      1.0  0.73796  0.92467  0.67680  1.0000
  H   H421      1.0  0.70818  0.71383  0.52202  1.0000
  H   H422      1.0  0.69090  0.66762  0.59469  1.0000
  H   H423      1.0  0.69018  0.97086  0.48990  1.0000
  H   H424      1.0  0.83977  0.02817  0.59655  1.0000
  C   C357      1.0  0.60929  0.70282  0.53130  1.0000
  C   C358      1.0  0.87067  0.08633  0.50575  1.0000
  H   H425      1.0  0.82582  0.92460  0.56295  1.0000
  H   H426      1.0  0.60024  0.86389  0.50722  1.0000
  H   H427      1.0  0.55921  0.65972  0.65354  1.0000
  H   H428      1.0  0.80134  0.68338  0.55691  1.0000
  H   H429      1.0  0.90204  0.63492  0.51329  1.0000
  H   H430      1.0  0.90456  0.03953  0.66572  1.0000
  C   C359      1.0  0.66186  0.75937  0.60711  1.0000
  H   H431      1.0  0.64203  0.73518  0.49027  1.0000
  C   C360      1.0  0.87634  0.65750  0.51105  1.0000
  H   H432      1.0  0.67083  0.82811  0.53247  1.0000
