data_image0
_chemical_formula_structural       SFeC2H2FeSFeS2FeCHSHCS2HC5HCSHC2HCHFeHCHC2H7CH3NSC3H3C2SHSC2NCFeSCH5CSH5C2H2C2HC2FeHCH3CHC3H2SCHFeC2SHCSHC6H4CHCH4CH2CHC2HNC3HCH3CH3SH2C2H2FeHFeH2CNC3S2H2CH4CHCHC2H2CSHC2NHC2SCSHFeHFeHFeHFeHSHCFeSFeS2FeSFeS5C6H2SHC6H3NC9H17SFeSH3CHCH2CH4C3HCSC5HC2HC3H2CHFeH2SFeH2SCHC3NCH4CHCHCH2SCHSH5CH2SCH2SHC2NSC2HCSCHCHC2H2CH2C5HCHFeH2C3H2CS2C6H2C3H2NC2HSC2NC2HCHCFeHCHC3H2CHCHCH2CHCH3SHNH3SHCHCH3C3SCSFeCH5C2H3CHCHSHSC2H4C2H2FeH4CHCH2CH2C2HCH3CHC3NH3SH2CFeHCHCHCHC2HC2NH3CH4SCHCSC2HCHC4H2SNHCHSCHC2H2C3H7CHCHC4H2CSHSFeHCHC2H2SH2CNCH4FeS2FeSCFeSFeS4FeSHCSHCH3CNHC6H4C6H2CHC3H3CH2CH2SHNC6HFeCH6CSHCSC3H5NSHSHC2H2CHC2H3CHCHSH3SH3FeCHC2HSHCHSCNC9HCHCH4CH5NC9HCH5SCH2CHC5H2CFeC2HCH3NH3C2H7CFeH2CHCH4CH2CHFeH6CHSCSCSC4SHCHC3HCHCH4CHC2S2C2HC4H2C2NHFeCH2FeHCHC2HCNH3C4H3CHCH3CHFeH3CH3CSHCNCH2CH2CHSCHSH2NHCHC2FeC2H2CFeHSFeHSHC2HSFeS2NHCH2C3H2CSC6H5SHCSH5FeH3CNSNH2C3H2CSHC2FeH2CH3C2H3C3HSHCH4CHC2HCHCH3CSH3SCH3FeSHSHFe2SH2SHCSHFeSHFeCSC7H4FeHCHCHFeCHC6H5SHCH2CSFeC3FeH2CH2CHCSC2NHSFeNCHCH2CH2CHCH2CH2SHCSCHFeSH2SFeS2FeSH2S2H2SHCFeSHC2HSC6H4C6H4NC9HCH5CH5CHC3H9FeCHCH2NCFeCFeHCH2CHSH2SHCHCFeC
_chemical_formula_sum              "S128 Fe64 C480 H576 N32"
_cell_length_a       35.3609
_cell_length_b       31.8717
_cell_length_c       73.1951
_cell_angle_alpha    91.5306
_cell_angle_beta     90.0822
_cell_angle_gamma    120.92

_space_group_name_H-M_alt    "P 1"
_space_group_IT_number       1

loop_
  _space_group_symop_operation_xyz
  'x, y, z'

loop_
  _atom_site_type_symbol
  _atom_site_label
  _atom_site_symmetry_multiplicity
  _atom_site_fract_x
  _atom_site_fract_y
  _atom_site_fract_z
  _atom_site_occupancy
  S   S1        1.0  0.33372  0.16448  0.17911  1.0000
  Fe  Fe1       1.0  0.37115  0.12738  0.18548  1.0000
  C   C1        1.0  0.35596  0.16514  0.23071  1.0000
  C   C2        1.0  0.34537  0.18349  0.24630  1.0000
  H   H1        1.0  0.35618  0.17948  0.21751  1.0000
  H   H2        1.0  0.33675  0.21130  0.24497  1.0000
  Fe  Fe2       1.0  0.39471  0.12423  0.14579  1.0000
  S   S2        1.0  0.43003  0.17691  0.16912  1.0000
  Fe  Fe3       1.0  0.39067  0.21047  0.16098  1.0000
  S   S3        1.0  0.42587  0.29247  0.16397  1.0000
  S   S4        1.0  0.35914  0.16149  0.13601  1.0000
  Fe  Fe4       1.0  0.34255  0.15720  0.30850  1.0000
  C   C3        1.0  0.22744  0.01193  0.07766  1.0000
  H   H3        1.0  0.37572  0.08345  0.25110  1.0000
  S   S5        1.0  0.43393  0.10421  0.12708  1.0000
  H   H4        1.0  0.35897  0.11719  0.27849  1.0000
  C   C4        1.0  0.36776  0.11177  0.24967  1.0000
  S   S6        1.0  0.22991  0.06255  0.15188  1.0000
  S   S7        1.0  0.31298  0.07652  0.31179  1.0000
  H   H5        1.0  0.23811  0.13372  0.26836  1.0000
  C   C5        1.0  0.36701  0.12903  0.23238  1.0000
  C   C6        1.0  0.23793  0.06651  0.26939  1.0000
  C   C7        1.0  0.31196  0.07992  0.09749  1.0000
  C   C8        1.0  0.22710  0.10250  0.20252  1.0000
  C   C9        1.0  0.23103  0.10104  0.24140  1.0000
  H   H6        1.0  0.13546  0.00471  0.15058  1.0000
  C   C10       1.0  0.11341  0.01897  0.12524  1.0000
  S   S8        1.0  0.41131  0.17684  0.31563  1.0000
  H   H7        1.0  0.34725  0.09731  0.10187  1.0000
  C   C11       1.0  0.35784  0.13058  0.26524  1.0000
  C   C12       1.0  0.20339  0.08494  0.11941  1.0000
  H   H8        1.0  0.31208  0.08970  0.08304  1.0000
  C   C13       1.0  0.23095  0.02495  0.24033  1.0000
  H   H9        1.0  0.43099  0.28071  0.33080  1.0000
  Fe  Fe5       1.0  0.38148  0.09733  0.32095  1.0000
  H   H10       1.0  0.46594  0.23225  0.25155  1.0000
  C   C14       1.0  0.22910  0.06201  0.23070  1.0000
  H   H11       1.0  0.19901  0.10654  0.20692  1.0000
  C   C15       1.0  0.24025  0.00534  0.09526  1.0000
  C   C16       1.0  0.18249  0.01536  0.20468  1.0000
  H   H12       1.0  0.25865  0.13666  0.20630  1.0000
  H   H13       1.0  0.46803  0.26464  0.13636  1.0000
  H   H14       1.0  0.33134  0.03479  0.12231  1.0000
  H   H15       1.0  0.22530  0.09985  0.18729  1.0000
  H   H16       1.0  0.17809  0.01266  0.18950  1.0000
  H   H17       1.0  0.43829  0.29535  0.29037  1.0000
  H   H18       1.0  0.29389  0.08555  0.20710  1.0000
  C   C17       1.0  0.14566  0.02557  0.13828  1.0000
  H   H19       1.0  0.15429  0.01681  0.21072  1.0000
  H   H20       1.0  0.29700  0.09751  0.10569  1.0000
  H   H21       1.0  0.40785  0.28188  0.26925  1.0000
  N   N1        1.0  0.28753  0.02625  0.09996  1.0000
  S   S9        1.0  0.33891  0.07093  0.16283  1.0000
  C   C18       1.0  0.46519  0.08337  0.15787  1.0000
  C   C19       1.0  0.12601  0.04477  0.10904  1.0000
  C   C20       1.0  0.19082  0.05832  0.13541  1.0000
  H   H22       1.0  0.18129  0.09805  0.09380  1.0000
  H   H23       1.0  0.23783  0.11055  0.11704  1.0000
  H   H24       1.0  0.45818  0.20609  0.21943  1.0000
  C   C21       1.0  0.23570  0.02754  0.25937  1.0000
  C   C22       1.0  0.17117  0.07793  0.10627  1.0000
  S   S10       1.0  0.41991  0.06504  0.30858  1.0000
  H   H25       1.0  0.43674  0.08024  0.16466  1.0000
  S   S11       1.0  0.33291  0.18903  0.28309  1.0000
  C   C23       1.0  0.43750  0.28442  0.27576  1.0000
  C   C24       1.0  0.34612  0.16604  0.26359  1.0000
  N   N2        1.0  0.22509  0.05898  0.21049  1.0000
  C   C25       1.0  0.26137  0.05440  0.20247  1.0000
  Fe  Fe6       1.0  0.30497  0.11161  0.15492  1.0000
  S   S12       1.0  0.38069  0.10518  0.21324  1.0000
  C   C26       1.0  0.23526  0.10290  0.26045  1.0000
  H   H26       1.0  0.23025  0.13118  0.23545  1.0000
  H   H27       1.0  0.26035  0.05390  0.18727  1.0000
  H   H28       1.0  0.45080  0.11594  0.24154  1.0000
  H   H29       1.0  0.24252  0.06908  0.28412  1.0000
  H   H30       1.0  0.43174  0.24668  0.27572  1.0000
  C   C27       1.0  0.18320  0.99410  0.07309  1.0000
  S   S13       1.0  0.08721  0.03486  0.09140  1.0000
  H   H31       1.0  0.07889  0.99324  0.12756  1.0000
  H   H32       1.0  0.17417  0.00097  0.05982  1.0000
  H   H33       1.0  0.25162  0.03175  0.06740  1.0000
  H   H34       1.0  0.28268  0.03484  0.12898  1.0000
  H   H35       1.0  0.22932  0.99395  0.23320  1.0000
  C   C28       1.0  0.46695  0.07459  0.32074  1.0000
  C   C29       1.0  0.29545  0.01806  0.11911  1.0000
  H   H36       1.0  0.26042  0.02039  0.20623  1.0000
  H   H37       1.0  0.30525  0.01200  0.07320  1.0000
  C   C30       1.0  0.46790  0.25735  0.24141  1.0000
  C   C31       1.0  0.30645  0.00399  0.08780  1.0000
  H   H38       1.0  0.34179  0.01805  0.09133  1.0000
  C   C32       1.0  0.46322  0.24187  0.22306  1.0000
  C   C33       1.0  0.47166  0.09438  0.13936  1.0000
  Fe  Fe7       1.0  0.01161  0.99192  0.09194  1.0000
  H   H39       1.0  0.23831  0.99961  0.26642  1.0000
  C   C34       1.0  0.47562  0.10584  0.24015  1.0000
  H   H40       1.0  0.45707  0.37139  0.26432  1.0000
  H   H41       1.0  0.47707  0.09319  0.26875  1.0000
  H   H42       1.0  0.45883  0.25920  0.19519  1.0000
  C   C35       1.0  0.46331  0.27146  0.20939  1.0000
  H   H43       1.0  0.46751  0.33898  0.20319  1.0000
  C   C36       1.0  0.47364  0.30359  0.24659  1.0000
  C   C37       1.0  0.46830  0.31668  0.21397  1.0000
  C   C38       1.0  0.47356  0.33287  0.23225  1.0000
  H   H44       1.0  0.47701  0.36821  0.23473  1.0000
  H   H45       1.0  0.23045  0.28471  0.61756  1.0000
  S   S14       1.0  0.20639  0.40165  0.64471  1.0000
  C   C39       1.0  0.29494  0.15070  0.43073  1.0000
  H   H46       1.0  0.30458  0.29584  0.62409  1.0000
  Fe  Fe8       1.0  0.30184  0.09191  0.34095  1.0000
  C   C40       1.0  0.25190  0.09057  0.40687  1.0000
  C   C41       1.0  0.19355  0.04140  0.36323  1.0000
  S   S15       1.0  0.44506  0.24148  0.36325  1.0000
  H   H47       1.0  0.04553  0.02405  0.47204  1.0000
  C   C42       1.0  0.10769  0.12519  0.46091  1.0000
  S   S16       1.0  0.36803  0.10479  0.35040  1.0000
  H   H48       1.0  0.22068  0.11718  0.35719  1.0000
  C   C43       1.0  0.05202  0.15009  0.61098  1.0000
  C   C44       1.0  0.06408  0.13438  0.62640  1.0000
  C   C45       1.0  0.08960  0.16828  0.64054  1.0000
  C   C46       1.0  0.10301  0.21805  0.63950  1.0000
  C   C47       1.0  0.09072  0.23372  0.62413  1.0000
  C   C48       1.0  0.06541  0.19986  0.60995  1.0000
  H   H49       1.0  0.05406  0.09625  0.62739  1.0000
  H   H50       1.0  0.31697  0.19387  0.38667  1.0000
  H   H51       1.0  0.10068  0.27185  0.62317  1.0000
  H   H52       1.0  0.32505  0.18057  0.43670  1.0000
  C   C49       1.0  0.34020  0.10620  0.39730  1.0000
  H   H53       1.0  0.09653  0.15561  0.42874  1.0000
  C   C50       1.0  0.21660  0.09472  0.43453  1.0000
  H   H54       1.0  0.39961  0.48389  0.63167  1.0000
  H   H55       1.0  0.10784  0.05075  0.41891  1.0000
  H   H56       1.0  0.13049  0.12963  0.42578  1.0000
  H   H57       1.0  0.29149  0.43934  0.59423  1.0000
  C   C51       1.0  0.15575  0.08630  0.36885  1.0000
  H   H58       1.0  0.34191  0.08877  0.41000  1.0000
  H   H59       1.0  0.15560  0.12009  0.36826  1.0000
  C   C52       1.0  0.34863  0.46569  0.61164  1.0000
  H   H60       1.0  0.38276  0.17690  0.42284  1.0000
  C   C53       1.0  0.19274  0.08476  0.36251  1.0000
  C   C54       1.0  0.36706  0.45614  0.62662  1.0000
  H   H61       1.0  0.09480  0.10894  0.47441  1.0000
  N   N3        1.0  0.33265  0.14713  0.40151  1.0000
  C   C55       1.0  0.32492  0.16468  0.38414  1.0000
  C   C56       1.0  0.37389  0.18798  0.40999  1.0000
  C   C57       1.0  0.11881  0.04448  0.37572  1.0000
  H   H62       1.0  0.05611  0.21233  0.59809  1.0000
  C   C58       1.0  0.29961  0.37597  0.62985  1.0000
  H   H63       1.0  0.14150  0.13122  0.45974  1.0000
  H   H64       1.0  0.18730  0.08104  0.44271  1.0000
  H   H65       1.0  0.29727  0.13490  0.37585  1.0000
  C   C59       1.0  0.25694  0.13312  0.44123  1.0000
  H   H66       1.0  0.35450  0.18013  0.37536  1.0000
  H   H67       1.0  0.37123  0.22085  0.41279  1.0000
  H   H68       1.0  0.40254  0.20020  0.40071  1.0000
  S   S17       1.0  0.24074  0.03829  0.35682  1.0000
  H   H69       1.0  0.28129  0.26724  0.64539  1.0000
  H   H70       1.0  0.11045  0.16163  0.46124  1.0000
  C   C60       1.0  0.07716  0.04597  0.44551  1.0000
  C   C61       1.0  0.09612  0.12043  0.42841  1.0000
  H   H71       1.0  0.25653  0.36382  0.66038  1.0000
  H   H72       1.0  0.24870  0.36229  0.60930  1.0000
  Fe  Fe9       1.0  0.39330  0.18333  0.34434  1.0000
  H   H73       1.0  0.31372  0.07707  0.38832  1.0000
  Fe  Fe10      1.0  0.16937  0.43861  0.65370  1.0000
  H   H74       1.0  0.44647  0.08769  0.34687  1.0000
  H   H75       1.0  0.37162  0.11883  0.38992  1.0000
  C   C62       1.0  0.03404  0.08544  0.44806  1.0000
  N   N4        1.0  0.07890  0.09346  0.44557  1.0000
  C   C63       1.0  0.21408  0.07367  0.41732  1.0000
  C   C64       1.0  0.15690  0.99977  0.37037  1.0000
  C   C65       1.0  0.09376  0.02982  0.43097  1.0000
  S   S18       1.0  0.13530  0.25893  0.65767  1.0000
  S   S19       1.0  0.07379  0.04930  0.38406  1.0000
  H   H76       1.0  0.21205  0.26148  0.63978  1.0000
  H   H77       1.0  0.01079  0.05906  0.43747  1.0000
  C   C66       1.0  0.05905  0.01456  0.46050  1.0000
  H   H78       1.0  0.20910  0.31271  0.63296  1.0000
  H   H79       1.0  0.02005  0.07038  0.46157  1.0000
  H   H80       1.0  0.09893  0.15584  0.65239  1.0000
  H   H81       1.0  0.24839  0.07266  0.39372  1.0000
  C   C67       1.0  0.22991  0.29586  0.63204  1.0000
  H   H82       1.0  0.18278  0.04399  0.41192  1.0000
  C   C68       1.0  0.46516  0.30380  0.33505  1.0000
  H   H83       1.0  0.03335  0.11980  0.44701  1.0000
  C   C69       1.0  0.29345  0.12974  0.41314  1.0000
  C   C70       1.0  0.29944  0.30306  0.63857  1.0000
  H   H84       1.0  0.25884  0.14934  0.45467  1.0000
  H   H85       1.0  0.35831  0.40724  0.64754  1.0000
  C   C71       1.0  0.11960  0.00111  0.37644  1.0000
  S   S20       1.0  0.02023  0.10919  0.59271  1.0000
  H   H86       1.0  0.33241  0.32409  0.64540  1.0000
  C   C72       1.0  0.30600  0.43128  0.60566  1.0000
  C   C73       1.0  0.27077  0.33999  0.65912  1.0000
  N   N5        1.0  0.27506  0.32946  0.63961  1.0000
  H   H87       1.0  0.07495  0.09873  0.41642  1.0000
  C   C74       1.0  0.28169  0.38694  0.61453  1.0000
  C   C75       1.0  0.34299  0.41213  0.63565  1.0000
  S   S21       1.0  0.32671  0.17173  0.33689  1.0000
  C   C76       1.0  0.47187  0.08534  0.33954  1.0000
  S   S22       1.0  0.15881  0.48371  0.63348  1.0000
  H   H88       1.0  0.30293  0.35954  0.66663  1.0000
  Fe  Fe11      1.0  0.98776  0.02618  0.59084  1.0000
  H   H89       1.0  0.01212  0.18521  0.64839  1.0000
  Fe  Fe12      1.0  0.15816  0.33983  0.66203  1.0000
  H   H90       1.0  0.24885  0.30611  0.66664  1.0000
  Fe  Fe13      1.0  0.00392  0.99032  0.39218  1.0000
  H   H91       1.0  0.11279  0.48466  0.66611  1.0000
  Fe  Fe14      1.0  0.16490  0.41060  0.69305  1.0000
  H   H92       1.0  0.98089  0.05065  0.99558  1.0000
  S   S23       1.0  0.14424  0.42232  0.72101  1.0000
  H   H93       1.0  0.34516  0.04037  0.84218  1.0000
  C   C77       1.0  0.31590  0.02705  0.85103  1.0000
  Fe  Fe15      1.0  0.23689  0.47016  0.84913  1.0000
  S   S24       1.0  0.21292  0.47737  0.67812  1.0000
  Fe  Fe16      1.0  0.15210  0.37057  0.85258  1.0000
  S   S25       1.0  0.12916  0.37143  0.82392  1.0000
  S   S26       1.0  0.12136  0.31227  0.87416  1.0000
  Fe  Fe17      1.0  0.19958  0.39949  0.81649  1.0000
  S   S27       1.0  0.21926  0.37485  0.79109  1.0000
  Fe  Fe18      1.0  0.15311  0.45103  0.82993  1.0000
  S   S28       1.0  0.22137  0.39310  0.84454  1.0000
  S   S29       1.0  0.16956  0.44820  0.85933  1.0000
  S   S30       1.0  0.00379  0.01195  0.91208  1.0000
  S   S31       1.0  0.20083  0.37116  0.68740  1.0000
  S   S32       1.0  0.11788  0.37443  0.66909  1.0000
  C   C78       1.0  0.08204  0.24862  0.87240  1.0000
  C   C79       1.0  0.07426  0.22009  0.88785  1.0000
  C   C80       1.0  0.04504  0.16900  0.88690  1.0000
  C   C81       1.0  0.02357  0.14592  0.87040  1.0000
  C   C82       1.0  0.03052  0.17456  0.85505  1.0000
  C   C83       1.0  0.05923  0.22571  0.85609  1.0000
  H   H94       1.0  0.09140  0.23757  0.90060  1.0000
  H   H95       1.0  0.03986  0.14747  0.89883  1.0000
  S   S33       1.0  0.31858  0.46787  0.67529  1.0000
  H   H96       1.0  0.06356  0.24743  0.84434  1.0000
  C   C84       1.0  0.16568  0.40903  0.74027  1.0000
  C   C85       1.0  0.19468  0.39161  0.73855  1.0000
  C   C86       1.0  0.21074  0.38067  0.75416  1.0000
  C   C87       1.0  0.19831  0.38774  0.77160  1.0000
  C   C88       1.0  0.17008  0.40615  0.77338  1.0000
  C   C89       1.0  0.15366  0.41655  0.75775  1.0000
  H   H97       1.0  0.20450  0.38612  0.72521  1.0000
  H   H98       1.0  0.23278  0.36672  0.75270  1.0000
  H   H99       1.0  0.16044  0.41204  0.78676  1.0000
  N   N6        1.0  0.16790  0.24444  0.82151  1.0000
  C   C90       1.0  0.16783  0.23146  0.80184  1.0000
  C   C91       1.0  0.14269  0.26970  0.82316  1.0000
  C   C92       1.0  0.21442  0.27925  0.82717  1.0000
  C   C93       1.0  0.14805  0.20173  0.83347  1.0000
  C   C94       1.0  0.12565  0.15252  0.82650  1.0000
  C   C95       1.0  0.14884  0.20870  0.85274  1.0000
  C   C96       1.0  0.10536  0.11311  0.83821  1.0000
  C   C97       1.0  0.12904  0.16904  0.86429  1.0000
  C   C98       1.0  0.10694  0.12136  0.85705  1.0000
  H   H100      1.0  0.18585  0.21169  0.79963  1.0000
  H   H101      1.0  0.13369  0.20880  0.79615  1.0000
  H   H102      1.0  0.18421  0.26474  0.79339  1.0000
  H   H103      1.0  0.14442  0.28457  0.83728  1.0000
  H   H104      1.0  0.10725  0.24441  0.81959  1.0000
  H   H105      1.0  0.15538  0.30103  0.81389  1.0000
  H   H106      1.0  0.23404  0.26094  0.82704  1.0000
  H   H107      1.0  0.23057  0.31094  0.81796  1.0000
  H   H108      1.0  0.21738  0.29546  0.84111  1.0000
  H   H109      1.0  0.12256  0.14343  0.81206  1.0000
  H   H110      1.0  0.16331  0.24490  0.85906  1.0000
  H   H111      1.0  0.08749  0.07583  0.83268  1.0000
  H   H112      1.0  0.12926  0.17538  0.87894  1.0000
  H   H113      1.0  0.09000  0.09078  0.86604  1.0000
  H   H114      1.0  0.29636  0.04273  0.84574  1.0000
  H   H115      1.0  0.13132  0.43011  0.75922  1.0000
  H   H116      1.0  0.01375  0.15706  0.84226  1.0000
  S   S34       1.0  0.98883  0.08149  0.86801  1.0000
  Fe  Fe19      1.0  0.24563  0.43530  0.67064  1.0000
  S   S35       1.0  0.22179  0.47862  0.82033  1.0000
  H   H117      1.0  0.32803  0.04279  0.86506  1.0000
  H   H118      1.0  0.29114  0.47970  0.79137  1.0000
  H   H119      1.0  0.29381  0.46360  0.76813  1.0000
  C   C99       1.0  0.16169  0.96038  0.10295  1.0000
  H   H120      1.0  0.13607  0.94154  0.11289  1.0000
  C   C100      1.0  0.15042  0.96852  0.08573  1.0000
  H   H121      1.0  0.11627  0.95623  0.08240  1.0000
  H   H122      1.0  0.17994  0.98076  0.20889  1.0000
  C   C101      1.0  0.00242  0.90565  0.01638  1.0000
  H   H123      1.0  0.28820  0.96347  0.08894  1.0000
  H   H124      1.0  0.00003  0.90696  0.03114  1.0000
  H   H125      1.0  0.21208  0.97249  0.12162  1.0000
  H   H126      1.0  0.27973  0.97841  0.12185  1.0000
  C   C102      1.0  0.98820  0.86120  0.00708  1.0000
  C   C103      1.0  0.01864  0.94832  0.00665  1.0000
  C   C104      1.0  0.20586  0.97859  0.10778  1.0000
  H   H127      1.0  0.02905  0.98270  0.01397  1.0000
  C   C105      1.0  0.03330  0.83546  0.63032  1.0000
  S   S36       1.0  0.16162  0.86842  0.63088  1.0000
  C   C106      1.0  0.11250  0.87016  0.62784  1.0000
  C   C107      1.0  0.07128  0.83243  0.63329  1.0000
  C   C108      1.0  0.03597  0.87599  0.62180  1.0000
  C   C109      1.0  0.07725  0.91385  0.61647  1.0000
  C   C110      1.0  0.11524  0.91097  0.61954  1.0000
  H   H128      1.0  0.06857  0.80073  0.63963  1.0000
  C   C111      1.0  0.15352  0.60697  0.64158  1.0000
  C   C112      1.0  0.08432  0.84811  0.57835  1.0000
  H   H129      1.0  0.16463  0.64082  0.63464  1.0000
  C   C113      1.0  0.16264  0.57185  0.63431  1.0000
  C   C114      1.0  0.14814  0.52773  0.64315  1.0000
  C   C115      1.0  0.04069  0.81062  0.57333  1.0000
  H   H130      1.0  0.07037  0.91917  0.44621  1.0000
  H   H131      1.0  0.09532  0.88651  0.57782  1.0000
  C   C116      1.0  0.11512  0.83683  0.58492  1.0000
  H   H132      1.0  0.14783  0.86591  0.58927  1.0000
  Fe  Fe20      1.0  0.15937  0.71795  0.65984  1.0000
  H   H133      1.0  0.03014  0.88911  0.58187  1.0000
  H   H134      1.0  0.18080  0.57876  0.62177  1.0000
  S   S37       1.0  0.18265  0.75383  0.63278  1.0000
  Fe  Fe21      1.0  0.17724  0.81604  0.64543  1.0000
  H   H135      1.0  0.14700  0.94045  0.61534  1.0000
  H   H136      1.0  0.07998  0.94549  0.61007  1.0000
  S   S38       1.0  0.98495  0.93556  0.41435  1.0000
  C   C117      1.0  0.02132  0.87384  0.56761  1.0000
  H   H137      1.0  0.00155  0.80597  0.63453  1.0000
  C   C118      1.0  0.12435  0.51876  0.65928  1.0000
  C   C119      1.0  0.12819  0.59714  0.65730  1.0000
  C   C120      1.0  0.06143  0.75073  0.58164  1.0000
  N   N7        1.0  0.00674  0.82100  0.56675  1.0000
  C   C121      1.0  0.99487  0.80361  0.54744  1.0000
  H   H138      1.0  0.04989  0.89561  0.55866  1.0000
  H   H139      1.0  0.10274  0.97235  0.41977  1.0000
  H   H140      1.0  0.15723  0.96610  0.37110  1.0000
  H   H141      1.0  0.09157  0.96864  0.38171  1.0000
  C   C122      1.0  0.41123  0.85312  0.66620  1.0000
  H   H142      1.0  0.02443  0.82162  0.53865  1.0000
  C   C123      1.0  0.10357  0.78836  0.58681  1.0000
  H   H143      1.0  0.12728  0.78010  0.59252  1.0000
  C   C124      1.0  0.03049  0.76154  0.57485  1.0000
  H   H144      1.0  0.05265  0.71302  0.58315  1.0000
  H   H145      1.0  0.99827  0.73109  0.57103  1.0000
  S   S39       1.0  0.01755  0.98218  0.58045  1.0000
  C   C125      1.0  0.07301  0.95459  0.44618  1.0000
  H   H146      1.0  0.34752  0.84725  0.66458  1.0000
  S   S40       1.0  0.11311  0.63864  0.66588  1.0000
  H   H147      1.0  0.45808  0.61989  0.66533  1.0000
  H   H148      1.0  0.29074  0.58857  0.66393  1.0000
  H   H149      1.0  0.36710  0.50048  0.60501  1.0000
  H   H150      1.0  0.99488  0.88034  0.56284  1.0000
  H   H151      1.0  0.24313  0.59253  0.65756  1.0000
  C   C126      1.0  0.09143  0.98470  0.43135  1.0000
  H   H152      1.0  0.35623  0.69669  0.66189  1.0000
  H   H153      1.0  0.04221  0.94587  0.47222  1.0000
  S   S41       1.0  0.98679  0.87730  0.61815  1.0000
  C   C127      1.0  0.05706  0.96961  0.46077  1.0000
  H   H154      1.0  0.37633  0.77534  0.62108  1.0000
  H   H155      1.0  0.25119  0.54086  0.63838  1.0000
  S   S42       1.0  0.30589  0.79043  0.63086  1.0000
  H   H156      1.0  0.30405  0.70051  0.62885  1.0000
  C   C128      1.0  0.32017  0.63509  0.61127  1.0000
  C   C129      1.0  0.42653  0.81068  0.64214  1.0000
  N   N8        1.0  0.30347  0.64318  0.64418  1.0000
  S   S43       1.0  0.44862  0.65256  0.62993  1.0000
  C   C130      1.0  0.36953  0.56948  0.63621  1.0000
  C   C131      1.0  0.31439  0.60733  0.59526  1.0000
  H   H157      1.0  0.34208  0.67426  0.61076  1.0000
  C   C132      1.0  0.29787  0.61284  0.62755  1.0000
  S   S44       1.0  0.24706  0.85469  0.65664  1.0000
  C   C133      1.0  0.43990  0.84004  0.65812  1.0000
  H   H158      1.0  0.24062  0.49457  0.61036  1.0000
  C   C134      1.0  0.35088  0.67327  0.64947  1.0000
  H   H159      1.0  0.35959  0.57505  0.62296  1.0000
  C   C135      1.0  0.33977  0.52943  0.64649  1.0000
  C   C136      1.0  0.28661  0.67610  0.64030  1.0000
  H   H160      1.0  0.25103  0.65501  0.63637  1.0000
  H   H161      1.0  0.37127  0.69864  0.63870  1.0000
  C   C137      1.0  0.41217  0.60237  0.64298  1.0000
  H   H162      1.0  0.36492  0.64979  0.65227  1.0000
  H   H163      1.0  0.28094  0.53545  0.58242  1.0000
  C   C138      1.0  0.26344  0.53381  0.61062  1.0000
  C   C139      1.0  0.36936  0.83685  0.65834  1.0000
  C   C140      1.0  0.28589  0.55679  0.59491  1.0000
  C   C141      1.0  0.26946  0.56118  0.62675  1.0000
  C   C142      1.0  0.35675  0.80904  0.64195  1.0000
  H   H164      1.0  0.30705  0.50394  0.64112  1.0000
  C   C143      1.0  0.38555  0.79619  0.63388  1.0000
  H   H165      1.0  0.44853  0.80070  0.63575  1.0000
  Fe  Fe22      1.0  0.25012  0.78989  0.64614  1.0000
  H   H166      1.0  0.33191  0.62528  0.58305  1.0000
  H   H167      1.0  0.29047  0.70033  0.65229  1.0000
  C   C144      1.0  0.42518  0.59475  0.66002  1.0000
  C   C145      1.0  0.35338  0.52078  0.66318  1.0000
  C   C146      1.0  0.27946  0.61413  0.66022  1.0000
  H   H168      1.0  0.14910  0.91888  0.66306  1.0000
  H   H169      1.0  0.98047  0.76343  0.54579  1.0000
  C   C147      1.0  0.11349  0.55287  0.66606  1.0000
  S   S45       1.0  0.11382  0.73172  0.77424  1.0000
  S   S46       1.0  0.10858  0.75121  0.82817  1.0000
  C   C148      1.0  0.10088  0.88852  0.85844  1.0000
  C   C149      1.0  0.09193  0.92677  0.85913  1.0000
  C   C150      1.0  0.06102  0.92626  0.87144  1.0000
  C   C151      1.0  0.03925  0.88781  0.88345  1.0000
  C   C152      1.0  0.04833  0.84966  0.88281  1.0000
  C   C153      1.0  0.07867  0.84973  0.87027  1.0000
  H   H170      1.0  0.08525  0.82012  0.86994  1.0000
  H   H171      1.0  0.10267  0.71735  0.73511  1.0000
  C   C154      1.0  0.12555  0.57766  0.81963  1.0000
  C   C155      1.0  0.13253  0.62052  0.82863  1.0000
  C   C156      1.0  0.14349  0.62844  0.84725  1.0000
  H   H172      1.0  0.11718  0.57172  0.80530  1.0000
  H   H173      1.0  0.12899  0.64721  0.82122  1.0000
  N   N9        1.0  0.09503  0.59063  0.76011  1.0000
  C   C157      1.0  0.12998  0.54276  0.82907  1.0000
  C   C158      1.0  0.09721  0.83838  0.70665  1.0000
  H   H174      1.0  0.03172  0.81974  0.89203  1.0000
  S   S47       1.0  0.00219  0.88690  0.90008  1.0000
  C   C159      1.0  0.14082  0.55052  0.84772  1.0000
  C   C160      1.0  0.11662  0.58705  0.74327  1.0000
  N   N10       1.0  0.00499  0.89844  0.95737  1.0000
  C   C161      1.0  0.00485  0.90182  0.97760  1.0000
  C   C162      1.0  0.07263  0.54455  0.77035  1.0000
  H   H175      1.0  0.07760  0.82544  0.69421  1.0000
  C   C163      1.0  0.03521  0.88151  0.95148  1.0000
  H   H176      1.0  0.03691  0.87975  0.93626  1.0000
  C   C164      1.0  0.13590  0.74694  0.73812  1.0000
  Fe  Fe23      1.0  0.14539  0.76438  0.80184  1.0000
  H   H177      1.0  0.10098  0.89358  0.67672  1.0000
  C   C165      1.0  0.13262  0.89459  0.67474  1.0000
  H   H178      1.0  0.11314  0.63552  0.78491  1.0000
  C   C166      1.0  0.01943  0.94571  0.94858  1.0000
  C   C167      1.0  0.11937  0.54513  0.73844  1.0000
  C   C168      1.0  0.15015  0.76146  0.75629  1.0000
  H   H179      1.0  0.15283  0.76034  0.70975  1.0000
  H   H180      1.0  0.05389  0.97393  0.95254  1.0000
  C   C169      1.0  0.12845  0.62976  0.77251  1.0000
  H   H181      1.0  0.14640  0.66577  0.76588  1.0000
  C   C170      1.0  0.07839  0.81061  0.72213  1.0000
  H   H182      1.0  0.04588  0.77796  0.72121  1.0000
  C   C171      1.0  0.10153  0.82408  0.73874  1.0000
  H   H183      1.0  0.08726  0.80188  0.75062  1.0000
  H   H184      1.0  0.09633  0.53405  0.77535  1.0000
  C   C172      1.0  0.14018  0.88084  0.70746  1.0000
  H   H185      1.0  0.07581  0.64048  0.75004  1.0000
  C   C173      1.0  0.06116  0.60314  0.75543  1.0000
  H   H186      1.0  0.05610  0.54817  0.78275  1.0000
  H   H187      1.0  0.04250  0.60332  0.76767  1.0000
  H   H188      1.0  0.03717  0.57680  0.74500  1.0000
  S   S48       1.0  0.15488  0.68327  0.85852  1.0000
  H   H189      1.0  0.14062  0.96254  0.69993  1.0000
  N   N11       1.0  0.16088  0.91203  0.69154  1.0000
  H   H190      1.0  0.12539  0.85759  0.67008  1.0000
  H   H191      1.0  0.02447  0.84422  0.95619  1.0000
  H   H192      1.0  0.01882  0.94185  0.93341  1.0000
  S   S49       1.0  0.14771  0.77660  0.67140  1.0000
  H   H193      1.0  0.27407  0.91514  0.88209  1.0000
  C   C174      1.0  0.16420  0.77164  0.72370  1.0000
  H   H194      1.0  0.04672  0.51368  0.76178  1.0000
  C   C175      1.0  0.14719  0.59313  0.85683  1.0000
  H   H195      1.0  0.14379  0.52352  0.85518  1.0000
  H   H196      1.0  0.06927  0.90671  0.95687  1.0000
  H   H197      1.0  0.10615  0.51333  0.74679  1.0000
  C   C176      1.0  0.13581  0.62642  0.73108  1.0000
  C   C177      1.0  0.14387  0.86499  0.73991  1.0000
  C   C178      1.0  0.16310  0.89290  0.72453  1.0000
  S   S50       1.0  0.12258  0.49045  0.81703  1.0000
  C   C179      1.0  0.98977  0.85923  0.98799  1.0000
  S   S51       1.0  0.14166  0.89229  0.84323  1.0000
  Fe  Fe24      1.0  0.15500  0.83160  0.83466  1.0000
  C   C180      1.0  0.13907  0.54272  0.72218  1.0000
  H   H198      1.0  0.15328  0.62082  0.77719  1.0000
  H   H199      1.0  0.16233  0.87417  0.75272  1.0000
  H   H200      1.0  0.15546  0.59901  0.87128  1.0000
  H   H201      1.0  0.05451  0.95592  0.87181  1.0000
  H   H202      1.0  0.14011  0.51006  0.71856  1.0000
  C   C181      1.0  0.01955  0.94670  0.98755  1.0000
  C   C182      1.0  0.36944  0.91919  0.87321  1.0000
  H   H203      1.0  0.10895  0.95697  0.85006  1.0000
  H   H204      1.0  0.45418  0.76691  0.70625  1.0000
  H   H205      1.0  0.13576  0.65980  0.73393  1.0000
  C   C183      1.0  0.30407  0.92546  0.87487  1.0000
  H   H206      1.0  0.32050  0.88633  0.89385  1.0000
  C   C184      1.0  0.15490  0.62335  0.71476  1.0000
  H   H207      1.0  0.16771  0.65316  0.70530  1.0000
  S   S52       1.0  0.47603  0.73652  0.67105  1.0000
  H   H208      1.0  0.30369  0.96734  0.82266  1.0000
  S   S53       1.0  0.22690  0.74967  0.67217  1.0000
  C   C185      1.0  0.17099  0.96249  0.69595  1.0000
  C   C186      1.0  0.30995  0.49399  0.77855  1.0000
  H   H209      1.0  0.99733  0.95996  0.95204  1.0000
  H   H210      1.0  0.19534  0.98006  0.70741  1.0000
  H   H211      1.0  0.24707  0.49590  0.75910  1.0000
  H   H212      1.0  0.22901  0.97378  0.85540  1.0000
  C   C187      1.0  0.15657  0.58159  0.71034  1.0000
  C   C188      1.0  0.20255  0.91368  0.68717  1.0000
  H   H213      1.0  0.41115  0.95268  0.85034  1.0000
  H   H214      1.0  0.21773  0.93398  0.67451  1.0000
  Fe  Fe25      1.0  0.16290  0.74162  0.83951  1.0000
  H   H215      1.0  0.28468  0.63802  0.67248  1.0000
  H   H216      1.0  0.31351  0.81874  0.70438  1.0000
  H   H217      1.0  0.46516  0.77549  0.73707  1.0000
  H   H218      1.0  0.34387  0.50119  0.78105  1.0000
  C   C189      1.0  0.44447  0.79203  0.73942  1.0000
  H   H219      1.0  0.24474  0.51468  0.78182  1.0000
  C   C190      1.0  0.38183  0.94631  0.85744  1.0000
  H   H220      1.0  0.17093  0.57904  0.69759  1.0000
  H   H221      1.0  0.03087  0.98098  0.98095  1.0000
  C   C191      1.0  0.24866  0.95925  0.86160  1.0000
  H   H222      1.0  0.22607  0.91884  0.86166  1.0000
  H   H223      1.0  0.25327  0.85699  0.74861  1.0000
  C   C192      1.0  0.39614  0.57430  0.82839  1.0000
  C   C193      1.0  0.34037  0.85400  0.82404  1.0000
  H   H224      1.0  0.43055  0.86523  0.75145  1.0000
  C   C194      1.0  0.40861  0.85264  0.82600  1.0000
  H   H225      1.0  0.34605  0.80291  0.86341  1.0000
  H   H226      1.0  0.33019  0.60950  0.78505  1.0000
  H   H227      1.0  0.23333  0.67341  0.85203  1.0000
  C   C195      1.0  0.34010  0.85335  0.73060  1.0000
  H   H228      1.0  0.42907  0.79322  0.69378  1.0000
  C   C196      1.0  0.42614  0.62229  0.83470  1.0000
  C   C197      1.0  0.40496  0.85327  0.74107  1.0000
  C   C198      1.0  0.39614  0.55346  0.66992  1.0000
  N   N12       1.0  0.31087  0.53874  0.77278  1.0000
  H   H229      1.0  0.42152  0.87615  0.67850  1.0000
  H   H230      1.0  0.41214  0.76267  0.74444  1.0000
  H   H231      1.0  0.34732  0.67075  0.83450  1.0000
  S   S54       1.0  0.24118  0.84591  0.70964  1.0000
  H   H232      1.0  0.40455  0.59936  0.71069  1.0000
  H   H233      1.0  0.39634  0.74359  0.70896  1.0000
  C   C199      1.0  0.31603  0.95374  0.85888  1.0000
  Fe  Fe26      1.0  0.21754  0.81092  0.68163  1.0000
  H   H234      1.0  0.29208  0.49182  0.73892  1.0000
  C   C200      1.0  0.19298  0.80032  0.75997  1.0000
  H   H235      1.0  0.26416  0.55867  0.76401  1.0000
  C   C201      1.0  0.20641  0.81181  0.72741  1.0000
  H   H236      1.0  0.43764  0.67918  0.85440  1.0000
  C   C202      1.0  0.38575  0.58758  0.72316  1.0000
  H   H237      1.0  0.25899  0.91328  0.83152  1.0000
  C   C203      1.0  0.26490  0.52666  0.76925  1.0000
  C   C204      1.0  0.34489  0.56609  0.85208  1.0000
  H   H238      1.0  0.30811  0.56066  0.80076  1.0000
  C   C205      1.0  0.32882  0.57488  0.78840  1.0000
  C   C206      1.0  0.38103  0.86509  0.81671  1.0000
  N   N13       1.0  0.28539  0.66409  0.84162  1.0000
  H   H239      1.0  0.25182  0.96329  0.82633  1.0000
  H   H240      1.0  0.36239  0.58346  0.79266  1.0000
  H   H241      1.0  0.39202  0.62610  0.76706  1.0000
  C   C207      1.0  0.33688  0.55640  0.75589  1.0000
  H   H242      1.0  0.19656  0.87616  0.68496  1.0000
  H   H243      1.0  0.36708  0.62924  0.87010  1.0000
  H   H244      1.0  0.20468  0.81117  0.77390  1.0000
  H   H245      1.0  0.30667  0.73544  0.81655  1.0000
  S   S55       1.0  0.18725  0.84513  0.80718  1.0000
  C   C208      1.0  0.37298  0.86607  0.74378  1.0000
  H   H246      1.0  0.22782  0.93113  0.69831  1.0000
  C   C209      1.0  0.39613  0.83045  0.84292  1.0000
  S   S56       1.0  0.29587  0.53148  0.86413  1.0000
  C   C210      1.0  0.35513  0.54649  0.83685  1.0000
  C   C211      1.0  0.37052  0.81435  0.71191  1.0000
  H   H247      1.0  0.19645  0.92354  0.72606  1.0000
  C   C212      1.0  0.22564  0.60598  0.79599  1.0000
  H   H248      1.0  0.20149  0.57005  0.79036  1.0000
  C   C213      1.0  0.23922  0.61091  0.81428  1.0000
  C   C214      1.0  0.37758  0.60178  0.75524  1.0000
  C   C215      1.0  0.34623  0.54286  0.72337  1.0000
  C   C216      1.0  0.33434  0.69079  0.84244  1.0000
  H   H249      1.0  0.37384  0.88634  0.75608  1.0000
  H   H250      1.0  0.43988  0.86112  0.82028  1.0000
  S   S57       1.0  0.19573  0.74838  0.81270  1.0000
  N   N14       1.0  0.43878  0.81354  0.72259  1.0000
  H   H251      1.0  0.23113  0.64319  0.77112  1.0000
  C   C217      1.0  0.37484  0.61402  0.85829  1.0000
  H   H252      1.0  0.34722  0.69590  0.85674  1.0000
  S   S58       1.0  0.42990  0.81536  0.85534  1.0000
  C   C218      1.0  0.40427  0.82622  0.72520  1.0000
  H   H253      1.0  0.28330  0.62308  0.86513  1.0000
  C   C219      1.0  0.26929  0.61729  0.85101  1.0000
  C   C220      1.0  0.27095  0.69333  0.79290  1.0000
  H   H254      1.0  0.33431  0.51989  0.71099  1.0000
  H   H255      1.0  0.29635  0.82236  0.84652  1.0000
  C   C221      1.0  0.32744  0.83059  0.84069  1.0000
  C   C222      1.0  0.27550  0.95372  0.83212  1.0000
  C   C223      1.0  0.33894  0.82776  0.71469  1.0000
  H   H256      1.0  0.36807  0.79534  0.69913  1.0000
  H   H257      1.0  0.46150  0.81964  0.75074  1.0000
  H   H258      1.0  0.43264  0.65134  0.73879  1.0000
  H   H259      1.0  0.39120  0.88330  0.80383  1.0000
  H   H260      1.0  0.34963  0.72814  0.83706  1.0000
  H   H261      1.0  0.22437  0.57773  0.82191  1.0000
  H   H262      1.0  0.40478  0.55851  0.81706  1.0000
  C   C224      1.0  0.42877  0.77762  0.70725  1.0000
  H   H263      1.0  0.28156  0.69947  0.86654  1.0000
  C   C225      1.0  0.28472  0.69863  0.81116  1.0000
  H   H264      1.0  0.28244  0.72553  0.78476  1.0000
  C   C226      1.0  0.32219  0.52725  0.73946  1.0000
  C   C227      1.0  0.24187  0.64704  0.78526  1.0000
  C   C228      1.0  0.40144  0.61690  0.73905  1.0000
  C   C229      1.0  0.41494  0.64233  0.84943  1.0000
  H   H265      1.0  0.27879  0.59336  0.84355  1.0000
  H   H266      1.0  0.33225  0.50933  0.83211  1.0000
  C   C230      1.0  0.26984  0.65748  0.82237  1.0000
  S   S59       1.0  0.20678  0.82085  0.84810  1.0000
  H   H267      1.0  0.40693  0.54675  0.68277  1.0000
  S   S60       1.0  0.30692  0.87138  0.81265  1.0000
  Fe  Fe27      1.0  0.23513  0.82814  0.82015  1.0000
  H   H268      1.0  0.23285  0.59683  0.85244  1.0000
  C   C231      1.0  0.35565  0.81972  0.85025  1.0000
  H   H269      1.0  0.31569  0.86386  0.73259  1.0000
  C   C232      1.0  0.22076  0.82595  0.74558  1.0000
  C   C233      1.0  0.26991  0.69277  0.85203  1.0000
  H   H270      1.0  0.28117  0.72885  0.84611  1.0000
  H   H271      1.0  0.38938  0.90508  0.87839  1.0000
  S   S61       1.0  0.47430  0.77180  0.81452  1.0000
  H   H272      1.0  0.97851  0.82392  0.98142  1.0000
  H   H273      1.0  0.09351  0.54487  0.67811  1.0000
  C   C234      1.0  0.33056  0.90857  0.88185  1.0000
  N   N15       1.0  0.28924  0.97287  0.85117  1.0000
  C   C235      1.0  0.35559  0.96329  0.85032  1.0000
  H   H274      1.0  0.36601  0.98291  0.83776  1.0000
  H   H275      1.0  0.25634  0.97378  0.87595  1.0000
  H   H276      1.0  0.18534  0.98661  0.68406  1.0000
  H   H277      1.0  0.47729  0.87690  0.70649  1.0000
  Fe  Fe28      1.0  0.71640  0.18384  0.14594  1.0000
  S   S62       1.0  0.68459  0.17255  0.17306  1.0000
  S   S63       1.0  0.73324  0.25201  0.13099  1.0000
  Fe  Fe29      1.0  0.71405  0.08705  0.14597  1.0000
  S   S64       1.0  0.68078  0.06789  0.17342  1.0000
  C   C236      1.0  0.51618  0.31843  0.27462  1.0000
  Fe  Fe30      1.0  0.63840  0.09614  0.16275  1.0000
  S   S65       1.0  0.56835  0.06797  0.17195  1.0000
  Fe  Fe31      1.0  0.72932  0.14612  0.18142  1.0000
  S   S66       1.0  0.76468  0.17865  0.20833  1.0000
  S   S67       1.0  0.66705  0.10878  0.13466  1.0000
  S   S68       1.0  0.76566  0.16371  0.15493  1.0000
  S   S69       1.0  0.66355  0.13990  0.30784  1.0000
  Fe  Fe32      1.0  0.68953  0.08954  0.30322  1.0000
  S   S70       1.0  0.67358  0.04709  0.27640  1.0000
  H   H278      1.0  0.49069  0.38041  0.28391  1.0000
  C   C237      1.0  0.49226  0.30005  0.14222  1.0000
  S   S71       1.0  0.61908  0.40318  0.13302  1.0000
  H   H279      1.0  0.65848  0.47355  0.09905  1.0000
  C   C238      1.0  0.49207  0.10489  0.22297  1.0000
  H   H280      1.0  0.51611  0.39693  0.26228  1.0000
  H   H281      1.0  0.57930  0.42783  0.16279  1.0000
  H   H282      1.0  0.63958  0.31239  0.17010  1.0000
  C   C239      1.0  0.53508  0.32529  0.13526  1.0000
  N   N16       1.0  0.88081  0.04478  0.04713  1.0000
  H   H283      1.0  0.51363  0.10585  0.11637  1.0000
  C   C240      1.0  0.74489  0.30328  0.14486  1.0000
  C   C241      1.0  0.74947  0.34491  0.13675  1.0000
  C   C242      1.0  0.76128  0.38728  0.14742  1.0000
  C   C243      1.0  0.76919  0.38848  0.16621  1.0000
  C   C244      1.0  0.76413  0.34664  0.17432  1.0000
  C   C245      1.0  0.75165  0.30402  0.16373  1.0000
  H   H284      1.0  0.74455  0.34471  0.12214  1.0000
  H   H285      1.0  0.76593  0.41957  0.14093  1.0000
  H   H286      1.0  0.77071  0.34736  0.18875  1.0000
  H   H287      1.0  0.74913  0.27259  0.17012  1.0000
  C   C246      1.0  0.74081  0.14157  0.22724  1.0000
  C   C247      1.0  0.74772  0.16339  0.24476  1.0000
  C   C248      1.0  0.72733  0.13463  0.25994  1.0000
  C   C249      1.0  0.70088  0.08375  0.25772  1.0000
  C   C250      1.0  0.69494  0.06183  0.24027  1.0000
  C   C251      1.0  0.71462  0.09070  0.22504  1.0000
  H   H288      1.0  0.76862  0.20264  0.24659  1.0000
  H   H289      1.0  0.73215  0.15185  0.27336  1.0000
  C   C252      1.0  0.53840  0.43802  0.11759  1.0000
  H   H290      1.0  0.70987  0.07350  0.21164  1.0000
  C   C253      1.0  0.53184  0.07850  0.15903  1.0000
  C   C254      1.0  0.53882  0.09034  0.14057  1.0000
  C   C255      1.0  0.52995  0.46173  0.13182  1.0000
  H   H291      1.0  0.56714  0.09305  0.13381  1.0000
  H   H292      1.0  0.55932  0.20624  0.08063  1.0000
  H   H293      1.0  0.54376  0.30932  0.12401  1.0000
  C   C256      1.0  0.81835  0.08563  0.12626  1.0000
  H   H294      1.0  0.93381  0.08195  0.06714  1.0000
  H   H295      1.0  0.63637  0.08823  0.22308  1.0000
  C   C257      1.0  0.88990  0.08006  0.01597  1.0000
  H   H296      1.0  0.81792  0.11614  0.13285  1.0000
  H   H297      1.0  0.73398  0.99963  0.17293  1.0000
  S   S72       1.0  0.76433  0.27054  0.30978  1.0000
  H   H298      1.0  0.51604  0.20869  0.13460  1.0000
  N   N17       1.0  0.87451  0.34076  0.16005  1.0000
  C   C258      1.0  0.92135  0.35455  0.16073  1.0000
  C   C259      1.0  0.84795  0.28957  0.15264  1.0000
  C   C260      1.0  0.86957  0.37265  0.14694  1.0000
  C   C261      1.0  0.86142  0.34664  0.17875  1.0000
  C   C262      1.0  0.84182  0.30720  0.19097  1.0000
  C   C263      1.0  0.87120  0.39322  0.18584  1.0000
  H   H299      1.0  0.77827  0.36545  0.30271  1.0000
  Fe  Fe33      1.0  0.67200  0.46355  0.15081  1.0000
  C   C264      1.0  0.53789  0.07884  0.32077  1.0000
  H   H300      1.0  0.92648  0.33101  0.17019  1.0000
  H   H301      1.0  0.93303  0.35078  0.14700  1.0000
  H   H302      1.0  0.94303  0.39313  0.16575  1.0000
  H   H303      1.0  0.81206  0.27561  0.15366  1.0000
  H   H304      1.0  0.85536  0.26411  0.15973  1.0000
  H   H305      1.0  0.85436  0.28620  0.13794  1.0000
  C   C265      1.0  0.51187  0.36773  0.16360  1.0000
  S   S73       1.0  0.68683  0.45225  0.17928  1.0000
  H   H306      1.0  0.78553  0.44180  0.21931  1.0000
  C   C266      1.0  0.58448  0.04770  0.25072  1.0000
  S   S74       1.0  0.66957  0.05482  0.33075  1.0000
  C   C267      1.0  0.75568  0.38744  0.32642  1.0000
  C   C268      1.0  0.75274  0.30962  0.32282  1.0000
  C   C269      1.0  0.78009  0.00179  0.11479  1.0000
  H   H307      1.0  0.83391  0.27059  0.18708  1.0000
  H   H308      1.0  0.63635  0.24231  0.09189  1.0000
  H   H309      1.0  0.94914  0.06611  0.04578  1.0000
  H   H310      1.0  0.88895  0.12526  0.12293  1.0000
  H   H311      1.0  0.52205  0.33241  0.28910  1.0000
  N   N18       1.0  0.57097  0.06045  0.23349  1.0000
  S   S75       1.0  0.91159  0.05985  0.10529  1.0000
  H   H312      1.0  0.76491  0.42289  0.32126  1.0000
  S   S76       1.0  0.75911  0.14453  0.31195  1.0000
  H   H313      1.0  0.65175  0.23302  0.15210  1.0000
  C   C270      1.0  0.56653  0.37137  0.14265  1.0000
  C   C271      1.0  0.85859  0.09065  0.12062  1.0000
  H   H314      1.0  0.65458  0.26218  0.12422  1.0000
  H   H315      1.0  0.60126  0.21364  0.31205  1.0000
  C   C272      1.0  0.87539  0.03861  0.02697  1.0000
  H   H316      1.0  0.87143  0.00425  0.07155  1.0000
  C   C273      1.0  0.86649  0.99827  0.05647  1.0000
  C   C274      1.0  0.49467  0.07462  0.16754  1.0000
  H   H317      1.0  0.89499  0.41198  0.14901  1.0000
  H   H318      1.0  0.67489  0.02246  0.23851  1.0000
  H   H319      1.0  0.88670  0.42540  0.17769  1.0000
  C   C275      1.0  0.82238  0.99429  0.15777  1.0000
  H   H320      1.0  0.59525  0.28326  0.30865  1.0000
  C   C276      1.0  0.85665  0.99223  0.01767  1.0000
  H   H321      1.0  0.81895  0.04132  0.05083  1.0000
  S   S77       1.0  0.97671  0.01762  0.07349  1.0000
  H   H322      1.0  0.94024  0.11663  0.04758  1.0000
  H   H323      1.0  0.70903  0.45719  0.24817  1.0000
  H   H324      1.0  0.86547  0.10230  0.04924  1.0000
  S   S78       1.0  0.57290  0.42282  0.31584  1.0000
  H   H325      1.0  0.81651  0.28310  0.21785  1.0000
  H   H326      1.0  0.47955  0.11396  0.21109  1.0000
  H   H327      1.0  0.60767  0.03444  0.24817  1.0000
  Fe  Fe34      1.0  0.73134  0.19244  0.31884  1.0000
  C   C277      1.0  0.57779  0.46270  0.10802  1.0000
  H   H328      1.0  0.84561  0.22387  0.33234  1.0000
  C   C278      1.0  0.95004  0.98948  0.01353  1.0000
  C   C279      1.0  0.61004  0.22303  0.32680  1.0000
  H   H329      1.0  0.48824  0.06434  0.18163  1.0000
  S   S79       1.0  0.78756  0.44253  0.17951  1.0000
  H   H330      1.0  0.52979  0.20912  0.31938  1.0000
  C   C280      1.0  0.53790  0.37472  0.33011  1.0000
  H   H331      1.0  0.81193  0.05355  0.16510  1.0000
  S   S80       1.0  0.69156  0.44748  0.31439  1.0000
  C   C281      1.0  0.55519  0.39213  0.15710  1.0000
  N   N19       1.0  0.74614  0.42147  0.24363  1.0000
  C   C282      1.0  0.70598  0.42095  0.24977  1.0000
  C   C283      1.0  0.78395  0.45617  0.25565  1.0000
  C   C284      1.0  0.75580  0.44081  0.22487  1.0000
  C   C285      1.0  0.73906  0.37158  0.24477  1.0000
  C   C286      1.0  0.73634  0.34279  0.22907  1.0000
  C   C287      1.0  0.73398  0.35005  0.26203  1.0000
  C   C288      1.0  0.73041  0.29609  0.23070  1.0000
  C   C289      1.0  0.72827  0.30346  0.26351  1.0000
  C   C290      1.0  0.72663  0.27661  0.24788  1.0000
  H   H332      1.0  0.50277  0.38472  0.17431  1.0000
  C   C291      1.0  0.61148  0.09933  0.22489  1.0000
  H   H333      1.0  0.64662  0.24395  0.32818  1.0000
  C   C292      1.0  0.50843  0.09754  0.13070  1.0000
  H   H334      1.0  0.54307  0.02348  0.20735  1.0000
  H   H335      1.0  0.81380  0.45410  0.25264  1.0000
  H   H336      1.0  0.76236  0.47893  0.22450  1.0000
  H   H337      1.0  0.96459  0.01170  0.02583  1.0000
  C   C293      1.0  0.49348  0.34475  0.32496  1.0000
  H   H338      1.0  0.73884  0.35562  0.21538  1.0000
  H   H339      1.0  0.73453  0.36915  0.27455  1.0000
  H   H340      1.0  0.83283  0.36470  0.22909  1.0000
  H   H341      1.0  0.72539  0.28812  0.27687  1.0000
  H   H342      1.0  0.72233  0.24057  0.24911  1.0000
  N   N20       1.0  0.59896  0.24873  0.15261  1.0000
  C   C294      1.0  0.63039  0.30197  0.15544  1.0000
  C   C295      1.0  0.56028  0.23522  0.16433  1.0000
  C   C296      1.0  0.62015  0.22178  0.15903  1.0000
  C   C297      1.0  0.58739  0.23740  0.13292  1.0000
  C   C298      1.0  0.54364  0.21721  0.12595  1.0000
  C   C299      1.0  0.62052  0.24658  0.12000  1.0000
  C   C300      1.0  0.53391  0.20632  0.10729  1.0000
  C   C301      1.0  0.61041  0.23547  0.10139  1.0000
  C   C302      1.0  0.56716  0.21526  0.09504  1.0000
  H   H343      1.0  0.61598  0.32346  0.15042  1.0000
  C   C303      1.0  0.52358  0.09110  0.22100  1.0000
  H   H344      1.0  0.66165  0.31463  0.14803  1.0000
  H   H345      1.0  0.54385  0.25593  0.16078  1.0000
  H   H346      1.0  0.56992  0.24368  0.17904  1.0000
  H   H347      1.0  0.53563  0.19523  0.16304  1.0000
  H   H348      1.0  0.62798  0.22796  0.17393  1.0000
  S   S81       1.0  0.72725  0.03230  0.13069  1.0000
  C   C304      1.0  0.53923  0.07723  0.23620  1.0000
  H   H349      1.0  0.51098  0.28100  0.27492  1.0000
  H   H350      1.0  0.59835  0.18170  0.15639  1.0000
  C   C305      1.0  0.84092  0.35986  0.21522  1.0000
  H   H351      1.0  0.86730  0.43511  0.20856  1.0000
  C   C306      1.0  0.77880  0.04107  0.12343  1.0000
  C   C307      1.0  0.76338  0.35502  0.31597  1.0000
  C   C308      1.0  0.83166  0.31393  0.20887  1.0000
  C   C309      1.0  0.55085  0.01617  0.22121  1.0000
  C   C310      1.0  0.85990  0.05126  0.11217  1.0000
  H   H352      1.0  0.67647  0.39368  0.24161  1.0000
  H   H353      1.0  0.72905  0.27491  0.21856  1.0000
  C   C311      1.0  0.92795  0.07882  0.05207  1.0000
  Fe  Fe35      1.0  0.75641  0.48501  0.17014  1.0000
  C   C312      1.0  0.86056  0.39941  0.20372  1.0000
  C   C313      1.0  0.49987  0.07094  0.31142  1.0000
  H   H354      1.0  0.55588  0.01753  0.25772  1.0000
  C   C314      1.0  0.49061  0.09309  0.25543  1.0000
  H   H355      1.0  0.56311  0.07604  0.31349  1.0000
  H   H356      1.0  0.83667  0.36894  0.14808  1.0000
  H   H357      1.0  0.72756  0.41901  0.21520  1.0000
  N   N21       1.0  0.47827  0.31900  0.26615  1.0000
  H   H358      1.0  0.58355  0.44198  0.09764  1.0000
  H   H359      1.0  0.85580  0.02021  0.15397  1.0000
  H   H360      1.0  0.90407  0.11641  0.02206  1.0000
  C   C315      1.0  0.48577  0.36906  0.26917  1.0000
  C   C316      1.0  0.85454  0.06546  0.05450  1.0000
  H   H361      1.0  0.60198  0.07987  0.26037  1.0000
  H   H362      1.0  0.77685  0.44970  0.27043  1.0000
  H   H363      1.0  0.69924  0.41215  0.26444  1.0000
  H   H364      1.0  0.53515  0.09050  0.20739  1.0000
  H   H365      1.0  0.87281  0.36345  0.13247  1.0000
  H   H366      1.0  0.85737  0.06967  0.06972  1.0000
  H   H367      1.0  0.57344  0.00185  0.21910  1.0000
  C   C317      1.0  0.48033  0.32169  0.15615  1.0000
  Fe  Fe36      1.0  0.64453  0.46991  0.32451  1.0000
  H   H368      1.0  0.54706  0.34202  0.26712  1.0000
  H   H369      1.0  0.51505  0.39964  0.11445  1.0000
  C   C318      1.0  0.60488  0.29433  0.32324  1.0000
  H   H370      1.0  0.58906  0.31542  0.32752  1.0000
  C   C319      1.0  0.79751  0.01418  0.16421  1.0000
  H   H371      1.0  0.49994  0.44189  0.13954  1.0000
  H   H372      1.0  0.64140  0.31933  0.32385  1.0000
  H   H373      1.0  0.62711  0.13379  0.23339  1.0000
  H   H374      1.0  0.48077  0.35349  0.31322  1.0000
  C   C320      1.0  0.52208  0.07909  0.25360  1.0000
  H   H375      1.0  0.60506  0.10769  0.21096  1.0000
  H   H376      1.0  0.49587  0.06183  0.29696  1.0000
  C   C321      1.0  0.82036  0.00685  0.10914  1.0000
  H   H377      1.0  0.50008  0.18990  0.10243  1.0000
  Fe  Fe37      1.0  0.92993  0.00307  0.09667  1.0000
  H   H378      1.0  0.53195  0.06935  0.26599  1.0000
  H   H379      1.0  0.85163  0.27981  0.32474  1.0000
  H   H380      1.0  0.97671  0.23114  0.65855  1.0000
  H   H381      1.0  0.53690  0.31666  0.36876  1.0000
  H   H382      1.0  0.80922  0.21626  0.36857  1.0000
  H   H383      1.0  0.89695  0.19660  0.65283  1.0000
  C   C322      1.0  0.90649  0.10335  0.63308  1.0000
  H   H384      1.0  0.65367  0.36230  0.38486  1.0000
  S   S82       1.0  0.78385  0.11085  0.36130  1.0000
  C   C323      1.0  0.84709  0.31399  0.35918  1.0000
  S   S83       1.0  0.59040  0.10094  0.35175  1.0000
  C   C324      1.0  0.83419  0.03920  0.61965  1.0000
  S   S84       1.0  0.71570  0.16693  0.34753  1.0000
  C   C325      1.0  0.84581  0.23815  0.36742  1.0000
  C   C326      1.0  0.90160  0.05704  0.60545  1.0000
  C   C327      1.0  0.84175  0.00988  0.36369  1.0000
  C   C328      1.0  0.83943  0.25391  0.33613  1.0000
  S   S85       1.0  0.73256  0.41687  0.35800  1.0000
  H   H385      1.0  0.96952  0.10595  0.63248  1.0000
  C   C329      1.0  0.63053  0.28773  0.39165  1.0000
  H   H386      1.0  0.86081  0.25286  0.38120  1.0000
  C   C330      1.0  0.72708  0.32931  0.35064  1.0000
  C   C331      1.0  0.73815  0.37491  0.34391  1.0000
  C   C332      1.0  0.59770  0.22788  0.36670  1.0000
  H   H387      1.0  0.63192  0.34397  0.35312  1.0000
  C   C333      1.0  0.82513  0.38592  0.36851  1.0000
  H   H388      1.0  0.71386  0.31958  0.36422  1.0000
  C   C334      1.0  0.90839  0.30247  0.35260  1.0000
  H   H389      1.0  0.79553  0.34429  0.39231  1.0000
  H   H390      1.0  0.92498  0.32212  0.36567  1.0000
  H   H391      1.0  0.64078  0.29672  0.40587  1.0000
  H   H392      1.0  0.91916  0.27589  0.34928  1.0000
  C   C335      1.0  0.91225  0.17616  0.64832  1.0000
  H   H393      1.0  0.87382  0.35713  0.33478  1.0000
  C   C336      1.0  0.63751  0.32453  0.37986  1.0000
  C   C337      1.0  0.97710  0.16982  0.64584  1.0000
  S   S86       1.0  0.67063  0.48711  0.35335  1.0000
  S   S87       1.0  0.96163  0.01907  0.40331  1.0000
  C   C338      1.0  0.95717  0.19574  0.65158  1.0000
  C   C339      1.0  0.81363  0.34717  0.38000  1.0000
  H   H394      1.0  0.81368  0.28216  0.38489  1.0000
  C   C340      1.0  0.79878  0.03838  0.34736  1.0000
  C   C341      1.0  0.80552  0.07129  0.36179  1.0000
  C   C342      1.0  0.83066  0.07345  0.37712  1.0000
  C   C343      1.0  0.81696  0.00808  0.34829  1.0000
  H   H395      1.0  0.60508  0.21068  0.39423  1.0000
  H   H396      1.0  0.80318  0.23776  0.33643  1.0000
  C   C344      1.0  0.82426  0.31154  0.37549  1.0000
  C   C345      1.0  0.60494  0.26457  0.35422  1.0000
  N   N22       1.0  0.85978  0.27761  0.35407  1.0000
  H   H397      1.0  0.86747  0.04467  0.39006  1.0000
  Fe  Fe38      1.0  0.73792  0.11390  0.33995  1.0000
  C   C346      1.0  0.55351  0.36475  0.34603  1.0000
  H   H398      1.0  0.85248  0.11771  0.63716  1.0000
  H   H399      1.0  0.51272  0.09978  0.36356  1.0000
  Fe  Fe39      1.0  0.72058  0.46931  0.34269  1.0000
  H   H400      1.0  0.83610  0.09875  0.38837  1.0000
  C   C347      1.0  0.50936  0.09204  0.34897  1.0000
  H   H401      1.0  0.94809  0.99548  0.52104  1.0000
  C   C348      1.0  0.73412  0.29663  0.34008  1.0000
  C   C349      1.0  0.54263  0.08922  0.33961  1.0000
  H   H402      1.0  0.58203  0.18980  0.36236  1.0000
  C   C350      1.0  0.61056  0.23945  0.38509  1.0000
  N   N23       1.0  0.88113  0.05516  0.62333  1.0000
  H   H403      1.0  0.81572  0.41271  0.37181  1.0000
  H   H404      1.0  0.93709  0.01984  0.49043  1.0000
  H   H405      1.0  0.92120  0.32967  0.34163  1.0000
  C   C351      1.0  0.84858  0.04286  0.37812  1.0000
  C   C352      1.0  0.52477  0.32441  0.35650  1.0000
  C   C353      1.0  0.62485  0.31337  0.36143  1.0000
  C   C354      1.0  0.84687  0.38897  0.35231  1.0000
  H   H406      1.0  0.77977  0.03648  0.33543  1.0000
  H   H407      1.0  0.85582  0.21141  0.36318  1.0000
  H   H408      1.0  0.58761  0.38796  0.35026  1.0000
  C   C355      1.0  0.88175  0.01722  0.63441  1.0000
  H   H409      1.0  0.93479  0.06173  0.60700  1.0000
  C   C356      1.0  0.95230  0.12436  0.63674  1.0000
  H   H410      1.0  0.72609  0.26196  0.34555  1.0000
  H   H411      1.0  0.86616  0.01424  0.64789  1.0000
  H   H412      1.0  0.83121  0.06560  0.61100  1.0000
  C   C357      1.0  0.88703  0.13060  0.63923  1.0000
  H   H413      1.0  0.88171  0.02274  0.59707  1.0000
  Fe  Fe40      1.0  0.64926  0.11045  0.33603  1.0000
  H   H414      1.0  0.81590  0.03442  0.63254  1.0000
  H   H415      1.0  0.90558  0.08809  0.59735  1.0000
  H   H416      1.0  0.91578  0.02522  0.63714  1.0000
  C   C358      1.0  0.85773  0.35364  0.34766  1.0000
  H   H417      1.0  0.85422  0.41819  0.34309  1.0000
  H   H418      1.0  0.52651  0.24057  0.33960  1.0000
  H   H419      1.0  0.81643  0.00296  0.61217  1.0000
  C   C359      1.0  0.48066  0.29352  0.35086  1.0000
  S   S88       1.0  0.93249  0.99259  0.56985  1.0000
  H   H420      1.0  0.52947  0.18666  0.34143  1.0000
  C   C360      1.0  0.94263  0.98961  0.49148  1.0000
  N   N24       1.0  0.59095  0.25129  0.33480  1.0000
  C   C361      1.0  0.54217  0.22068  0.33370  1.0000
  H   H421      1.0  0.59810  0.18760  0.33343  1.0000
  H   H422      1.0  0.85810  0.05416  0.88571  1.0000
  C   C362      1.0  0.88324  0.05694  0.84092  1.0000
  H   H423      1.0  0.79841  0.05705  0.87452  1.0000
  H   H424      1.0  0.87811  0.08678  0.83643  1.0000
  C   C363      1.0  0.95941  0.01143  0.99631  1.0000
  H   H425      1.0  0.91081  0.08315  0.87542  1.0000
  S   S89       1.0  0.90705  0.00388  0.90745  1.0000
  C   C364      1.0  0.87535  0.07003  0.87273  1.0000
  H   H426      1.0  0.91926  0.07333  0.84369  1.0000
  S   S90       1.0  0.95247  0.01339  0.95882  1.0000
  H   H427      1.0  0.87363  0.10310  0.86982  1.0000
  H   H428      1.0  0.86928  0.02645  0.97340  1.0000
  N   N25       1.0  0.85692  0.03336  0.85730  1.0000
  H   H429      1.0  0.72114  0.02380  0.86705  1.0000
  C   C365      1.0  0.74005  0.01200  0.85909  1.0000
  H   H430      1.0  0.87478  0.03053  0.82922  1.0000
  C   C366      1.0  0.86979  0.02974  0.98820  1.0000
  C   C367      1.0  0.80966  0.01450  0.85334  1.0000
  Fe  Fe41      1.0  0.96633  0.02437  0.89005  1.0000
  C   C368      1.0  0.88745  0.07557  0.99688  1.0000
  C   C369      1.0  0.78461  0.03059  0.86329  1.0000
  H   H431      1.0  0.90002  0.10783  0.98872  1.0000
  H   H432      1.0  0.89841  0.00516  0.86486  1.0000
  C   C370      1.0  0.86314  0.99235  0.86206  1.0000
  Fe  Fe42      1.0  0.92381  0.90635  0.10518  1.0000
  H   H433      1.0  0.80831  0.57877  0.24685  1.0000
  S   S91       1.0  0.89430  0.85263  0.12836  1.0000
  Fe  Fe43      1.0  0.93210  0.93855  0.06540  1.0000
  H   H434      1.0  0.74968  0.96722  0.11251  1.0000
  S   S92       1.0  0.90753  0.90920  0.03612  1.0000
  H   H435      1.0  0.62365  0.49827  0.07638  1.0000
  C   C371      1.0  0.56079  0.51031  0.13651  1.0000
  C   C372      1.0  0.75138  0.56342  0.23069  1.0000
  H   H436      1.0  0.68815  0.52782  0.27634  1.0000
  S   S93       1.0  0.88277  0.92529  0.08756  1.0000
  Fe  Fe44      1.0  0.75375  0.56614  0.14911  1.0000
  S   S94       1.0  0.77672  0.56303  0.17767  1.0000
  S   S95       1.0  0.78343  0.61897  0.12572  1.0000
  N   N26       1.0  0.65166  0.53729  0.10214  1.0000
  H   H437      1.0  0.77370  0.69603  0.28681  1.0000
  C   C373      1.0  0.75890  0.91284  0.16085  1.0000
  H   H438      1.0  0.55446  0.52827  0.14787  1.0000
  H   H439      1.0  0.77819  0.62691  0.31126  1.0000
  C   C374      1.0  0.75079  0.55329  0.26354  1.0000
  C   C375      1.0  0.77356  0.56659  0.24705  1.0000
  C   C376      1.0  0.68418  0.53650  0.24742  1.0000
  H   H440      1.0  0.82524  0.87371  0.12606  1.0000
  H   H441      1.0  0.76906  0.57341  0.21800  1.0000
  C   C377      1.0  0.83721  0.78753  0.30281  1.0000
  S   S96       1.0  0.96944  0.91285  0.08243  1.0000
  C   C378      1.0  0.86321  0.78767  0.12722  1.0000
  C   C379      1.0  0.85318  0.76100  0.11064  1.0000
  C   C380      1.0  0.82864  0.70940  0.11046  1.0000
  C   C381      1.0  0.81383  0.68395  0.12681  1.0000
  C   C382      1.0  0.82345  0.71063  0.14337  1.0000
  C   C383      1.0  0.84805  0.76223  0.14355  1.0000
  H   H442      1.0  0.86465  0.78006  0.09798  1.0000
  H   H443      1.0  0.82147  0.68910  0.09758  1.0000
  H   H444      1.0  0.81233  0.69155  0.15605  1.0000
  H   H445      1.0  0.85577  0.78250  0.15645  1.0000
  H   H446      1.0  0.82639  0.71684  0.27596  1.0000
  S   S97       1.0  0.68682  0.54773  0.31596  1.0000
  H   H447      1.0  0.69181  0.59300  0.12256  1.0000
  C   C384      1.0  0.92175  0.93889  0.01475  1.0000
  S   S98       1.0  0.77851  0.55355  0.28352  1.0000
  H   H448      1.0  0.85139  0.65608  0.29655  1.0000
  H   H449      1.0  0.68185  0.50925  0.11950  1.0000
  H   H450      1.0  0.87512  0.97968  0.13245  1.0000
  H   H451      1.0  0.89419  0.98045  0.15552  1.0000
  H   H452      1.0  0.75988  0.75237  0.32453  1.0000
  Fe  Fe45      1.0  0.73638  0.52673  0.30852  1.0000
  H   H453      1.0  0.62162  0.55307  0.07990  1.0000
  H   H454      1.0  0.66518  0.61127  0.10605  1.0000
  H   H455      1.0  0.80067  0.90986  0.12184  1.0000
  C   C385      1.0  0.80587  0.88879  0.13240  1.0000
  N   N27       1.0  0.82862  0.92014  0.14886  1.0000
  S   S99       1.0  0.68339  0.53850  0.15697  1.0000
  N   N28       1.0  0.82489  0.70146  0.30462  1.0000
  H   H456      1.0  0.69980  0.90981  0.17036  1.0000
  H   H457      1.0  0.83078  0.97145  0.05410  1.0000
  C   C386      1.0  0.80320  0.69210  0.28632  1.0000
  C   C387      1.0  0.84109  0.75146  0.31231  1.0000
  C   C388      1.0  0.64191  0.53614  0.08235  1.0000
  H   H458      1.0  0.62288  0.57273  0.13156  1.0000
  H   H459      1.0  0.84720  0.91134  0.17583  1.0000
  C   C389      1.0  0.70664  0.54841  0.23084  1.0000
  S   S100      1.0  0.67823  0.54443  0.21054  1.0000
  H   H460      1.0  0.88841  0.72081  0.29404  1.0000
  C   C390      1.0  0.86227  0.69300  0.30278  1.0000
  C   C391      1.0  0.80365  0.94275  0.15583  1.0000
  Fe  Fe46      1.0  0.70522  0.52999  0.18483  1.0000
  H   H461      1.0  0.71234  0.60719  0.10012  1.0000
  H   H462      1.0  0.89229  0.93819  0.13868  1.0000
  C   C392      1.0  0.85293  0.83439  0.31058  1.0000
  H   H463      1.0  0.79122  0.65405  0.28104  1.0000
  H   H464      1.0  0.88571  0.98122  0.05185  1.0000
  H   H465      1.0  0.82218  0.78053  0.28937  1.0000
  C   C393      1.0  0.70607  0.53837  0.26372  1.0000
  C   C394      1.0  0.67632  0.51171  0.10475  1.0000
  H   H466      1.0  0.76445  0.67091  0.31965  1.0000
  H   H467      1.0  0.84980  0.86147  0.30313  1.0000
  H   H468      1.0  0.74247  0.87342  0.15977  1.0000
  C   C395      1.0  0.79226  0.66477  0.31703  1.0000
  C   C396      1.0  0.68118  0.58940  0.10799  1.0000
  C   C397      1.0  0.87445  0.95643  0.14368  1.0000
  H   H469      1.0  0.77320  0.85667  0.13550  1.0000
  S   S101      1.0  0.96866  0.98421  0.11566  1.0000
  H   H470      1.0  0.80690  0.66528  0.33052  1.0000
  C   C398      1.0  0.86185  0.76553  0.32985  1.0000
  H   H471      1.0  0.82074  0.97662  0.10231  1.0000
  H   H472      1.0  0.67271  0.55635  0.07438  1.0000
  H   H473      1.0  0.64958  0.52505  0.24760  1.0000
  H   H474      1.0  0.70941  0.53117  0.09838  1.0000
  C   C399      1.0  0.60994  0.51229  0.11236  1.0000
  H   H475      1.0  0.84524  0.95854  0.02472  1.0000
  C   C400      1.0  0.73423  0.93322  0.16705  1.0000
  C   C401      1.0  0.60021  0.53550  0.12696  1.0000
  H   H476      1.0  0.79826  0.85839  0.16665  1.0000
  C   C402      1.0  0.87312  0.84685  0.32784  1.0000
  H   H477      1.0  0.85080  0.87270  0.15841  1.0000
  C   C403      1.0  0.83122  0.88935  0.16308  1.0000
  H   H478      1.0  0.87776  0.69458  0.31622  1.0000
  H   H479      1.0  0.79283  0.49470  0.25389  1.0000
  H   H480      1.0  0.69012  0.67634  0.33115  1.0000
  C   C404      1.0  0.75347  0.98380  0.16865  1.0000
  S   S102      1.0  0.74047  0.49095  0.14115  1.0000
  H   H481      1.0  0.51959  0.98643  0.22690  1.0000
  H   H482      1.0  0.97532  0.82806  0.01473  1.0000
  H   H483      1.0  0.84581  0.96920  0.53623  1.0000
  S   S103      1.0  0.54373  0.79221  0.63682  1.0000
  C   C405      1.0  0.95520  0.93622  0.51056  1.0000
  H   H484      1.0  0.78228  0.82814  0.34193  1.0000
  H   H485      1.0  0.77476  0.82806  0.38940  1.0000
  H   H486      1.0  0.82192  0.82142  0.51164  1.0000
  Fe  Fe47      1.0  0.59798  0.79566  0.65463  1.0000
  S   S104      1.0  0.67262  0.82577  0.65279  1.0000
  H   H487      1.0  0.82520  0.95884  0.50569  1.0000
  S   S105      1.0  0.86130  0.96837  0.36450  1.0000
  H   H488      1.0  0.67408  0.83069  0.37648  1.0000
  Fe  Fe48      1.0  0.92827  0.88433  0.39535  1.0000
  Fe  Fe49      1.0  0.52084  0.81304  0.66241  1.0000
  S   S106      1.0  0.91337  0.80679  0.38964  1.0000
  H   H489      1.0  0.80971  0.93435  0.55398  1.0000
  H   H490      1.0  0.74519  0.84443  0.52977  1.0000
  S   S107      1.0  0.88111  0.90529  0.40684  1.0000
  H   H491      1.0  0.85449  0.85823  0.53879  1.0000
  C   C406      1.0  0.96665  0.79508  0.57802  1.0000
  S   S108      1.0  0.91643  0.88690  0.58078  1.0000
  H   H492      1.0  0.88469  0.92341  0.53813  1.0000
  Fe  Fe50      1.0  0.89347  0.93710  0.59102  1.0000
  S   S109      1.0  0.82127  0.91750  0.59164  1.0000
  H   H493      1.0  0.81173  0.98308  0.33697  1.0000
  Fe  Fe51      1.0  0.71792  0.56349  0.34407  1.0000
  C   C407      1.0  0.83261  0.92528  0.48182  1.0000
  S   S110      1.0  0.72915  0.63396  0.35784  1.0000
  C   C408      1.0  0.77372  0.84701  0.53732  1.0000
  C   C409      1.0  0.86168  0.75872  0.38125  1.0000
  C   C410      1.0  0.85712  0.71362  0.37591  1.0000
  C   C411      1.0  0.81673  0.67495  0.36879  1.0000
  C   C412      1.0  0.78040  0.68098  0.36710  1.0000
  C   C413      1.0  0.78483  0.72584  0.37272  1.0000
  C   C414      1.0  0.82536  0.76472  0.37958  1.0000
  H   H494      1.0  0.88504  0.70864  0.37726  1.0000
  H   H495      1.0  0.81363  0.64040  0.36477  1.0000
  H   H496      1.0  0.75671  0.73045  0.37180  1.0000
  H   H497      1.0  0.82855  0.79919  0.38372  1.0000
  Fe  Fe52      1.0  0.93928  0.96041  0.42435  1.0000
  H   H498      1.0  0.71774  0.87594  0.39087  1.0000
  C   C415      1.0  0.82178  0.88992  0.51217  1.0000
  H   H499      1.0  0.97018  0.81200  0.54186  1.0000
  C   C416      1.0  0.85254  0.89134  0.54193  1.0000
  H   H500      1.0  0.84941  0.89304  0.55702  1.0000
  Fe  Fe53      1.0  0.50175  0.71541  0.64692  1.0000
  C   C417      1.0  0.94858  0.97565  0.50891  1.0000
  H   H501      1.0  0.75622  0.91833  0.36512  1.0000
  C   C418      1.0  0.71290  0.85022  0.63532  1.0000
  C   C419      1.0  0.70401  0.86138  0.61806  1.0000
  C   C420      1.0  0.73752  0.88174  0.60490  1.0000
  C   C421      1.0  0.78020  0.89083  0.60872  1.0000
  C   C422      1.0  0.78907  0.87951  0.62594  1.0000
  C   C423      1.0  0.75571  0.85963  0.63915  1.0000
  H   H502      1.0  0.67139  0.85456  0.61489  1.0000
  H   H503      1.0  0.73015  0.89038  0.59167  1.0000
  H   H504      1.0  0.82153  0.88587  0.62910  1.0000
  H   H505      1.0  0.89386  0.82250  0.35078  1.0000
  H   H506      1.0  0.83413  0.81986  0.47887  1.0000
  S   S111      1.0  0.94712  0.97361  0.61258  1.0000
  H   H507      1.0  0.83729  0.95482  0.47326  1.0000
  C   C424      1.0  0.95016  0.92534  0.47707  1.0000
  H   H508      1.0  0.95044  0.90545  0.46491  1.0000
  H   H509      1.0  0.84186  0.88621  0.45958  1.0000
  C   C425      1.0  0.95610  0.91133  0.49451  1.0000
  S   S112      1.0  0.55674  0.71679  0.66282  1.0000
  Fe  Fe54      1.0  0.95895  0.94491  0.56099  1.0000
  C   C426      1.0  0.82434  0.85081  0.50373  1.0000
  C   C427      1.0  0.81433  0.93469  0.53891  1.0000
  C   C428      1.0  0.74730  0.88378  0.35738  1.0000
  Fe  Fe55      1.0  0.90694  0.96230  0.38517  1.0000
  H   H510      1.0  0.71799  0.87383  0.34858  1.0000
  H   H511      1.0  0.76755  0.84765  0.55226  1.0000
  C   C429      1.0  0.70586  0.84039  0.38330  1.0000
  H   H512      1.0  0.77370  0.81261  0.53440  1.0000
  H   H513      1.0  0.64190  0.67664  0.35531  1.0000
  C   C430      1.0  0.82601  0.92724  0.50060  1.0000
  H   H514      1.0  0.76302  0.85107  0.65242  1.0000
  C   C431      1.0  0.67193  0.71047  0.35225  1.0000
  S   S113      1.0  0.95060  0.93739  0.37258  1.0000
  C   C432      1.0  0.83523  0.88654  0.47404  1.0000
  C   C433      1.0  0.77976  0.85732  0.38000  1.0000
  N   N29       1.0  0.81565  0.89105  0.53217  1.0000
  H   H515      1.0  0.69963  0.81306  0.39382  1.0000
  S   S114      1.0  0.96231  0.91646  0.53223  1.0000
  Fe  Fe56      1.0  0.97333  0.92709  0.60084  1.0000
  N   N30       1.0  0.73858  0.84379  0.36979  1.0000
  C   C434      1.0  0.83111  0.84938  0.48496  1.0000
  H   H516      1.0  0.78640  0.93616  0.53260  1.0000
  C   C435      1.0  0.94322  0.96452  0.47545  1.0000
  H   H517      1.0  0.79215  0.89199  0.38825  1.0000
  H   H518      1.0  0.77560  0.89343  0.34829  1.0000
  C   C436      1.0  0.75087  0.79621  0.34495  1.0000
  H   H519      1.0  0.94229  0.80629  0.57495  1.0000
  H   H520      1.0  0.96111  0.88073  0.49556  1.0000
  C   C437      1.0  0.72396  0.79785  0.35900  1.0000
  H   H521      1.0  0.66149  0.75079  0.37289  1.0000
  C   C438      1.0  0.68389  0.75352  0.36236  1.0000
  H   H522      1.0  0.94903  0.75475  0.57587  1.0000
  H   H523      1.0  0.80707  0.86371  0.37077  1.0000
  C   C439      1.0  0.73841  0.75302  0.33488  1.0000
  H   H524      1.0  0.97526  0.80306  0.59285  1.0000
  H   H525      1.0  0.86616  0.74030  0.33791  1.0000
  S   S115      1.0  0.93365  0.98279  0.45393  1.0000
  H   H526      1.0  0.86364  0.98054  0.62734  1.0000
  C   C440      1.0  0.69907  0.71023  0.33855  1.0000
  S   S116      1.0  0.77037  0.54705  0.33605  1.0000
  C   C441      1.0  0.87769  0.81253  0.33741  1.0000
  H   H527      1.0  0.88558  0.88330  0.33379  1.0000
  Fe  Fe57      1.0  0.53447  0.74525  0.68623  1.0000
  S   S117      1.0  0.52416  0.71478  0.71454  1.0000
  H   H528      1.0  0.85211  0.96363  0.85105  1.0000
  H   H529      1.0  0.80391  0.96441  0.83108  1.0000
  S   S118      1.0  0.51459  0.77538  0.85560  1.0000
  Fe  Fe58      1.0  0.54301  0.83083  0.80802  1.0000
  S   S119      1.0  0.55202  0.87643  0.83347  1.0000
  S   S120      1.0  0.55996  0.86407  0.78032  1.0000
  Fe  Fe59      1.0  0.58063  0.83447  0.84588  1.0000
  S   S121      1.0  0.63769  0.87480  0.86651  1.0000
  H   H530      1.0  0.70494  0.85118  0.68902  1.0000
  H   H531      1.0  0.51075  0.67995  0.87356  1.0000
  S   S122      1.0  0.57642  0.79348  0.81969  1.0000
  S   S123      1.0  0.93810  0.94834  0.87771  1.0000
  H   H532      1.0  0.89772  0.91049  0.96900  1.0000
  H   H533      1.0  0.61043  0.77837  0.70251  1.0000
  S   S124      1.0  0.91136  0.90718  0.91885  1.0000
  H   H534      1.0  0.93595  0.87343  0.95485  1.0000
  C   C442      1.0  0.65665  0.85268  0.75837  1.0000
  Fe  Fe60      1.0  0.88066  0.92714  0.89616  1.0000
  S   S125      1.0  0.81429  0.87279  0.88232  1.0000
  H   H535      1.0  0.58453  0.64502  0.85381  1.0000
  C   C443      1.0  0.48090  0.85873  0.71863  1.0000
  C   C444      1.0  0.91293  0.93259  0.98127  1.0000
  H   H536      1.0  0.55781  0.71451  0.84556  1.0000
  S   S126      1.0  0.57836  0.82381  0.67929  1.0000
  C   C445      1.0  0.76762  0.87755  0.87693  1.0000
  C   C446      1.0  0.73824  0.84686  0.86295  1.0000
  C   C447      1.0  0.69911  0.84678  0.85906  1.0000
  C   C448      1.0  0.68842  0.87659  0.86946  1.0000
  C   C449      1.0  0.71818  0.90790  0.88322  1.0000
  C   C450      1.0  0.75773  0.90871  0.88686  1.0000
  H   H537      1.0  0.74553  0.82249  0.85526  1.0000
  H   H538      1.0  0.67688  0.82294  0.84832  1.0000
  H   H539      1.0  0.71025  0.93117  0.89131  1.0000
  H   H540      1.0  0.77970  0.93212  0.89778  1.0000
  C   C451      1.0  0.53493  0.75650  0.73285  1.0000
  C   C452      1.0  0.55349  0.80638  0.72984  1.0000
  C   C453      1.0  0.56072  0.83906  0.74449  1.0000
  C   C454      1.0  0.54954  0.82205  0.76225  1.0000
  C   C455      1.0  0.53089  0.77214  0.76533  1.0000
  C   C456      1.0  0.52382  0.73945  0.75064  1.0000
  H   H541      1.0  0.56221  0.81994  0.71627  1.0000
  H   H542      1.0  0.57536  0.87768  0.74209  1.0000
  H   H543      1.0  0.52241  0.75881  0.77904  1.0000
  H   H544      1.0  0.72087  0.79087  0.69802  1.0000
  N   N31       1.0  0.57832  0.69787  0.87066  1.0000
  C   C457      1.0  0.54257  0.69748  0.88145  1.0000
  C   C458      1.0  0.58729  0.72909  0.85473  1.0000
  C   C459      1.0  0.56139  0.64701  0.86359  1.0000
  C   C460      1.0  0.61932  0.71822  0.88185  1.0000
  C   C461      1.0  0.63696  0.76449  0.89106  1.0000
  C   C462      1.0  0.64460  0.69512  0.88281  1.0000
  C   C463      1.0  0.67721  0.78615  0.90062  1.0000
  C   C464      1.0  0.68516  0.71751  0.89223  1.0000
  C   C465      1.0  0.70154  0.76305  0.90101  1.0000
  H   H545      1.0  0.54971  0.73488  0.88527  1.0000
  C   C466      1.0  0.95995  0.86282  0.95026  1.0000
  H   H546      1.0  0.53693  0.67716  0.89427  1.0000
  H   H547      1.0  0.59694  0.76718  0.85894  1.0000
  H   H548      1.0  0.72544  0.88311  0.71045  1.0000
  H   H549      1.0  0.61469  0.73142  0.84649  1.0000
  H   H550      1.0  0.55502  0.62173  0.87493  1.0000
  C   C467      1.0  0.69518  0.85389  0.70327  1.0000
  H   H551      1.0  0.62085  0.78551  0.89030  1.0000
  H   H552      1.0  0.63432  0.66028  0.87608  1.0000
  H   H553      1.0  0.69054  0.82213  0.90710  1.0000
  H   H554      1.0  0.49274  0.88582  0.73029  1.0000
  H   H555      1.0  0.73369  0.78112  0.90776  1.0000
  C   C468      1.0  0.64401  0.76597  0.74225  1.0000
  H   H556      1.0  0.69670  0.75434  0.71745  1.0000
  C   C469      1.0  0.66912  0.85216  0.74027  1.0000
  C   C470      1.0  0.63799  0.81024  0.76836  1.0000
  C   C471      1.0  0.63155  0.76693  0.76031  1.0000
  H   H557      1.0  0.64486  0.76925  0.68691  1.0000
  H   H558      1.0  0.67071  0.86587  0.70212  1.0000
  H   H559      1.0  0.73919  0.81743  0.72070  1.0000
  H   H560      1.0  0.88140  0.87154  0.99926  1.0000
  H   H561      1.0  0.65987  0.88574  0.76454  1.0000
  H   H562      1.0  0.63758  0.73127  0.73652  1.0000
  H   H563      1.0  0.62310  0.73201  0.70639  1.0000
  H   H564      1.0  0.94784  0.82502  0.95468  1.0000
  H   H565      1.0  0.61575  0.73364  0.76797  1.0000
  Fe  Fe61      1.0  0.94228  0.98540  0.92888  1.0000
  C   C472      1.0  0.63714  0.76993  0.70165  1.0000
  H   H566      1.0  0.70457  0.70002  0.89244  1.0000
  C   C473      1.0  0.66331  0.80859  0.73166  1.0000
  H   H567      1.0  0.62706  0.81064  0.78216  1.0000
  H   H568      1.0  0.68230  0.88610  0.73325  1.0000
  N   N32       1.0  0.67623  0.80648  0.71255  1.0000
  C   C474      1.0  0.70970  0.79164  0.71221  1.0000
  Fe  Fe62      1.0  0.50784  0.73778  0.82847  1.0000
  C   C475      1.0  0.74270  0.96052  0.83502  1.0000
  Fe  Fe63      1.0  0.48568  0.81377  0.84100  1.0000
  H   H569      1.0  0.68434  0.96196  0.84211  1.0000
  C   C476      1.0  0.90340  0.91066  0.99850  1.0000
  H   H570      1.0  0.50984  0.70097  0.75310  1.0000
  H   H571      1.0  0.50751  0.85093  0.71549  1.0000
  C   C477      1.0  0.78726  0.97887  0.83907  1.0000
  H   H572      1.0  0.52967  0.63242  0.85578  1.0000
  S   S127      1.0  0.47806  0.65630  0.82451  1.0000
  H   H573      1.0  0.72591  0.93242  0.82440  1.0000
  H   H574      1.0  0.84091  0.95267  0.99175  1.0000
  S   S128      1.0  0.49252  0.86137  0.66798  1.0000
  H   H575      1.0  0.95873  0.86057  0.93502  1.0000
  C   C478      1.0  0.71920  0.97717  0.84498  1.0000
  H   H576      1.0  0.84449  0.97417  0.87447  1.0000
  C   C479      1.0  0.94094  0.98322  0.98006  1.0000
  Fe  Fe64      1.0  0.97092  0.93434  0.90092  1.0000
  C   C480      1.0  0.85387  0.98817  0.99858  1.0000
