data_image0
_chemical_formula_structural       SH3S2FeCFeSHCSFe3S2HCSHFeC6H5CHC2H5CSC2HC3HCHSH2SCH3FeH2CH2C2HCNSC2H4SH2CHSCSCH2SCN2HC3NFeCHC2H2C3HCH3CHFeCHFeC3H2C5H3CHSH5CSCS2FeCS2NHCSCHFeS2FeCSHC2SFeH2CH3C2HCH2C4HCH7SFeHC3FeH5CHCHCNC9H12CFeC2HNH2CHCHC2NHCHCSCHCH2NCHCH2C4HCH2SHC3H2CH2CH2C5SCHFeCSHCFeC2H3FeH2SFeC2H2C2HCHCH3CH2CH3C2HSHCH2CHSCHCNHCSH2CSHFeS2FeS2FeSFeCS2FeS3CFeNS2FeC3H2C2H2C3H2NC3H4CHC4NC3HCH3CH2C6H3NCHC5HCHSH3CH2C2H2CS2HSHC2SH2SC5H7FeCHCH3CHC2HNCH3CHSCFeH4CHCH3C2H2CHC2H4CH3CHCHCH2CHC2H4CHCH2SH2FeHCFeSHC2SH2SFeS2FeS2FeSFeS3HC7H4C6H4SC2H5CH3NH2C6H3FeHSHN2HCH3CHCHNH4C4H6CHFeCNC2H3CHCSH3CH2C2HC2H2CH9CHC2HC3NCH2C5H6CH3C3HFeCHC5H2S2H2CHC2H2FeHSH2CSHSFeCSH2SFeSNSH2CH3SFeSHCHFeSHFeSFeSFeSCSHC2HC2H2C6H4C6H5C2SHSCFeHCSCH2C4H3CHCSHC6H9NC9HCH12NSH2C2NC2SH2CFeC4H2C4H3CHCHCH5C5H4CH6NH3CH2C2HCHNH2CHC3H3FeHSFeS2NFeCS2HCFeHSFeS2Fe2CS2H2FeCHS2HFeS2Fe2S2HSH2CH2C6H3C3H2SH2C7FeCH4CHC6H3CHC2H2CHSNCHC4H4C6H2CSC6H2C2HCH4SH2CH3SHSC2HC3H2CH3CHCS3H3C2HCHFeHSNH3C2NC9H15CH2SHSHC2H2CHC3H3CH2C2HC2SFeSFeS2FeS2FeSFeS3HC5HC6HCH2C6H4C3HCHCHCH2CHCH2CH5CSCHC2HC2HCNH4C2HSH3C2H3SH3C2H4SNH2CH3C4H2NC4HCH2FeNH2CHC3HCH4CH2CHCHCH4SH5C2HFeS2FeS2FeHFeS2C3H3C4H3C8H3C3H2C2H8CH2CHNCHCHSHNH7CSNC4HCHCHC2SH6C2H7C3HCH3SFeSHFeS2Fe2S3HC6H4C5H3NC3H2C3HC3HCHCSNH3CH3CH2NCHC7H2CH4CH6CSHCHC2HCFeH6CHSHCHNHC2HCH2CHC2HCH7SH3C2H3C2HFeSHFeS2CFeSHSHSC6H4C2H8C7H4C3HC3H3CH8CH2NSHCH4C4H2C2NH5C3H2CFeCH2CH3CH3FeCNHCHSHC2H2CH3C3HCH3SHNCHFeSCFeSHFeHFeS3H2FeS2FeS2FeSFeS3CFeHFeS2FeSFeCS2H2SH2CHC7H4C7H3C6H5C6H6CSCH2C2HCH3C4H2CHCHNH2CSH7CHNH2C3NHC2HCH2CHC2H2CH4CH2C2H3C2HCH4C2H2CNC2H2CHC3H2C3H2C4SC2H2CH2C3H2CHCH2CH5FeS2FeS2FeSFeS3FeS2FeSHFeSFeS2FeSCFeS2FeCFeS3CHC6H4C9H4C3H2C6H3CHNCH2CH4C2H5CHC3HCH4CH4CH5CHC4H3CHCNC2H4NHC6HC2HCH6C2NH4CHCH3SCHCHC2HNHCHCHCNCHCH3C3H7CSC2H6SH3C2H4CH2CH3CHCHSH2SFe2S2FeHFeS2H3FeS2FeS2FeSFeS3C6H4C6H4C6H5SHC2NCFeC8H3FeH2C4H2SCNC5H2CH10CH4NC4HC3H4CHC2H3CHC5H3FeCH3CHSH2C2H3CHS2HCSH2C3H2C2H3C2H2CHCHFeS2FeS2FeNFeS2HFeSH2C3H3CHC7H5CHCFeHNHCNC5H8CH5C4FeSC7H2NH7CSCHC5H3C2SCHC2H3CNH2SCHCHSHC2SH4CH2C2HCNH3CH6CSC3HCH2CH4C4H2CH5C2SCHSH2SHCH2FeSHFeS2FeCFeS2HFeSC3SH2C2HCHCNH2C9H5CHC2FeH4C2HCH2CH2CH3SCH5SC2H2C2H3C2SHCSHC3H2SNH2C5HCH3C3H2Fe2C2H4C2HCH2CH2CHCH3SH3NSHSHSCSH2CFeS2FeS2FeSFeS3HSHFeHCHFeS2FeSHFeSCFe2S2C6H3C3H2SHCH2CHC8H4C2HC2HC6H4CH5CHC2H2SCHCH2C2H2CHCH5CSH2CH2CHNCH2C3HC3HNCH2CFeH5CH2CHSH3NCH3FeHSCHCH2CHSCHC2H3CHC5NCH3C4SCH2C2SC2HCH3C
_chemical_formula_sum              "S288 H1296 Fe144 C1080 N72"
_cell_length_a       57.4382
_cell_length_b       57.233
_cell_length_c       32.6369
_cell_angle_alpha    90.8276
_cell_angle_beta     89.4106
_cell_angle_gamma    117.244

_space_group_name_H-M_alt    "P 1"
_space_group_IT_number       1

loop_
  _space_group_symop_operation_xyz
  'x, y, z'

loop_
  _atom_site_type_symbol
  _atom_site_label
  _atom_site_symmetry_multiplicity
  _atom_site_fract_x
  _atom_site_fract_y
  _atom_site_fract_z
  _atom_site_occupancy
  S   S1        1.0  0.18958  0.21594  0.43688  1.0000
  H   H1        1.0  0.19521  0.45659  0.30594  1.0000
  H   H2        1.0  0.09558  0.19950  0.04899  1.0000
  H   H3        1.0  0.99874  0.33106  0.43851  1.0000
  S   S2        1.0  0.19369  0.27521  0.44293  1.0000
  S   S3        1.0  0.18860  0.19956  0.06597  1.0000
  Fe  Fe1       1.0  0.20736  0.23852  0.03495  1.0000
  C   C1        1.0  0.23233  0.14681  0.14319  1.0000
  Fe  Fe2       1.0  0.22469  0.28511  0.49131  1.0000
  S   S4        1.0  0.16435  0.45090  0.23053  1.0000
  H   H4        1.0  0.07607  0.47498  0.30782  1.0000
  C   C2        1.0  0.22181  0.24833  0.29521  1.0000
  S   S5        1.0  0.11162  0.45871  0.24164  1.0000
  Fe  Fe3       1.0  0.15082  0.47410  0.27216  1.0000
  Fe  Fe4       1.0  0.18007  0.48595  0.18961  1.0000
  Fe  Fe5       1.0  0.12634  0.43823  0.19634  1.0000
  S   S6        1.0  0.10200  0.39449  0.18135  1.0000
  S   S7        1.0  0.14296  0.47207  0.15248  1.0000
  H   H5        1.0  0.05900  0.48293  0.36932  1.0000
  C   C3        1.0  0.15062  0.27475  0.11546  1.0000
  S   S8        1.0  0.02079  0.26106  0.03496  1.0000
  H   H6        1.0  0.21753  0.45593  0.19180  1.0000
  Fe  Fe6       1.0  0.22342  0.21606  0.10803  1.0000
  C   C4        1.0  0.08890  0.37955  0.13312  1.0000
  C   C5        1.0  0.08946  0.39427  0.09891  1.0000
  C   C6        1.0  0.07829  0.38151  0.06155  1.0000
  C   C7        1.0  0.06670  0.35394  0.05775  1.0000
  C   C8        1.0  0.06619  0.33921  0.09189  1.0000
  C   C9        1.0  0.07711  0.35196  0.12936  1.0000
  H   H7        1.0  0.09842  0.41548  0.10131  1.0000
  H   H8        1.0  0.07888  0.39312  0.03535  1.0000
  H   H9        1.0  0.17031  0.28538  0.10361  1.0000
  H   H10       1.0  0.07655  0.34039  0.15563  1.0000
  H   H11       1.0  0.10619  0.45574  0.35579  1.0000
  C   C10       1.0  0.15663  0.48577  0.42255  1.0000
  H   H12       1.0  0.08095  0.45001  0.42041  1.0000
  C   C11       1.0  0.01550  0.38230  0.01580  1.0000
  C   C12       1.0  0.11638  0.46342  0.38437  1.0000
  H   H13       1.0  0.19501  0.11238  0.19417  1.0000
  H   H14       1.0  0.15385  0.04363  0.07939  1.0000
  H   H15       1.0  0.00120  0.30110  0.10541  1.0000
  H   H16       1.0  0.13911  0.27065  0.49583  1.0000
  H   H17       1.0  0.02609  0.37034  0.01173  1.0000
  C   C13       1.0  0.15261  0.25123  0.01860  1.0000
  S   S9        1.0  0.22525  0.26688  0.34096  1.0000
  C   C14       1.0  0.01815  0.30642  0.48172  1.0000
  C   C15       1.0  0.10856  0.21850  0.03643  1.0000
  H   H18       1.0  0.02085  0.36409  0.45197  1.0000
  C   C16       1.0  0.17656  0.08243  0.10523  1.0000
  C   C17       1.0  0.10629  0.26937  0.11329  1.0000
  C   C18       1.0  0.14376  0.47636  0.38489  1.0000
  H   H19       1.0  0.20114  0.24958  0.15013  1.0000
  C   C19       1.0  0.20831  0.22086  0.29408  1.0000
  H   H20       1.0  0.14643  0.21044  0.11961  1.0000
  S   S10       1.0  0.12853  0.21540  0.49285  1.0000
  H   H21       1.0  0.09211  0.27496  0.10097  1.0000
  H   H22       1.0  0.05932  0.48491  0.44354  1.0000
  S   S11       1.0  0.20881  0.08330  0.50043  1.0000
  C   C20       1.0  0.14310  0.25346  0.14308  1.0000
  H   H23       1.0  0.20674  0.14510  0.07477  1.0000
  H   H24       1.0  0.19502  0.11661  0.45248  1.0000
  H   H25       1.0  0.18631  0.25421  0.10512  1.0000
  Fe  Fe7       1.0  0.21324  0.18830  0.02399  1.0000
  H   H26       1.0  0.17342  0.27188  0.20981  1.0000
  H   H27       1.0  0.17433  0.12857  0.09511  1.0000
  C   C21       1.0  0.13571  0.22672  0.03484  1.0000
  H   H28       1.0  0.02966  0.30350  0.45630  1.0000
  H   H29       1.0  0.20581  0.16386  0.45766  1.0000
  C   C22       1.0  0.14212  0.26736  0.00387  1.0000
  C   C23       1.0  0.10212  0.46009  0.42113  1.0000
  H   H30       1.0  0.19229  0.03597  0.06624  1.0000
  C   C24       1.0  0.23756  0.46838  0.18266  1.0000
  N   N1        1.0  0.20479  0.12792  0.13329  1.0000
  S   S12       1.0  0.18688  0.26258  0.01646  1.0000
  C   C25       1.0  0.20771  0.12868  0.47676  1.0000
  C   C26       1.0  0.17322  0.05861  0.08789  1.0000
  H   H31       1.0  0.19956  0.21025  0.32186  1.0000
  H   H32       1.0  0.14352  0.21401  0.04573  1.0000
  H   H33       1.0  0.19208  0.14202  0.18643  1.0000
  H   H34       1.0  0.02976  0.40273  0.00748  1.0000
  S   S13       1.0  0.06378  0.22332  0.02373  1.0000
  H   H35       1.0  0.15924  0.08507  0.10969  1.0000
  H   H36       1.0  0.23388  0.16557  0.15634  1.0000
  C   C27       1.0  0.23531  0.49311  0.35042  1.0000
  H   H37       1.0  0.14691  0.24025  0.22107  1.0000
  S   S14       1.0  0.16292  0.48116  0.33968  1.0000
  C   C28       1.0  0.23308  0.26179  0.25874  1.0000
  S   S15       1.0  0.05239  0.33887  0.01019  1.0000
  C   C29       1.0  0.23089  0.24805  0.22155  1.0000
  H   H38       1.0  0.99705  0.29445  0.47395  1.0000
  H   H39       1.0  0.21563  0.45237  0.26736  1.0000
  S   S16       1.0  0.21322  0.20215  0.17430  1.0000
  C   C30       1.0  0.21368  0.15545  0.47974  1.0000
  N   N2        1.0  0.23568  0.48619  0.30655  1.0000
  N   N3        1.0  0.02508  0.33464  0.48780  1.0000
  H   H40       1.0  0.01091  0.38219  0.04904  1.0000
  C   C31       1.0  0.11497  0.46985  0.45872  1.0000
  C   C32       1.0  0.11647  0.24102  0.15587  1.0000
  C   C33       1.0  0.13241  0.28257  0.10114  1.0000
  N   N4        1.0  0.16178  0.24458  0.15898  1.0000
  Fe  Fe8       1.0  0.22048  0.22933  0.48584  1.0000
  C   C34       1.0  0.22340  0.09746  0.10793  1.0000
  H   H41       1.0  0.07794  0.23843  0.14987  1.0000
  C   C35       1.0  0.09807  0.23464  0.02172  1.0000
  C   C36       1.0  0.21979  0.07350  0.09080  1.0000
  H   H42       1.0  0.21735  0.44446  0.31987  1.0000
  H   H43       1.0  0.10938  0.22514  0.17753  1.0000
  C   C37       1.0  0.09834  0.24869  0.14070  1.0000
  C   C38       1.0  0.21717  0.22060  0.22035  1.0000
  C   C39       1.0  0.23279  0.13403  0.00378  1.0000
  H   H44       1.0  0.19813  0.27900  0.14530  1.0000
  C   C40       1.0  0.20178  0.10266  0.11575  1.0000
  H   H45       1.0  0.14147  0.16075  0.49482  1.0000
  H   H46       1.0  0.19680  0.15972  0.11579  1.0000
  H   H47       1.0  0.05732  0.31801  0.08951  1.0000
  C   C41       1.0  0.11497  0.25915  0.00550  1.0000
  H   H48       1.0  0.03270  0.34438  0.42399  1.0000
  Fe  Fe9       1.0  0.21409  0.25540  0.40809  1.0000
  C   C42       1.0  0.18924  0.12319  0.17163  1.0000
  H   H49       1.0  0.17947  0.24404  0.21679  1.0000
  Fe  Fe10      1.0  0.17178  0.23696  0.47552  1.0000
  C   C43       1.0  0.19481  0.05418  0.08063  1.0000
  C   C44       1.0  0.21521  0.45875  0.29963  1.0000
  C   C45       1.0  0.19516  0.14079  0.10357  1.0000
  H   H50       1.0  0.16587  0.20888  0.16129  1.0000
  H   H51       1.0  0.13358  0.20414  0.17093  1.0000
  C   C46       1.0  0.14234  0.48258  0.45927  1.0000
  C   C47       1.0  0.16552  0.25041  0.20354  1.0000
  C   C48       1.0  0.01918  0.34402  0.44897  1.0000
  C   C49       1.0  0.15139  0.21580  0.15241  1.0000
  C   C50       1.0  0.18792  0.25748  0.13893  1.0000
  H   H52       1.0  0.16787  0.11163  0.16618  1.0000
  H   H53       1.0  0.19537  0.18589  0.25636  1.0000
  H   H54       1.0  0.15251  0.49016  0.48791  1.0000
  C   C51       1.0  0.20598  0.20712  0.25684  1.0000
  H   H55       1.0  0.13844  0.29849  0.07945  1.0000
  S   S17       1.0  0.23760  0.03571  0.48758  1.0000
  H   H56       1.0  0.21607  0.49206  0.35947  1.0000
  H   H57       1.0  0.05727  0.49311  0.30258  1.0000
  H   H58       1.0  0.23658  0.07018  0.08390  1.0000
  H   H59       1.0  0.07856  0.49314  0.26260  1.0000
  H   H60       1.0  0.05037  0.38828  0.50051  1.0000
  C   C52       1.0  0.05283  0.35121  0.49923  1.0000
  S   S18       1.0  0.20125  0.24799  0.52620  1.0000
  C   C53       1.0  0.00076  0.41040  0.80258  1.0000
  S   S19       1.0  0.09738  0.43915  0.60984  1.0000
  S   S20       1.0  0.15789  0.43810  0.65549  1.0000
  Fe  Fe11      1.0  0.13607  0.46187  0.64168  1.0000
  C   C54       1.0  0.12738  0.08075  0.56393  1.0000
  S   S21       1.0  0.03854  0.43562  0.67514  1.0000
  S   S22       1.0  0.11887  0.47845  0.68954  1.0000
  N   N5        1.0  0.00471  0.33401  0.73958  1.0000
  H   H61       1.0  0.18102  0.13893  0.55092  1.0000
  C   C55       1.0  0.02425  0.31963  0.67953  1.0000
  S   S23       1.0  0.06215  0.28107  0.95721  1.0000
  C   C56       1.0  0.23422  0.49071  0.67670  1.0000
  H   H62       1.0  0.05061  0.38879  0.63154  1.0000
  Fe  Fe12      1.0  0.02735  0.26040  0.91535  1.0000
  S   S24       1.0  0.03749  0.26112  0.84709  1.0000
  S   S25       1.0  0.00989  0.22327  0.95230  1.0000
  Fe  Fe13      1.0  0.01272  0.24658  0.55199  1.0000
  C   C57       1.0  0.11261  0.34027  0.61089  1.0000
  S   S26       1.0  0.99501  0.27004  0.58356  1.0000
  H   H63       1.0  0.03987  0.35049  0.77572  1.0000
  C   C58       1.0  0.20027  0.34201  0.61578  1.0000
  C   C59       1.0  0.14587  0.32791  0.58905  1.0000
  S   S27       1.0  0.20403  0.02427  0.57465  1.0000
  Fe  Fe14      1.0  0.21899  0.00247  0.53245  1.0000
  H   H64       1.0  0.11034  0.29130  0.51308  1.0000
  H   H65       1.0  0.21916  0.36155  0.54006  1.0000
  C   C60       1.0  0.01634  0.25346  0.80418  1.0000
  H   H66       1.0  0.18734  0.33473  0.53702  1.0000
  H   H67       1.0  0.17023  0.09247  0.97651  1.0000
  H   H68       1.0  0.01227  0.30253  0.76083  1.0000
  C   C61       1.0  0.01085  0.24902  0.72953  1.0000
  C   C62       1.0  0.02677  0.25466  0.76459  1.0000
  H   H69       1.0  0.02302  0.47107  0.75287  1.0000
  C   C63       1.0  0.23686  0.01887  0.79177  1.0000
  H   H70       1.0  0.01920  0.25012  0.69931  1.0000
  H   H71       1.0  0.04735  0.26004  0.76099  1.0000
  C   C64       1.0  0.09665  0.35701  0.51718  1.0000
  C   C65       1.0  0.02817  0.42203  0.79822  1.0000
  C   C66       1.0  0.04018  0.42992  0.75949  1.0000
  C   C67       1.0  0.02479  0.42590  0.72465  1.0000
  H   H72       1.0  0.01079  0.32846  0.54998  1.0000
  C   C68       1.0  0.22466  0.07475  0.77937  1.0000
  H   H73       1.0  0.04021  0.42503  0.82502  1.0000
  H   H74       1.0  0.06130  0.43898  0.75663  1.0000
  H   H75       1.0  0.19044  0.09416  0.85214  1.0000
  H   H76       1.0  0.13619  0.19275  0.57000  1.0000
  H   H77       1.0  0.20954  0.05528  0.77176  1.0000
  H   H78       1.0  0.01722  0.29988  0.69086  1.0000
  H   H79       1.0  0.11248  0.16282  0.54886  1.0000
  S   S28       1.0  0.22926  0.22618  0.98895  1.0000
  Fe  Fe15      1.0  0.22039  0.02464  0.97268  1.0000
  H   H80       1.0  0.07632  0.23259  0.93841  1.0000
  C   C69       1.0  0.19154  0.45271  0.66880  1.0000
  C   C70       1.0  0.20268  0.43658  0.68120  1.0000
  C   C71       1.0  0.19819  0.35569  0.54682  1.0000
  Fe  Fe16      1.0  0.98890  0.24197  0.98793  1.0000
  H   H81       1.0  0.19043  0.41564  0.68371  1.0000
  H   H82       1.0  0.19914  0.49248  0.65723  1.0000
  H   H83       1.0  0.10438  0.30156  0.58967  1.0000
  H   H84       1.0  0.18590  0.25942  0.87836  1.0000
  H   H85       1.0  0.05904  0.35453  0.59704  1.0000
  C   C72       1.0  0.19065  0.09911  0.98369  1.0000
  H   H86       1.0  0.19098  0.17831  0.57590  1.0000
  C   C73       1.0  0.01938  0.33901  0.70036  1.0000
  H   H87       1.0  0.23340  0.39107  0.59730  1.0000
  C   C74       1.0  0.16613  0.35362  0.59727  1.0000
  N   N6        1.0  0.09852  0.24367  0.88213  1.0000
  C   C75       1.0  0.09305  0.23737  0.83796  1.0000
  C   C76       1.0  0.07367  0.22845  0.90492  1.0000
  C   C77       1.0  0.10622  0.27199  0.88882  1.0000
  C   C78       1.0  0.12002  0.23788  0.89487  1.0000
  C   C79       1.0  0.11643  0.21801  0.92358  1.0000
  C   C80       1.0  0.14556  0.25222  0.87811  1.0000
  C   C81       1.0  0.13728  0.21328  0.93506  1.0000
  C   C82       1.0  0.16635  0.24765  0.89045  1.0000
  C   C83       1.0  0.16224  0.22831  0.91904  1.0000
  H   H88       1.0  0.08759  0.21635  0.83151  1.0000
  H   H89       1.0  0.07657  0.24105  0.82753  1.0000
  H   H90       1.0  0.11021  0.24951  0.81840  1.0000
  H   H91       1.0  0.06573  0.20693  0.89966  1.0000
  H   H92       1.0  0.12291  0.28500  0.86923  1.0000
  H   H93       1.0  0.08993  0.27670  0.88148  1.0000
  H   H94       1.0  0.11190  0.27788  0.92129  1.0000
  H   H95       1.0  0.09791  0.20629  0.93859  1.0000
  H   H96       1.0  0.14975  0.26737  0.85575  1.0000
  H   H97       1.0  0.13431  0.19853  0.95780  1.0000
  H   H98       1.0  0.17853  0.22529  0.92947  1.0000
  H   H99       1.0  0.19548  0.34306  0.64869  1.0000
  C   C84       1.0  0.12908  0.17106  0.57090  1.0000
  Fe  Fe17      1.0  0.08122  0.45838  0.65431  1.0000
  C   C85       1.0  0.21323  0.00402  0.71435  1.0000
  C   C86       1.0  0.16067  0.12575  0.55673  1.0000
  H   H100      1.0  0.16875  0.17204  0.61838  1.0000
  N   N7        1.0  0.21137  0.07116  0.85473  1.0000
  H   H101      1.0  0.22143  0.34719  0.61392  1.0000
  H   H102      1.0  0.04585  0.21511  0.53388  1.0000
  C   C87       1.0  0.10847  0.08941  0.56926  1.0000
  H   H103      1.0  0.01143  0.34894  0.80188  1.0000
  C   C88       1.0  0.17288  0.17917  0.58631  1.0000
  H   H104      1.0  0.02754  0.37333  0.76420  1.0000
  C   C89       1.0  0.04801  0.35017  0.62549  1.0000
  C   C90       1.0  0.11551  0.11628  0.56828  1.0000
  N   N8        1.0  0.19389  0.35975  0.59071  1.0000
  H   H105      1.0  0.17652  0.03540  0.86971  1.0000
  C   C91       1.0  0.06614  0.22731  0.52574  1.0000
  H   H106      1.0  0.10718  0.27195  0.99492  1.0000
  C   C92       1.0  0.14200  0.13534  0.56226  1.0000
  S   S29       1.0  0.05631  0.27012  0.53805  1.0000
  C   C93       1.0  0.07610  0.25464  0.52504  1.0000
  H   H107      1.0  0.20393  0.99819  0.68470  1.0000
  C   C94       1.0  0.15777  0.17205  0.51646  1.0000
  H   H108      1.0  0.21089  0.39144  0.63507  1.0000
  H   H109      1.0  0.12186  0.05992  0.56424  1.0000
  N   N9        1.0  0.15008  0.16383  0.55931  1.0000
  C   C95       1.0  0.11954  0.32140  0.59596  1.0000
  H   H110      1.0  0.05804  0.23354  0.89526  1.0000
  C   C96       1.0  0.21782  0.11736  0.50502  1.0000
  H   H111      1.0  0.17618  0.04818  0.82006  1.0000
  H   H112      1.0  0.18963  0.32115  0.60551  1.0000
  C   C97       1.0  0.02934  0.36404  0.68177  1.0000
  C   C98       1.0  0.15830  0.37256  0.61175  1.0000
  C   C99       1.0  0.22949  0.17112  0.51160  1.0000
  C   C100      1.0  0.18904  0.04560  0.84290  1.0000
  H   H113      1.0  0.16809  0.09210  0.55277  1.0000
  C   C101      1.0  0.20746  0.47985  0.66665  1.0000
  H   H114      1.0  0.15024  0.31257  0.57724  1.0000
  H   H115      1.0  0.20990  0.40176  0.58318  1.0000
  S   S30       1.0  0.00416  0.27783  0.94783  1.0000
  H   H116      1.0  0.19202  0.36737  0.52671  1.0000
  C   C102      1.0  0.22947  0.44744  0.69120  1.0000
  C   C103      1.0  0.15343  0.09889  0.55761  1.0000
  C   C104      1.0  0.20649  0.12565  0.99405  1.0000
  H   H117      1.0  0.00900  0.35916  0.94244  1.0000
  H   H118      1.0  0.12166  0.16458  0.60244  1.0000
  C   C105      1.0  0.03851  0.32534  0.64279  1.0000
  H   H119      1.0  0.18855  0.06060  0.97549  1.0000
  H   H120      1.0  0.23776  0.43486  0.70096  1.0000
  C   C106      1.0  0.23420  0.13318  0.53621  1.0000
  H   H121      1.0  0.17209  0.39276  0.61831  1.0000
  H   H122      1.0  0.07450  0.19450  0.51617  1.0000
  C   C107      1.0  0.11887  0.25852  0.50434  1.0000
  C   C108      1.0  0.04333  0.36944  0.64490  1.0000
  C   C109      1.0  0.02162  0.35247  0.77164  1.0000
  C   C110      1.0  0.21270  0.38722  0.60208  1.0000
  C   C111      1.0  0.20101  0.08106  0.98295  1.0000
  S   S31       1.0  0.09591  0.46649  0.50362  1.0000
  C   C112      1.0  0.10555  0.38393  0.52279  1.0000
  H   H123      1.0  0.04211  0.31030  0.62760  1.0000
  Fe  Fe18      1.0  0.10933  0.47464  0.57041  1.0000
  C   C113      1.0  0.99558  0.30688  0.75493  1.0000
  S   S32       1.0  0.99323  0.21228  0.59456  1.0000
  H   H124      1.0  0.08815  0.07517  0.57370  1.0000
  C   C114      1.0  0.13190  0.36582  0.61853  1.0000
  Fe  Fe19      1.0  0.03752  0.29561  0.99281  1.0000
  C   C115      1.0  0.98971  0.24654  0.80835  1.0000
  C   C116      1.0  0.07073  0.34078  0.50562  1.0000
  H   H125      1.0  0.17823  0.20050  0.58664  1.0000
  H   H126      1.0  0.09567  0.41584  0.52027  1.0000
  H   H127      1.0  0.10994  0.34859  0.52159  1.0000
  Fe  Fe20      1.0  0.22544  0.05876  0.53202  1.0000
  H   H128      1.0  0.12650  0.38061  0.63002  1.0000
  H   H129      1.0  0.09222  0.33509  0.61628  1.0000
  S   S33       1.0  0.18188  0.00179  0.94073  1.0000
  Fe  Fe21      1.0  0.04321  0.24519  0.99619  1.0000
  C   C117      1.0  0.22731  0.06573  0.88495  1.0000
  C   C118      1.0  0.99738  0.41397  0.72896  1.0000
  H   H130      1.0  0.19588  0.03168  0.83004  1.0000
  H   H131      1.0  0.02644  0.37976  0.69564  1.0000
  C   C119      1.0  0.22739  0.08954  0.99212  1.0000
  C   C120      1.0  0.99844  0.37114  0.94707  1.0000
  H   H132      1.0  0.16315  0.19314  0.51257  1.0000
  C   C121      1.0  0.22822  0.08553  0.81974  1.0000
  H   H133      1.0  0.00049  0.45887  0.68565  1.0000
  C   C122      1.0  0.20029  0.08736  0.87483  1.0000
  H   H134      1.0  0.18558  0.07619  0.89877  1.0000
  H   H135      1.0  0.12565  0.39647  0.53178  1.0000
  H   H136      1.0  0.01149  0.39103  0.93485  1.0000
  C   C123      1.0  0.21194  0.99743  0.78860  1.0000
  H   H137      1.0  0.01114  0.35682  0.52641  1.0000
  H   H138      1.0  0.09983  0.12159  0.57181  1.0000
  C   C124      1.0  0.10252  0.27017  0.51422  1.0000
  H   H139      1.0  0.21541  0.10499  0.89086  1.0000
  H   H140      1.0  0.02922  0.48019  0.65854  1.0000
  H   H141      1.0  0.02143  0.29769  0.50992  1.0000
  C   C125      1.0  0.08860  0.39479  0.51647  1.0000
  C   C126      1.0  0.08246  0.21567  0.51575  1.0000
  H   H142      1.0  0.21532  0.05473  0.91160  1.0000
  S   S34       1.0  0.19275  0.14771  0.99421  1.0000
  H   H143      1.0  0.23619  0.05380  0.87096  1.0000
  C   C127      1.0  0.00784  0.33637  0.52060  1.0000
  H   H144      1.0  0.17500  0.16945  0.50653  1.0000
  H   H145      1.0  0.15510  0.28640  0.99143  1.0000
  C   C128      1.0  0.03487  0.49101  0.74026  1.0000
  H   H146      1.0  0.99978  0.48364  0.65343  1.0000
  S   S35       1.0  0.23649  0.20456  0.51849  1.0000
  C   C129      1.0  0.01201  0.47952  0.67560  1.0000
  H   H147      1.0  0.99559  0.41161  0.98369  1.0000
  C   C130      1.0  0.10887  0.23116  0.50498  1.0000
  N   N10       1.0  0.99137  0.37229  0.99067  1.0000
  H   H148      1.0  0.99886  0.32818  0.99252  1.0000
  C   C131      1.0  0.06265  0.37878  0.50494  1.0000
  S   S36       1.0  0.09067  0.49280  0.61294  1.0000
  H   H149      1.0  0.05237  0.49060  0.72580  1.0000
  H   H150      1.0  0.06530  0.32014  0.50173  1.0000
  C   C132      1.0  0.23798  0.02565  0.71758  1.0000
  S   S37       1.0  0.10657  0.51525  0.18828  1.0000
  H   H151      1.0  0.17471  0.60571  0.16106  1.0000
  Fe  Fe22      1.0  0.12289  0.65682  0.13086  1.0000
  S   S38       1.0  0.08470  0.64188  0.09695  1.0000
  S   S39       1.0  0.14784  0.63625  0.14462  1.0000
  Fe  Fe23      1.0  0.12792  0.71179  0.14248  1.0000
  S   S40       1.0  0.09004  0.70103  0.10983  1.0000
  S   S41       1.0  0.14922  0.75171  0.17441  1.0000
  Fe  Fe24      1.0  0.07356  0.66351  0.14535  1.0000
  S   S42       1.0  0.03120  0.64841  0.16648  1.0000
  Fe  Fe25      1.0  0.10345  0.68038  0.06338  1.0000
  C   C133      1.0  0.20205  0.85416  0.09260  1.0000
  S   S43       1.0  0.11034  0.67570  0.18183  1.0000
  S   S44       1.0  0.14281  0.69401  0.09345  1.0000
  Fe  Fe26      1.0  0.03739  0.80480  0.39745  1.0000
  S   S45       1.0  0.02303  0.83076  0.43028  1.0000
  S   S46       1.0  0.04590  0.80218  0.32950  1.0000
  S   S47       1.0  0.22147  0.50580  0.16323  1.0000
  C   C134      1.0  0.22539  0.74168  0.24220  1.0000
  Fe  Fe27      1.0  0.00018  0.79573  0.47031  1.0000
  N   N11       1.0  0.09841  0.51702  0.31541  1.0000
  S   S48       1.0  0.01191  0.76908  0.43411  1.0000
  S   S49       1.0  0.07249  0.81665  0.43860  1.0000
  Fe  Fe28      1.0  0.01595  0.80554  0.03613  1.0000
  C   C135      1.0  0.11503  0.75778  0.04218  1.0000
  C   C136      1.0  0.02552  0.70354  0.40830  1.0000
  C   C137      1.0  0.09620  0.51955  0.44770  1.0000
  H   H152      1.0  0.13353  0.55362  0.44293  1.0000
  H   H153      1.0  0.17334  0.85803  0.05658  1.0000
  C   C138      1.0  0.13551  0.78897  0.09764  1.0000
  C   C139      1.0  0.22556  0.78927  0.13657  1.0000
  H   H154      1.0  0.14359  0.87355  0.06534  1.0000
  H   H155      1.0  0.13428  0.55319  0.36810  1.0000
  C   C140      1.0  0.02480  0.79884  0.28810  1.0000
  C   C141      1.0  0.03498  0.80328  0.24796  1.0000
  C   C142      1.0  0.01845  0.79840  0.21388  1.0000
  H   H156      1.0  0.05577  0.81033  0.24314  1.0000
  H   H157      1.0  0.02650  0.80165  0.18317  1.0000
  N   N12       1.0  0.00111  0.70988  0.19757  1.0000
  C   C143      1.0  0.01962  0.63884  0.21707  1.0000
  C   C144      1.0  0.03671  0.64296  0.24966  1.0000
  C   C145      1.0  0.02673  0.63555  0.28958  1.0000
  H   H158      1.0  0.17726  0.94340  0.08615  1.0000
  H   H159      1.0  0.05759  0.65178  0.24409  1.0000
  H   H160      1.0  0.04011  0.63868  0.31458  1.0000
  H   H161      1.0  0.14089  0.53492  0.31143  1.0000
  C   C146      1.0  0.09790  0.54064  0.29829  1.0000
  H   H162      1.0  0.98990  0.78668  0.32464  1.0000
  C   C147      1.0  0.07531  0.50001  0.42647  1.0000
  C   C148      1.0  0.99654  0.69343  0.15994  1.0000
  C   C149      1.0  0.18296  0.77418  0.16942  1.0000
  C   C150      1.0  0.19881  0.77107  0.13923  1.0000
  N   N13       1.0  0.20711  0.70763  0.18582  1.0000
  C   C151      1.0  0.12052  0.80159  0.08816  1.0000
  C   C152      1.0  0.22083  0.81399  0.19387  1.0000
  C   C153      1.0  0.19405  0.79586  0.19642  1.0000
  H   H163      1.0  0.19049  0.75473  0.11784  1.0000
  C   C154      1.0  0.11721  0.53860  0.42622  1.0000
  H   H164      1.0  0.18194  0.79852  0.21975  1.0000
  H   H165      1.0  0.06564  0.74236  0.36945  1.0000
  H   H166      1.0  0.11507  0.55912  0.30802  1.0000
  C   C155      1.0  0.02920  0.72512  0.20818  1.0000
  H   H167      1.0  0.14117  0.90262  0.07755  1.0000
  H   H168      1.0  0.20838  0.50085  0.29021  1.0000
  C   C156      1.0  0.13592  0.60254  0.15681  1.0000
  C   C157      1.0  0.10914  0.58548  0.16007  1.0000
  C   C158      1.0  0.10054  0.55884  0.16970  1.0000
  C   C159      1.0  0.11856  0.54895  0.17608  1.0000
  C   C160      1.0  0.14535  0.56606  0.17321  1.0000
  C   C161      1.0  0.15396  0.59271  0.16362  1.0000
  H   H169      1.0  0.09503  0.59275  0.15492  1.0000
  H   H170      1.0  0.07977  0.54577  0.17185  1.0000
  H   H171      1.0  0.15943  0.55871  0.17797  1.0000
  N   N14       1.0  0.18082  0.90757  0.07806  1.0000
  C   C162      1.0  0.18869  0.93358  0.09810  1.0000
  H   H172      1.0  0.04148  0.75225  0.38278  1.0000
  C   C163      1.0  0.12316  0.51678  0.30254  1.0000
  C   C164      1.0  0.19508  0.89351  0.09347  1.0000
  C   C165      1.0  0.18862  0.86773  0.07897  1.0000
  C   C166      1.0  0.21583  0.90483  0.12231  1.0000
  C   C167      1.0  0.09919  0.77002  0.03196  1.0000
  H   H173      1.0  0.12432  0.51523  0.26868  1.0000
  C   C168      1.0  0.07945  0.85825  0.01290  1.0000
  H   H174      1.0  0.09826  0.54032  0.26408  1.0000
  S   S50       1.0  0.05713  0.75098  0.49716  1.0000
  H   H175      1.0  0.05252  0.77232  0.02662  1.0000
  H   H176      1.0  0.19696  0.83456  0.08102  1.0000
  H   H177      1.0  0.04764  0.74010  0.03984  1.0000
  C   C169      1.0  0.09226  0.90269  0.03802  1.0000
  H   H178      1.0  0.18532  0.93168  0.13179  1.0000
  H   H179      1.0  0.20724  0.92352  0.02701  1.0000
  C   C170      1.0  0.11553  0.91252  0.01484  1.0000
  C   C171      1.0  0.22721  0.73330  0.20163  1.0000
  H   H180      1.0  0.17867  0.72192  0.17898  1.0000
  H   H181      1.0  0.11388  0.74066  0.02601  1.0000
  C   C172      1.0  0.18585  0.91213  0.03353  1.0000
  S   S51       1.0  0.98836  0.61599  0.34848  1.0000
  S   S52       1.0  0.00155  0.76905  0.07481  1.0000
  H   H182      1.0  0.03357  0.69963  0.30548  1.0000
  S   S53       1.0  0.13849  0.94622  0.02031  1.0000
  H   H183      1.0  0.14792  0.88547  0.11753  1.0000
  C   C173      1.0  0.99257  0.72655  0.34245  1.0000
  C   C174      1.0  0.04562  0.73929  0.36149  1.0000
  S   S54       1.0  0.16914  0.51024  0.23316  1.0000
  H   H184      1.0  0.19366  0.68475  0.12979  1.0000
  H   H185      1.0  0.17779  0.49573  0.42336  1.0000
  S   S55       1.0  0.05810  0.82394  0.01244  1.0000
  C   C175      1.0  0.03739  0.74531  0.23852  1.0000
  C   C176      1.0  0.04900  0.71976  0.19035  1.0000
  C   C177      1.0  0.06385  0.76033  0.24838  1.0000
  C   C178      1.0  0.07535  0.73461  0.20100  1.0000
  C   C179      1.0  0.08280  0.75502  0.22956  1.0000
  H   H186      1.0  0.14903  0.79581  0.12321  1.0000
  H   H187      1.0  0.02342  0.74983  0.25469  1.0000
  H   H188      1.0  0.00114  0.74361  0.16862  1.0000
  H   H189      1.0  0.20553  0.68679  0.24125  1.0000
  H   H190      1.0  0.20963  0.72949  0.26244  1.0000
  H   H191      1.0  0.01311  0.68208  0.41270  1.0000
  H   H192      1.0  0.22246  0.92440  0.13478  1.0000
  Fe  Fe29      1.0  0.04594  0.78235  0.47715  1.0000
  C   C180      1.0  0.13289  0.76726  0.07454  1.0000
  H   H193      1.0  0.00193  0.67726  0.16434  1.0000
  C   C181      1.0  0.22832  0.50355  0.28222  1.0000
  H   H194      1.0  0.06968  0.77629  0.27064  1.0000
  H   H195      1.0  0.09021  0.73034  0.18697  1.0000
  H   H196      1.0  0.10333  0.76664  0.23714  1.0000
  C   C182      1.0  0.99963  0.62391  0.29734  1.0000
  H   H197      1.0  0.00780  0.70549  0.13344  1.0000
  C   C183      1.0  0.20911  0.68615  0.20782  1.0000
  C   C184      1.0  0.15223  0.89153  0.08495  1.0000
  H   H198      1.0  0.22796  0.49914  0.24887  1.0000
  N   N15       1.0  0.02578  0.71130  0.36507  1.0000
  C   C185      1.0  0.22913  0.89109  0.13562  1.0000
  H   H199      1.0  0.09157  0.80292  0.04951  1.0000
  H   H200      1.0  0.16519  0.68682  0.17875  1.0000
  H   H201      1.0  0.12482  0.49986  0.31604  1.0000
  C   C186      1.0  0.20972  0.70368  0.14120  1.0000
  H   H202      1.0  0.08817  0.91599  0.05716  1.0000
  S   S56       1.0  0.99535  0.82382  0.07392  1.0000
  C   C187      1.0  0.99151  0.78902  0.21968  1.0000
  Fe  Fe30      1.0  0.05639  0.83996  0.47434  1.0000
  H   H203      1.0  0.00687  0.74703  0.34235  1.0000
  H   H204      1.0  0.12246  0.81838  0.10636  1.0000
  H   H205      1.0  0.20962  0.94733  0.09196  1.0000
  H   H206      1.0  0.17610  0.92342  0.02108  1.0000
  C   C188      1.0  0.09699  0.51783  0.36072  1.0000
  H   H207      1.0  0.99416  0.87092  0.48758  1.0000
  C   C189      1.0  0.11755  0.53798  0.38337  1.0000
  H   H208      1.0  0.07989  0.54193  0.30802  1.0000
  H   H209      1.0  0.05515  0.69980  0.34517  1.0000
  H   H210      1.0  0.04467  0.70415  0.16817  1.0000
  C   C190      1.0  0.15617  0.91340  0.48906  1.0000
  C   C191      1.0  0.99795  0.78997  0.29393  1.0000
  H   H211      1.0  0.01799  0.71422  0.42903  1.0000
  H   H212      1.0  0.04663  0.74662  0.32988  1.0000
  C   C192      1.0  0.18050  0.70519  0.19267  1.0000
  H   H213      1.0  0.04553  0.70822  0.41921  1.0000
  C   C193      1.0  0.99252  0.62739  0.22484  1.0000
  C   C194      1.0  0.05345  0.75453  0.01449  1.0000
  H   H214      1.0  0.20880  0.71956  0.12304  1.0000
  H   H215      1.0  0.22916  0.83040  0.21516  1.0000
  H   H216      1.0  0.02265  0.67408  0.34293  1.0000
  H   H217      1.0  0.19443  0.66644  0.19634  1.0000
  C   C195      1.0  0.07555  0.49900  0.38361  1.0000
  H   H218      1.0  0.99012  0.83848  0.49666  1.0000
  H   H219      1.0  0.17509  0.70434  0.22552  1.0000
  H   H220      1.0  0.14453  0.75744  0.08230  1.0000
  C   C196      1.0  0.03461  0.69557  0.33851  1.0000
  H   H221      1.0  0.05642  0.86855  0.05487  1.0000
  C   C197      1.0  0.10273  0.79242  0.05571  1.0000
  H   H222      1.0  0.09631  0.51948  0.48093  1.0000
  C   C198      1.0  0.22233  0.86588  0.12075  1.0000
  H   H223      1.0  0.22888  0.68733  0.20376  1.0000
  H   H224      1.0  0.17017  0.90800  0.47501  1.0000
  C   C199      1.0  0.99899  0.70620  0.35328  1.0000
  H   H225      1.0  0.17842  0.89352  0.01548  1.0000
  C   C200      1.0  0.07421  0.87577  0.03682  1.0000
  C   C201      1.0  0.98927  0.72782  0.19064  1.0000
  H   H226      1.0  0.23301  0.85553  0.13083  1.0000
  H   H227      1.0  0.23294  0.94307  0.44058  1.0000
  H   H228      1.0  0.02622  0.67608  0.01421  1.0000
  H   H229      1.0  0.22821  0.70270  0.13385  1.0000
  C   C202      1.0  0.12923  0.89556  0.48760  1.0000
  H   H230      1.0  0.12270  0.87662  0.47264  1.0000
  C   C203      1.0  0.23677  0.81071  0.16403  1.0000
  H   H231      1.0  0.99286  0.67471  0.48601  1.0000
  H   H232      1.0  0.99573  0.67863  0.23836  1.0000
  S   S57       1.0  0.21253  0.99313  0.01894  1.0000
  H   H233      1.0  0.23770  0.78669  0.11320  1.0000
  H   H234      1.0  0.98859  0.70345  0.26068  1.0000
  Fe  Fe31      1.0  0.13086  0.49364  0.19979  1.0000
  H   H235      1.0  0.02216  0.86611  0.49706  1.0000
  C   C204      1.0  0.07654  0.49349  0.29660  1.0000
  Fe  Fe32      1.0  0.12949  0.51170  0.64496  1.0000
  S   S58       1.0  0.15062  0.55382  0.66957  1.0000
  H   H236      1.0  0.10231  0.55297  0.64026  1.0000
  C   C205      1.0  0.14494  0.57639  0.81049  1.0000
  C   C206      1.0  0.00940  0.84672  0.57180  1.0000
  S   S59       1.0  0.19499  0.95136  0.94085  1.0000
  H   H237      1.0  0.03717  0.64556  0.97431  1.0000
  H   H238      1.0  0.14752  0.70616  0.98341  1.0000
  S   S60       1.0  0.03246  0.80631  0.51617  1.0000
  Fe  Fe33      1.0  0.13002  0.68262  0.69455  1.0000
  S   S61       1.0  0.10940  0.69755  0.73896  1.0000
  S   S62       1.0  0.10915  0.63977  0.67375  1.0000
  Fe  Fe34      1.0  0.17709  0.73727  0.68564  1.0000
  S   S63       1.0  0.16028  0.75593  0.72971  1.0000
  S   S64       1.0  0.21551  0.75796  0.65062  1.0000
  Fe  Fe35      1.0  0.14890  0.71990  0.76836  1.0000
  S   S65       1.0  0.16034  0.72219  0.83559  1.0000
  Fe  Fe36      1.0  0.12234  0.73206  0.69628  1.0000
  S   S66       1.0  0.09800  0.75238  0.67845  1.0000
  S   S67       1.0  0.16873  0.70280  0.72628  1.0000
  S   S68       1.0  0.13984  0.71550  0.64987  1.0000
  H   H239      1.0  0.03648  0.89657  0.55659  1.0000
  C   C207      1.0  0.16992  0.82711  0.66715  1.0000
  C   C208      1.0  0.06841  0.75155  0.54764  1.0000
  C   C209      1.0  0.06453  0.76644  0.57881  1.0000
  C   C210      1.0  0.07309  0.76592  0.61890  1.0000
  C   C211      1.0  0.08614  0.75102  0.62807  1.0000
  C   C212      1.0  0.09006  0.73616  0.59686  1.0000
  C   C213      1.0  0.08102  0.73625  0.55692  1.0000
  H   H240      1.0  0.05467  0.77813  0.57218  1.0000
  H   H241      1.0  0.06980  0.77734  0.64288  1.0000
  H   H242      1.0  0.09988  0.72445  0.60348  1.0000
  H   H243      1.0  0.08398  0.72455  0.53305  1.0000
  C   C214      1.0  0.14050  0.71105  0.88014  1.0000
  C   C215      1.0  0.11316  0.69957  0.87861  1.0000
  C   C216      1.0  0.09828  0.69063  0.91487  1.0000
  C   C217      1.0  0.11054  0.69289  0.95290  1.0000
  C   C218      1.0  0.13784  0.70424  0.95438  1.0000
  C   C219      1.0  0.15271  0.71329  0.91816  1.0000
  H   H244      1.0  0.10351  0.69779  0.84959  1.0000
  H   H245      1.0  0.10699  0.85467  0.97106  1.0000
  H   H246      1.0  0.12487  0.54374  0.76910  1.0000
  H   H247      1.0  0.17386  0.72212  0.91965  1.0000
  S   S69       1.0  0.19931  0.95964  0.51010  1.0000
  C   C220      1.0  0.11396  0.59732  0.77724  1.0000
  C   C221      1.0  0.12125  0.64879  0.79843  1.0000
  H   H248      1.0  0.13562  0.65941  0.87523  1.0000
  H   H249      1.0  0.18992  0.89787  0.53861  1.0000
  H   H250      1.0  0.16267  0.61113  0.84703  1.0000
  H   H251      1.0  0.99388  0.65977  0.83829  1.0000
  H   H252      1.0  0.23098  0.68827  0.65946  1.0000
  C   C222      1.0  0.13300  0.61246  0.80709  1.0000
  H   H253      1.0  0.21020  0.79899  0.69789  1.0000
  H   H254      1.0  0.00844  0.84843  0.60570  1.0000
  H   H255      1.0  0.18013  0.57981  0.58510  1.0000
  N   N16       1.0  0.20102  0.68075  0.61392  1.0000
  H   H256      1.0  0.01274  0.62357  0.91340  1.0000
  H   H257      1.0  0.00201  0.71645  0.52283  1.0000
  C   C223      1.0  0.13867  0.57738  0.67058  1.0000
  C   C224      1.0  0.15419  0.60229  0.68817  1.0000
  C   C225      1.0  0.14548  0.62166  0.68936  1.0000
  C   C226      1.0  0.12118  0.61628  0.67278  1.0000
  C   C227      1.0  0.10562  0.59135  0.65535  1.0000
  C   C228      1.0  0.11430  0.57197  0.65417  1.0000
  H   H258      1.0  0.17303  0.60656  0.70101  1.0000
  H   H259      1.0  0.15739  0.64057  0.70344  1.0000
  H   H260      1.0  0.08681  0.58708  0.64237  1.0000
  Fe  Fe37      1.0  0.20389  0.98618  0.90036  1.0000
  H   H261      1.0  0.18291  0.70641  0.61888  1.0000
  S   S70       1.0  0.19412  0.97975  0.83217  1.0000
  H   H262      1.0  0.16218  0.67317  0.63344  1.0000
  N   N17       1.0  0.16206  0.82385  0.62343  1.0000
  N   N18       1.0  0.07981  0.76045  0.99827  1.0000
  H   H263      1.0  0.08771  0.79942  0.97894  1.0000
  C   C229      1.0  0.22759  0.80812  0.67909  1.0000
  H   H264      1.0  0.10006  0.63619  0.80457  1.0000
  H   H265      1.0  0.07715  0.68196  0.91348  1.0000
  H   H266      1.0  0.15519  0.79567  0.57479  1.0000
  C   C230      1.0  0.01524  0.66679  0.98672  1.0000
  H   H267      1.0  0.07336  0.77459  0.94061  1.0000
  C   C231      1.0  0.16559  0.65812  0.81183  1.0000
  H   H268      1.0  0.17066  0.65742  0.77898  1.0000
  N   N19       1.0  0.13784  0.63922  0.82006  1.0000
  H   H269      1.0  0.18877  0.82655  0.67172  1.0000
  H   H270      1.0  0.01287  0.89398  0.59539  1.0000
  H   H271      1.0  0.21379  0.69367  0.55246  1.0000
  H   H272      1.0  0.99872  0.82558  0.56264  1.0000
  C   C232      1.0  0.13262  0.63962  0.86462  1.0000
  C   C233      1.0  0.14804  0.60097  0.82388  1.0000
  C   C234      1.0  0.99493  0.67190  0.97403  1.0000
  C   C235      1.0  0.16988  0.63379  0.59173  1.0000
  H   H273      1.0  0.23579  0.90514  0.53902  1.0000
  H   H274      1.0  0.21479  0.70810  0.66505  1.0000
  H   H275      1.0  0.17216  0.84618  0.67984  1.0000
  H   H276      1.0  0.04154  0.50490  0.76682  1.0000
  H   H277      1.0  0.15520  0.81105  0.68636  1.0000
  H   H278      1.0  0.99797  0.61882  0.84713  1.0000
  C   C236      1.0  0.11974  0.92713  0.52449  1.0000
  H   H279      1.0  0.13514  0.84014  0.63354  1.0000
  Fe  Fe38      1.0  0.17580  0.96864  0.98312  1.0000
  C   C237      1.0  0.22084  0.88865  0.55537  1.0000
  N   N20       1.0  0.99868  0.86256  0.55078  1.0000
  C   C238      1.0  0.16506  0.93821  0.50819  1.0000
  C   C239      1.0  0.12062  0.89505  0.99041  1.0000
  H   H280      1.0  0.22458  0.61272  0.60537  1.0000
  H   H281      1.0  0.22551  0.71955  0.59057  1.0000
  H   H282      1.0  0.13831  0.90230  0.97214  1.0000
  C   C240      1.0  0.22747  0.87169  0.57684  1.0000
  H   H283      1.0  0.15342  0.63790  0.58852  1.0000
  C   C241      1.0  0.14667  0.94500  0.52583  1.0000
  S   S71       1.0  0.07665  0.88052  0.50501  1.0000
  H   H284      1.0  0.03814  0.74635  0.99033  1.0000
  H   H285      1.0  0.16942  0.68191  0.58001  1.0000
  H   H286      1.0  0.99194  0.66104  0.53563  1.0000
  C   C242      1.0  0.12660  0.56238  0.78046  1.0000
  H   H287      1.0  0.02917  0.53092  0.66975  1.0000
  H   H288      1.0  0.98994  0.68524  0.99169  1.0000
  C   C243      1.0  0.11090  0.57266  0.76436  1.0000
  C   C244      1.0  0.19507  0.65318  0.60453  1.0000
  H   H289      1.0  0.12726  0.81755  0.59019  1.0000
  C   C245      1.0  0.16028  0.79857  0.60793  1.0000
  C   C246      1.0  0.20826  0.85057  0.59824  1.0000
  H   H290      1.0  0.10176  0.60441  0.76229  1.0000
  H   H291      1.0  0.23451  0.65861  0.61728  1.0000
  C   C247      1.0  0.21483  0.64495  0.60823  1.0000
  H   H292      1.0  0.17951  0.65428  0.83050  1.0000
  H   H293      1.0  0.04553  0.53992  0.71892  1.0000
  H   H294      1.0  0.14582  0.63483  0.88350  1.0000
  H   H295      1.0  0.14494  0.78148  0.62456  1.0000
  H   H296      1.0  0.09705  0.56190  0.74044  1.0000
  H   H297      1.0  0.17887  0.79727  0.61189  1.0000
  H   H298      1.0  0.15598  0.86144  0.57504  1.0000
  H   H299      1.0  0.21407  0.91989  0.62419  1.0000
  H   H300      1.0  0.21439  0.83790  0.61411  1.0000
  C   C248      1.0  0.00135  0.85944  0.50611  1.0000
  H   H301      1.0  0.10572  0.93260  0.53832  1.0000
  C   C249      1.0  0.19497  0.88450  0.55520  1.0000
  C   C250      1.0  0.10279  0.86802  0.98984  1.0000
  H   H302      1.0  0.14534  0.59312  0.57573  1.0000
  C   C251      1.0  0.18177  0.84592  0.59930  1.0000
  C   C252      1.0  0.17560  0.86346  0.57669  1.0000
  C   C253      1.0  0.18450  0.60025  0.58930  1.0000
  N   N21       1.0  0.02006  0.49843  0.71052  1.0000
  C   C254      1.0  0.20947  0.61881  0.60109  1.0000
  H   H303      1.0  0.11211  0.62528  0.87230  1.0000
  H   H304      1.0  0.19806  0.67404  0.67886  1.0000
  C   C255      1.0  0.01528  0.89050  0.56233  1.0000
  C   C256      1.0  0.20031  0.99003  0.74970  1.0000
  C   C257      1.0  0.03842  0.52467  0.69423  1.0000
  C   C258      1.0  0.00703  0.63688  0.92908  1.0000
  C   C259      1.0  0.13538  0.82189  0.62183  1.0000
  H   H305      1.0  0.18105  0.97345  0.74693  1.0000
  H   H306      1.0  0.10725  0.78631  0.95413  1.0000
  H   H307      1.0  0.12556  0.66902  0.80860  1.0000
  H   H308      1.0  0.15710  0.56827  0.82295  1.0000
  H   H309      1.0  0.12468  0.64968  0.76469  1.0000
  H   H310      1.0  0.22402  0.96669  0.62642  1.0000
  C   C260      1.0  0.07760  0.73617  0.97773  1.0000
  H   H311      1.0  0.05614  0.52454  0.68010  1.0000
  H   H312      1.0  0.16972  0.67871  0.81925  1.0000
  H   H313      1.0  0.06274  0.72928  0.95286  1.0000
  C   C261      1.0  0.16488  0.60781  0.58411  1.0000
  C   C262      1.0  0.22087  0.69860  0.58459  1.0000
  C   C263      1.0  0.21165  0.68800  0.65607  1.0000
  H   H314      1.0  0.01062  0.90412  0.54428  1.0000
  Fe  Fe39      1.0  0.23217  0.97794  0.97410  1.0000
  C   C264      1.0  0.99641  0.49760  0.73053  1.0000
  H   H315      1.0  0.09643  0.73930  0.96317  1.0000
  C   C265      1.0  0.11083  0.90233  0.50537  1.0000
  C   C266      1.0  0.23489  0.79255  0.65398  1.0000
  C   C267      1.0  0.08737  0.78105  0.96666  1.0000
  C   C268      1.0  0.17778  0.68559  0.61143  1.0000
  C   C269      1.0  0.99119  0.51963  0.73215  1.0000
  H   H316      1.0  0.12138  0.80573  0.64148  1.0000
  H   H317      1.0  0.00430  0.53838  0.71917  1.0000
  S   S72       1.0  0.14924  0.49632  0.59915  1.0000
  S   S73       1.0  0.09085  0.68178  0.99757  1.0000
  H   H318      1.0  0.03038  0.85329  0.56359  1.0000
  H   H319      1.0  0.15317  0.96397  0.54068  1.0000
  C   C270      1.0  0.02132  0.64944  0.96420  1.0000
  H   H320      1.0  0.23701  0.84754  0.69934  1.0000
  C   C271      1.0  0.23203  0.93423  0.63824  1.0000
  C   C272      1.0  0.23761  0.96059  0.63969  1.0000
  H   H321      1.0  0.99913  0.70077  0.57067  1.0000
  H   H322      1.0  0.07152  0.71972  0.99978  1.0000
  Fe  Fe40      1.0  0.39828  0.47807  0.15404  1.0000
  H   H323      1.0  0.47848  0.33269  0.26282  1.0000
  S   S74       1.0  0.42262  0.45763  0.17201  1.0000
  H   H324      1.0  0.25102  0.44003  0.19803  1.0000
  H   H325      1.0  0.45617  0.01457  0.21612  1.0000
  C   C273      1.0  0.34739  0.02011  0.47081  1.0000
  S   S75       1.0  0.30550  0.46261  0.17710  1.0000
  H   H326      1.0  0.45126  0.24381  0.14198  1.0000
  S   S76       1.0  0.36303  0.46309  0.11232  1.0000
  Fe  Fe41      1.0  0.45648  0.40184  0.37161  1.0000
  C   C274      1.0  0.39410  0.03961  0.25016  1.0000
  S   S77       1.0  0.43002  0.41955  0.35190  1.0000
  H   H327      1.0  0.25907  0.45737  0.33621  1.0000
  H   H328      1.0  0.45824  0.21674  0.14833  1.0000
  S   S78       1.0  0.24651  0.26766  0.45467  1.0000
  Fe  Fe42      1.0  0.46233  0.35138  0.37330  1.0000
  S   S79       1.0  0.43915  0.30979  0.34733  1.0000
  N   N22       1.0  0.28795  0.46087  0.04244  1.0000
  S   S80       1.0  0.44104  0.36737  0.41461  1.0000
  H   H329      1.0  0.34762  0.01565  0.43758  1.0000
  H   H330      1.0  0.48459  0.11999  0.09121  1.0000
  C   C275      1.0  0.48233  0.27536  0.25160  1.0000
  H   H331      1.0  0.45626  0.43861  0.20676  1.0000
  H   H332      1.0  0.42579  0.99563  0.19175  1.0000
  H   H333      1.0  0.33752  0.03549  0.32745  1.0000
  S   S81       1.0  0.47529  0.38466  0.32847  1.0000
  Fe  Fe43      1.0  0.26158  0.24103  0.03551  1.0000
  S   S82       1.0  0.24694  0.20214  0.06783  1.0000
  H   H334      1.0  0.33715  0.02512  0.20042  1.0000
  C   C276      1.0  0.47988  0.26800  0.36519  1.0000
  H   H335      1.0  0.33248  0.02577  0.03882  1.0000
  Fe  Fe44      1.0  0.45423  0.17839  0.31486  1.0000
  S   S83       1.0  0.41744  0.16231  0.27758  1.0000
  H   H336      1.0  0.40266  0.02935  0.37794  1.0000
  Fe  Fe45      1.0  0.46252  0.12995  0.29952  1.0000
  S   S84       1.0  0.42627  0.11048  0.26050  1.0000
  Fe  Fe46      1.0  0.43954  0.14993  0.23185  1.0000
  S   S85       1.0  0.43388  0.15766  0.16510  1.0000
  Fe  Fe47      1.0  0.40680  0.12391  0.30904  1.0000
  S   S86       1.0  0.36430  0.09516  0.32442  1.0000
  C   C277      1.0  0.26182  0.48863  0.29576  1.0000
  S   S87       1.0  0.44211  0.14079  0.35007  1.0000
  H   H337      1.0  0.30991  0.01059  0.27542  1.0000
  C   C278      1.0  0.29530  0.47359  0.30402  1.0000
  C   C279      1.0  0.28918  0.43648  0.05427  1.0000
  H   H338      1.0  0.38237  0.05624  0.35211  1.0000
  C   C280      1.0  0.32998  0.99508  0.33909  1.0000
  C   C281      1.0  0.31556  0.13263  0.42304  1.0000
  H   H339      1.0  0.34827  0.45481  0.00585  1.0000
  H   H340      1.0  0.44893  0.49087  0.26841  1.0000
  C   C282      1.0  0.44549  0.14748  0.12115  1.0000
  C   C283      1.0  0.43823  0.15179  0.08200  1.0000
  C   C284      1.0  0.44758  0.14467  0.04624  1.0000
  C   C285      1.0  0.46448  0.13331  0.04935  1.0000
  C   C286      1.0  0.28906  0.17295  0.46860  1.0000
  C   C287      1.0  0.46209  0.13578  0.12422  1.0000
  H   H341      1.0  0.42535  0.16077  0.07928  1.0000
  H   H342      1.0  0.46597  0.22111  0.25939  1.0000
  H   H343      1.0  0.23855  0.47956  0.37094  1.0000
  H   H344      1.0  0.40952  0.08635  0.06499  1.0000
  C   C288      1.0  0.35111  0.08862  0.37471  1.0000
  C   C289      1.0  0.32399  0.07289  0.38008  1.0000
  C   C290      1.0  0.31289  0.06659  0.41964  1.0000
  C   C291      1.0  0.32891  0.07593  0.45417  1.0000
  C   C292      1.0  0.35599  0.09154  0.44876  1.0000
  C   C293      1.0  0.36704  0.09799  0.40927  1.0000
  H   H345      1.0  0.31153  0.06562  0.35346  1.0000
  H   H346      1.0  0.29205  0.05434  0.42339  1.0000
  H   H347      1.0  0.29439  0.01472  0.34400  1.0000
  H   H348      1.0  0.38793  0.11004  0.40559  1.0000
  H   H349      1.0  0.46502  0.20324  0.21368  1.0000
  C   C294      1.0  0.35436  0.02351  0.21009  1.0000
  C   C295      1.0  0.39983  0.01956  0.23416  1.0000
  S   S88       1.0  0.30510  0.26631  0.02186  1.0000
  H   H350      1.0  0.26941  0.10954  0.49820  1.0000
  S   S89       1.0  0.47449  0.21892  0.34527  1.0000
  C   C296      1.0  0.38119  0.00100  0.20690  1.0000
  Fe  Fe48      1.0  0.34797  0.48403  0.15608  1.0000
  H   H351      1.0  0.36812  0.05741  0.25006  1.0000
  C   C297      1.0  0.48793  0.30052  0.26595  1.0000
  S   S90       1.0  0.48415  0.10582  0.31189  1.0000
  C   C298      1.0  0.44883  0.28442  0.34864  1.0000
  H   H352      1.0  0.40664  0.05415  0.27198  1.0000
  H   H353      1.0  0.36856  0.09873  0.47531  1.0000
  C   C299      1.0  0.46369  0.24347  0.34703  1.0000
  C   C300      1.0  0.43983  0.23939  0.33010  1.0000
  C   C301      1.0  0.43252  0.25981  0.33073  1.0000
  C   C302      1.0  0.24320  0.11605  0.00262  1.0000
  H   H354      1.0  0.48518  0.30712  0.38016  1.0000
  H   H355      1.0  0.42698  0.22048  0.31678  1.0000
  H   H356      1.0  0.41415  0.25656  0.31725  1.0000
  C   C303      1.0  0.28254  0.47513  0.17341  1.0000
  H   H357      1.0  0.31248  0.48117  0.09396  1.0000
  C   C304      1.0  0.25654  0.45938  0.18595  1.0000
  S   S91       1.0  0.24081  0.25612  0.07967  1.0000
  H   H358      1.0  0.44191  0.14819  0.01635  1.0000
  C   C305      1.0  0.42352  0.44595  0.22167  1.0000
  C   C306      1.0  0.40617  0.44512  0.25268  1.0000
  C   C307      1.0  0.40847  0.43703  0.29238  1.0000
  C   C308      1.0  0.42792  0.42944  0.30139  1.0000
  C   C309      1.0  0.44504  0.42990  0.27026  1.0000
  C   C310      1.0  0.44285  0.43816  0.23063  1.0000
  H   H359      1.0  0.39114  0.45095  0.24618  1.0000
  H   H360      1.0  0.39509  0.43665  0.31625  1.0000
  H   H361      1.0  0.46002  0.42401  0.27672  1.0000
  H   H362      1.0  0.48387  0.24983  0.15491  1.0000
  H   H363      1.0  0.43634  0.26866  0.18046  1.0000
  H   H364      1.0  0.26523  0.10670  0.40427  1.0000
  H   H365      1.0  0.24338  0.11172  0.11393  1.0000
  H   H366      1.0  0.32377  0.15008  0.40275  1.0000
  H   H367      1.0  0.24494  0.15237  0.11524  1.0000
  N   N23       1.0  0.37116  0.33936  0.33687  1.0000
  C   C311      1.0  0.37500  0.35780  0.30291  1.0000
  C   C312      1.0  0.37407  0.35339  0.37653  1.0000
  C   C313      1.0  0.39253  0.33159  0.33388  1.0000
  C   C314      1.0  0.34459  0.31686  0.33469  1.0000
  C   C315      1.0  0.32220  0.32129  0.33502  1.0000
  C   C316      1.0  0.34002  0.29022  0.33337  1.0000
  C   C317      1.0  0.29688  0.30043  0.33377  1.0000
  C   C318      1.0  0.31455  0.26950  0.33208  1.0000
  C   C319      1.0  0.29304  0.27460  0.33227  1.0000
  H   H368      1.0  0.36244  0.36781  0.30608  1.0000
  C   C320      1.0  0.27091  0.47199  0.31417  1.0000
  H   H369      1.0  0.37075  0.34743  0.27270  1.0000
  H   H370      1.0  0.36027  0.36198  0.37970  1.0000
  H   H371      1.0  0.39404  0.37003  0.38008  1.0000
  H   H372      1.0  0.37061  0.33997  0.40281  1.0000
  H   H373      1.0  0.39152  0.32075  0.30484  1.0000
  H   H374      1.0  0.41223  0.34899  0.33434  1.0000
  H   H375      1.0  0.39224  0.31926  0.36018  1.0000
  H   H376      1.0  0.32408  0.34095  0.33667  1.0000
  H   H377      1.0  0.35576  0.28485  0.33357  1.0000
  H   H378      1.0  0.28001  0.30425  0.33430  1.0000
  H   H379      1.0  0.31141  0.24933  0.33116  1.0000
  H   H380      1.0  0.27330  0.25854  0.33154  1.0000
  N   N24       1.0  0.45645  0.23583  0.20496  1.0000
  S   S92       1.0  0.47755  0.12470  0.00550  1.0000
  H   H381      1.0  0.24592  0.44385  0.05034  1.0000
  H   H382      1.0  0.42227  0.21845  0.24347  1.0000
  C   C321      1.0  0.42799  0.21861  0.21076  1.0000
  C   C322      1.0  0.43726  0.01448  0.20853  1.0000
  N   N25       1.0  0.42352  0.01716  0.24579  1.0000
  C   C323      1.0  0.38259  0.01984  0.36718  1.0000
  C   C324      1.0  0.27109  0.12566  0.42099  1.0000
  S   S93       1.0  0.47731  0.16862  0.26717  1.0000
  H   H383      1.0  0.43493  0.04223  0.30000  1.0000
  H   H384      1.0  0.29460  0.01220  0.49248  1.0000
  C   C325      1.0  0.29782  0.19667  0.49042  1.0000
  Fe  Fe49      1.0  0.47914  0.38849  0.44849  1.0000
  C   C326      1.0  0.47060  0.22331  0.22603  1.0000
  C   C327      1.0  0.28569  0.11041  0.47836  1.0000
  C   C328      1.0  0.32464  0.16673  0.49691  1.0000
  C   C329      1.0  0.35893  0.00311  0.19492  1.0000
  H   H385      1.0  0.32978  0.48480  0.04684  1.0000
  H   H386      1.0  0.46786  0.13238  0.15411  1.0000
  C   C330      1.0  0.26427  0.46071  0.06124  1.0000
  C   C331      1.0  0.37178  0.04159  0.23796  1.0000
  C   C332      1.0  0.34532  0.02283  0.33875  1.0000
  C   C333      1.0  0.44278  0.04017  0.26961  1.0000
  H   H387      1.0  0.27573  0.14114  0.39759  1.0000
  H   H388      1.0  0.39548  0.37387  0.30174  1.0000
  H   H389      1.0  0.44608  0.31222  0.20743  1.0000
  C   C334      1.0  0.47248  0.28835  0.36617  1.0000
  H   H390      1.0  0.26361  0.12271  0.00991  1.0000
  C   C335      1.0  0.37117  0.03494  0.35270  1.0000
  H   H391      1.0  0.42232  0.19790  0.20138  1.0000
  C   C336      1.0  0.45636  0.30195  0.21936  1.0000
  H   H392      1.0  0.33189  0.13323  0.44180  1.0000
  H   H393      1.0  0.41572  0.22484  0.19232  1.0000
  H   H394      1.0  0.30150  0.46011  0.31739  1.0000
  H   H395      1.0  0.36804  0.03121  0.48134  1.0000
  H   H396      1.0  0.36400  0.05725  0.08689  1.0000
  C   C337      1.0  0.37003  0.05599  0.05568  1.0000
  C   C338      1.0  0.35214  0.03811  0.02784  1.0000
  C   C339      1.0  0.46273  0.23667  0.16063  1.0000
  C   C340      1.0  0.47157  0.12882  0.08848  1.0000
  C   C341      1.0  0.39567  0.07236  0.04348  1.0000
  H   H397      1.0  0.33869  0.03383  0.47399  1.0000
  H   H398      1.0  0.27153  0.16720  0.45070  1.0000
  H   H399      1.0  0.40505  0.99449  0.29925  1.0000
  H   H400      1.0  0.26431  0.45915  0.09516  1.0000
  C   C342      1.0  0.45083  0.27694  0.20434  1.0000
  H   H401      1.0  0.26292  0.47903  0.05415  1.0000
  H   H402      1.0  0.25338  0.12318  0.43858  1.0000
  H   H403      1.0  0.29225  0.43596  0.08792  1.0000
  H   H404      1.0  0.23998  0.25874  0.19399  1.0000
  H   H405      1.0  0.44898  0.05888  0.25261  1.0000
  H   H406      1.0  0.24075  0.13872  0.16626  1.0000
  N   N26       1.0  0.29371  0.13202  0.44853  1.0000
  H   H407      1.0  0.44156  0.03086  0.18692  1.0000
  H   H408      1.0  0.30917  0.11479  0.40319  1.0000
  H   H409      1.0  0.27881  0.09096  0.46282  1.0000
  C   C343      1.0  0.46338  0.26268  0.22041  1.0000
  H   H410      1.0  0.24518  0.15443  0.01165  1.0000
  H   H411      1.0  0.46099  0.03857  0.27617  1.0000
  C   C344      1.0  0.47475  0.31364  0.25030  1.0000
  C   C345      1.0  0.31126  0.48333  0.06037  1.0000
  H   H412      1.0  0.24372  0.28304  0.25933  1.0000
  C   C346      1.0  0.40355  0.07079  0.00349  1.0000
  H   H413      1.0  0.30200  0.11268  0.49880  1.0000
  N   N27       1.0  0.33266  0.99574  0.49454  1.0000
  H   H414      1.0  0.28718  0.20817  0.48856  1.0000
  H   H415      1.0  0.27086  0.41841  0.04721  1.0000
  C   C347      1.0  0.30237  0.15729  0.47100  1.0000
  H   H416      1.0  0.30560  0.43488  0.03828  1.0000
  C   C348      1.0  0.28726  0.99331  0.34849  1.0000
  C   C349      1.0  0.31159  0.49214  0.27604  1.0000
  C   C350      1.0  0.41558  0.99340  0.27109  1.0000
  H   H417      1.0  0.33017  0.49285  0.26723  1.0000
  H   H418      1.0  0.32741  0.39659  0.82354  1.0000
  H   H419      1.0  0.40259  0.40296  0.90018  1.0000
  Fe  Fe50      1.0  0.32296  0.44880  0.79349  1.0000
  H   H420      1.0  0.33671  0.31763  0.78262  1.0000
  S   S94       1.0  0.32146  0.43843  0.86126  1.0000
  Fe  Fe51      1.0  0.31075  0.41944  0.70996  1.0000
  S   S95       1.0  0.32380  0.45671  0.67452  1.0000
  S   S96       1.0  0.29791  0.37771  0.68563  1.0000
  N   N28       1.0  0.36818  0.39443  0.86391  1.0000
  Fe  Fe52      1.0  0.30149  0.46741  0.72210  1.0000
  C   C351      1.0  0.33515  0.33527  0.79120  1.0000
  S   S97       1.0  0.34625  0.43649  0.75062  1.0000
  S   S98       1.0  0.28628  0.42894  0.75511  1.0000
  H   H421      1.0  0.24612  0.02472  0.82141  1.0000
  C   C352      1.0  0.31709  0.02266  0.95474  1.0000
  Fe  Fe53      1.0  0.43309  0.33728  0.74379  1.0000
  H   H422      1.0  0.46199  0.06881  0.73603  1.0000
  S   S99       1.0  0.42269  0.33663  0.67590  1.0000
  Fe  Fe54      1.0  0.40149  0.31836  0.82486  1.0000
  S   S100      1.0  0.43781  0.33362  0.86303  1.0000
  S   S101      1.0  0.35885  0.29476  0.84495  1.0000
  Fe  Fe55      1.0  0.45371  0.36953  0.82302  1.0000
  Fe  Fe56      1.0  0.45319  0.31616  0.81387  1.0000
  C   C353      1.0  0.35046  0.01831  0.91553  1.0000
  S   S102      1.0  0.41577  0.35543  0.78842  1.0000
  S   S103      1.0  0.41593  0.29885  0.77783  1.0000
  H   H423      1.0  0.30274  0.32690  0.75090  1.0000
  H   H424      1.0  0.24348  0.08397  0.89783  1.0000
  Fe  Fe57      1.0  0.27389  0.05002  0.52547  1.0000
  C   C354      1.0  0.35941  0.03621  0.98663  1.0000
  H   H425      1.0  0.35738  0.03814  0.90187  1.0000
  S   S104      1.0  0.26286  0.07473  0.56760  1.0000
  S   S105      1.0  0.25680  0.01511  0.56693  1.0000
  H   H426      1.0  0.39105  0.99414  0.81678  1.0000
  Fe  Fe58      1.0  0.44851  0.14652  0.86663  1.0000
  S   S106      1.0  0.42811  0.11245  0.90979  1.0000
  S   S107      1.0  0.42717  0.16929  0.84546  1.0000
  Fe  Fe59      1.0  0.46777  0.12636  0.93835  1.0000
  Fe  Fe60      1.0  0.44045  0.08983  0.86513  1.0000
  S   S108      1.0  0.41437  0.04650  0.85072  1.0000
  S   S109      1.0  0.24219  0.32753  0.51558  1.0000
  H   H427      1.0  0.47641  0.37903  0.66526  1.0000
  S   S110      1.0  0.25492  0.04449  0.67437  1.0000
  H   H428      1.0  0.30244  0.00933  0.93214  1.0000
  H   H429      1.0  0.30616  0.01939  0.98418  1.0000
  C   C355      1.0  0.41514  0.23697  0.91786  1.0000
  H   H430      1.0  0.39551  0.28421  0.92711  1.0000
  H   H431      1.0  0.32362  0.01733  0.54205  1.0000
  C   C356      1.0  0.39046  0.01459  0.71934  1.0000
  C   C357      1.0  0.40142  0.04173  0.72747  1.0000
  C   C358      1.0  0.40897  0.05177  0.76747  1.0000
  C   C359      1.0  0.40523  0.03469  0.79992  1.0000
  C   C360      1.0  0.39399  0.00751  0.79189  1.0000
  C   C361      1.0  0.33044  0.37991  0.81485  1.0000
  H   H432      1.0  0.40409  0.05509  0.70268  1.0000
  H   H433      1.0  0.41734  0.07271  0.77326  1.0000
  H   H434      1.0  0.45341  0.45692  0.78396  1.0000
  C   C362      1.0  0.31594  0.34031  0.77361  1.0000
  C   C363      1.0  0.35824  0.48507  0.89716  1.0000
  C   C364      1.0  0.24537  0.47461  0.68903  1.0000
  H   H435      1.0  0.35613  0.30477  0.99561  1.0000
  H   H436      1.0  0.41377  0.26764  0.85581  1.0000
  S   S111      1.0  0.24151  0.06781  0.99094  1.0000
  H   H437      1.0  0.32631  0.22369  0.53245  1.0000
  H   H438      1.0  0.33536  0.00405  0.89444  1.0000
  C   C365      1.0  0.26043  0.32541  0.59350  1.0000
  C   C366      1.0  0.46256  0.25915  0.83479  1.0000
  C   C367      1.0  0.29545  0.00755  0.72689  1.0000
  C   C368      1.0  0.46567  0.22040  0.85920  1.0000
  C   C369      1.0  0.44214  0.20387  0.83973  1.0000
  C   C370      1.0  0.42922  0.21510  0.81698  1.0000
  C   C371      1.0  0.43952  0.24260  0.81412  1.0000
  Fe  Fe61      1.0  0.24299  0.03865  0.60682  1.0000
  C   C372      1.0  0.31355  0.36256  0.78553  1.0000
  H   H439      1.0  0.41113  0.20246  0.80150  1.0000
  H   H440      1.0  0.42952  0.25097  0.79618  1.0000
  H   H441      1.0  0.36638  0.34727  0.83309  1.0000
  H   H442      1.0  0.38933  0.23431  0.84903  1.0000
  C   C373      1.0  0.35261  0.39422  0.90058  1.0000
  H   H443      1.0  0.40198  0.38826  0.85134  1.0000
  C   C374      1.0  0.31921  0.27528  0.97221  1.0000
  C   C375      1.0  0.30547  0.26259  0.93681  1.0000
  C   C376      1.0  0.31791  0.26899  0.89819  1.0000
  C   C377      1.0  0.34417  0.28816  0.89442  1.0000
  C   C378      1.0  0.35777  0.30132  0.92969  1.0000
  C   C379      1.0  0.34538  0.29477  0.96840  1.0000
  H   H444      1.0  0.28539  0.24753  0.93922  1.0000
  H   H445      1.0  0.30715  0.25883  0.87108  1.0000
  H   H446      1.0  0.37781  0.31646  0.92722  1.0000
  C   C380      1.0  0.38936  0.38824  0.87752  1.0000
  H   H447      1.0  0.43547  0.25144  0.90936  1.0000
  C   C381      1.0  0.35056  0.37569  0.83288  1.0000
  C   C382      1.0  0.33319  0.19046  0.51861  1.0000
  H   H448      1.0  0.25228  0.17185  0.56415  1.0000
  H   H449      1.0  0.39543  0.43578  0.86863  1.0000
  C   C383      1.0  0.24941  0.11101  0.82575  1.0000
  H   H450      1.0  0.36666  0.42908  0.84088  1.0000
  S   S112      1.0  0.45787  0.12258  0.81997  1.0000
  N   N29       1.0  0.33997  0.01727  0.95770  1.0000
  C   C384      1.0  0.25873  0.34107  0.56235  1.0000
  H   H451      1.0  0.34248  0.37419  0.91395  1.0000
  C   C385      1.0  0.27258  0.33698  0.63097  1.0000
  C   C386      1.0  0.28286  0.36422  0.63789  1.0000
  C   C387      1.0  0.28121  0.37990  0.60672  1.0000
  C   C388      1.0  0.26939  0.36838  0.56908  1.0000
  H   H452      1.0  0.25233  0.30439  0.58879  1.0000
  H   H453      1.0  0.31261  0.02116  0.74543  1.0000
  H   H454      1.0  0.28927  0.40091  0.61147  1.0000
  H   H455      1.0  0.26843  0.38072  0.54502  1.0000
  C   C389      1.0  0.47004  0.37879  0.56068  1.0000
  C   C390      1.0  0.44461  0.35819  0.55745  1.0000
  C   C391      1.0  0.43068  0.34528  0.59297  1.0000
  C   C392      1.0  0.44202  0.35252  0.63214  1.0000
  C   C393      1.0  0.46747  0.37307  0.63540  1.0000
  C   C394      1.0  0.36828  0.48999  0.97066  1.0000
  H   H456      1.0  0.43561  0.35230  0.52762  1.0000
  H   H457      1.0  0.41095  0.32953  0.59007  1.0000
  C   C395      1.0  0.46050  0.02115  0.75252  1.0000
  S   S113      1.0  0.47468  0.29376  0.83626  1.0000
  C   C396      1.0  0.47578  0.24791  0.85678  1.0000
  C   C397      1.0  0.35096  0.46335  0.97578  1.0000
  C   C398      1.0  0.33699  0.44782  0.94192  1.0000
  C   C399      1.0  0.34042  0.45861  0.90247  1.0000
  C   C400      1.0  0.30372  0.48449  0.97437  1.0000
  C   C401      1.0  0.39473  0.25237  0.86788  1.0000
  H   H458      1.0  0.31115  0.02042  0.64903  1.0000
  H   H459      1.0  0.32318  0.42741  0.94643  1.0000
  C   C402      1.0  0.35778  0.20271  0.91197  1.0000
  C   C403      1.0  0.31908  0.19232  0.95329  1.0000
  H   H460      1.0  0.48796  0.07449  0.70031  1.0000
  C   C404      1.0  0.33039  0.21801  0.96843  1.0000
  H   H461      1.0  0.27386  0.32469  0.65482  1.0000
  H   H462      1.0  0.41061  0.21934  0.89838  1.0000
  H   H463      1.0  0.42753  0.28710  0.92219  1.0000
  H   H464      1.0  0.27464  0.12442  0.72912  1.0000
  S   S114      1.0  0.47083  0.41114  0.85026  1.0000
  H   H465      1.0  0.44576  0.02757  0.75794  1.0000
  H   H466      1.0  0.29842  0.36637  0.77212  1.0000
  C   C405      1.0  0.38090  0.42140  0.84696  1.0000
  H   H467      1.0  0.47579  0.21202  0.87684  1.0000
  H   H468      1.0  0.37977  0.25921  0.86211  1.0000
  H   H469      1.0  0.31956  0.22410  0.98987  1.0000
  S   S115      1.0  0.48744  0.16206  0.89835  1.0000
  H   H470      1.0  0.25355  0.12028  0.85571  1.0000
  S   S116      1.0  0.47195  0.35342  0.77637  1.0000
  C   C406      1.0  0.26585  0.12489  0.79336  1.0000
  C   C407      1.0  0.26512  0.44162  0.93234  1.0000
  H   H471      1.0  0.29958  0.17843  0.96319  1.0000
  C   C408      1.0  0.24977  0.03288  0.75642  1.0000
  C   C409      1.0  0.32026  0.00984  0.66562  1.0000
  C   C410      1.0  0.28646  0.46219  0.99730  1.0000
  H   H472      1.0  0.32388  0.16470  0.91323  1.0000
  H   H473      1.0  0.36743  0.19602  0.88948  1.0000
  C   C411      1.0  0.35225  0.35262  0.82040  1.0000
  H   H474      1.0  0.26890  0.04966  0.75924  1.0000
  H   H475      1.0  0.28195  0.14430  0.79868  1.0000
  H   H476      1.0  0.36508  0.40807  0.92483  1.0000
  C   C412      1.0  0.33276  0.18467  0.92514  1.0000
  H   H477      1.0  0.41539  0.23139  0.95030  1.0000
  C   C413      1.0  0.48133  0.38615  0.59989  1.0000
  S   S117      1.0  0.27921  0.48938  0.70116  1.0000
  S   S118      1.0  0.38047  0.00291  0.66872  1.0000
  S   S119      1.0  0.33636  0.48826  0.76423  1.0000
  H   H478      1.0  0.25043  0.42491  0.91574  1.0000
  H   H479      1.0  0.33726  0.40025  0.89329  1.0000
  H   H480      1.0  0.35022  0.19726  0.53827  1.0000
  C   C414      1.0  0.40734  0.27380  0.93327  1.0000
  C   C415      1.0  0.37002  0.22900  0.92709  1.0000
  H   H481      1.0  0.40858  0.27183  0.96693  1.0000
  C   C416      1.0  0.35546  0.23616  0.95566  1.0000
  H   H482      1.0  0.28826  0.02031  0.71179  1.0000
  Fe  Fe62      1.0  0.35745  0.47475  0.71877  1.0000
  H   H483      1.0  0.33548  0.15568  0.50085  1.0000
  S   S120      1.0  0.31646  0.06741  0.50458  1.0000
  N   N30       1.0  0.39634  0.24781  0.91210  1.0000
  H   H484      1.0  0.32324  0.04330  0.94539  1.0000
  H   H485      1.0  0.26410  0.99942  0.65821  1.0000
  H   H486      1.0  0.38133  0.36882  0.89290  1.0000
  C   C417      1.0  0.31980  0.20540  0.51536  1.0000
  C   C418      1.0  0.26681  0.44094  0.97498  1.0000
  N   N31       1.0  0.38621  0.39134  0.67102  1.0000
  C   C419      1.0  0.37171  0.36522  0.69042  1.0000
  C   C420      1.0  0.36646  0.39931  0.65652  1.0000
  C   C421      1.0  0.40051  0.38866  0.63464  1.0000
  C   C422      1.0  0.40512  0.41017  0.70065  1.0000
  C   C423      1.0  0.40522  0.43429  0.71216  1.0000
  C   C424      1.0  0.42427  0.40458  0.71909  1.0000
  C   C425      1.0  0.42255  0.45096  0.74175  1.0000
  C   C426      1.0  0.44139  0.42127  0.74886  1.0000
  C   C427      1.0  0.44034  0.44426  0.76050  1.0000
  H   H487      1.0  0.36195  0.36677  0.71924  1.0000
  H   H488      1.0  0.35631  0.35083  0.66986  1.0000
  H   H489      1.0  0.38462  0.35619  0.69805  1.0000
  H   H490      1.0  0.35491  0.40151  0.68257  1.0000
  H   H491      1.0  0.35193  0.38434  0.63546  1.0000
  H   H492      1.0  0.37570  0.41806  0.63933  1.0000
  H   H493      1.0  0.41435  0.38087  0.64269  1.0000
  H   H494      1.0  0.38695  0.37476  0.61144  1.0000
  H   H495      1.0  0.41216  0.40795  0.61966  1.0000
  H   H496      1.0  0.39216  0.44085  0.69871  1.0000
  H   H497      1.0  0.42602  0.38707  0.71077  1.0000
  H   H498      1.0  0.42209  0.46920  0.75000  1.0000
  H   H499      1.0  0.45545  0.41620  0.76317  1.0000
  H   H500      1.0  0.39120  0.42191  0.81765  1.0000
  H   H501      1.0  0.46614  0.06060  0.80792  1.0000
  C   C428      1.0  0.38583  0.05305  0.97529  1.0000
  H   H502      1.0  0.33875  0.02503  0.67957  1.0000
  H   H503      1.0  0.39341  0.05306  0.94482  1.0000
  S   S121      1.0  0.47877  0.10108  0.89689  1.0000
  H   H504      1.0  0.36709  0.01332  0.91499  1.0000
  S   S122      1.0  0.24285  0.01109  0.92971  1.0000
  H   H505      1.0  0.32593  0.99882  0.64256  1.0000
  C   C429      1.0  0.26175  0.11379  0.75417  1.0000
  C   C430      1.0  0.28255  0.46361  0.91079  1.0000
  H   H506      1.0  0.35139  0.01241  0.55243  1.0000
  H   H507      1.0  0.27982  0.99454  0.74836  1.0000
  C   C431      1.0  0.33158  0.00297  0.53819  1.0000
  H   H508      1.0  0.36280  0.25577  0.96827  1.0000
  C   C432      1.0  0.23985  0.15986  0.53957  1.0000
  C   C433      1.0  0.24120  0.08883  0.74722  1.0000
  C   C434      1.0  0.48363  0.07794  0.73250  1.0000
  H   H509      1.0  0.24216  0.12481  0.55819  1.0000
  H   H510      1.0  0.25264  0.42357  0.99031  1.0000
  H   H511      1.0  0.28165  0.46379  0.87762  1.0000
  C   C435      1.0  0.38683  0.99749  0.75174  1.0000
  H   H512      1.0  0.42358  0.08355  0.99424  1.0000
  H   H513      1.0  0.23833  0.08010  0.71675  1.0000
  C   C436      1.0  0.30162  0.48506  0.93179  1.0000
  C   C437      1.0  0.48781  0.07073  0.80400  1.0000
  H   H514      1.0  0.33438  0.99591  0.73586  1.0000
  C   C438      1.0  0.48755  0.03925  0.75347  1.0000
  C   C439      1.0  0.45188  0.99436  0.74491  1.0000
  S   S123      1.0  0.36637  0.52235  0.12278  1.0000
  Fe  Fe63      1.0  0.40147  0.53232  0.16277  1.0000
  S   S124      1.0  0.42267  0.57067  0.19823  1.0000
  Fe  Fe64      1.0  0.30862  0.90104  0.27793  1.0000
  S   S125      1.0  0.32516  0.87799  0.24190  1.0000
  S   S126      1.0  0.29857  0.89804  0.34621  1.0000
  Fe  Fe65      1.0  0.30142  0.92728  0.20070  1.0000
  S   S127      1.0  0.31767  0.90668  0.15953  1.0000
  S   S128      1.0  0.28750  0.95671  0.18078  1.0000
  Fe  Fe66      1.0  0.29290  0.87066  0.19651  1.0000
  S   S129      1.0  0.27072  0.83262  0.16000  1.0000
  Fe  Fe67      1.0  0.34836  0.91579  0.20783  1.0000
  S   S130      1.0  0.39129  0.93758  0.18900  1.0000
  S   S131      1.0  0.27470  0.89086  0.23480  1.0000
  S   S132      1.0  0.33378  0.93922  0.24687  1.0000
  H   H515      1.0  0.25253  0.74585  0.14693  1.0000
  C   C440      1.0  0.28041  0.95845  0.12850  1.0000
  C   C441      1.0  0.26777  0.96130  0.04571  1.0000
  C   C442      1.0  0.27878  0.94495  0.05709  1.0000
  C   C443      1.0  0.28496  0.94342  0.09827  1.0000
  C   C444      1.0  0.34770  0.98042  0.49262  1.0000
  H   H516      1.0  0.29310  0.93047  0.10655  1.0000
  C   C445      1.0  0.32061  0.90708  0.38801  1.0000
  C   C446      1.0  0.31044  0.90115  0.42803  1.0000
  C   C447      1.0  0.32710  0.90954  0.46236  1.0000
  C   C448      1.0  0.35416  0.92416  0.45692  1.0000
  C   C449      1.0  0.36437  0.92975  0.41689  1.0000
  C   C450      1.0  0.34772  0.92116  0.38255  1.0000
  H   H517      1.0  0.28949  0.89012  0.43253  1.0000
  C   C451      1.0  0.47461  0.93629  0.05095  1.0000
  H   H518      1.0  0.38531  0.94089  0.41239  1.0000
  H   H519      1.0  0.35582  0.92570  0.35191  1.0000
  C   C452      1.0  0.41333  0.92380  0.18812  1.0000
  C   C453      1.0  0.43867  0.93862  0.17206  1.0000
  C   C454      1.0  0.45671  0.92829  0.17046  1.0000
  C   C455      1.0  0.44951  0.90297  0.18474  1.0000
  C   C456      1.0  0.42428  0.88827  0.20118  1.0000
  C   C457      1.0  0.40626  0.89864  0.20299  1.0000
  H   H520      1.0  0.44435  0.95815  0.16071  1.0000
  H   H521      1.0  0.28833  0.99017  0.38188  1.0000
  H   H522      1.0  0.38689  0.88710  0.21560  1.0000
  H   H523      1.0  0.45565  0.61010  0.09451  1.0000
  C   C458      1.0  0.26464  0.78275  0.23293  1.0000
  C   C459      1.0  0.45668  0.59114  0.19297  1.0000
  C   C460      1.0  0.46887  0.61334  0.21863  1.0000
  H   H524      1.0  0.48568  0.57370  0.24876  1.0000
  C   C461      1.0  0.47182  0.58565  0.16427  1.0000
  H   H525      1.0  0.45731  0.61757  0.24115  1.0000
  C   C462      1.0  0.26993  0.94221  0.44660  1.0000
  H   H526      1.0  0.46265  0.56869  0.14423  1.0000
  C   C463      1.0  0.41693  0.91775  0.04543  1.0000
  H   H527      1.0  0.47558  0.94165  0.08402  1.0000
  H   H528      1.0  0.45191  0.55530  0.26041  1.0000
  C   C464      1.0  0.26970  0.97507  0.11705  1.0000
  H   H529      1.0  0.35071  0.97552  0.46051  1.0000
  C   C465      1.0  0.30574  0.98128  0.47809  1.0000
  H   H530      1.0  0.44983  0.52583  0.20114  1.0000
  H   H531      1.0  0.44480  0.90853  0.48747  1.0000
  C   C466      1.0  0.28943  0.50005  0.15757  1.0000
  H   H532      1.0  0.24955  0.98799  0.46883  1.0000
  H   H533      1.0  0.40946  0.59625  0.11274  1.0000
  H   H534      1.0  0.38206  0.86627  0.12987  1.0000
  H   H535      1.0  0.38356  0.98454  0.19472  1.0000
  H   H536      1.0  0.46387  0.69038  0.22368  1.0000
  C   C467      1.0  0.24927  0.75039  0.17798  1.0000
  S   S133      1.0  0.47108  0.88864  0.18177  1.0000
  C   C468      1.0  0.30219  0.98917  0.28055  1.0000
  H   H537      1.0  0.24183  0.52470  0.28764  1.0000
  C   C469      1.0  0.45056  0.62322  0.11245  1.0000
  C   C470      1.0  0.43721  0.65605  0.16049  1.0000
  H   H538      1.0  0.46932  0.89623  0.09703  1.0000
  C   C471      1.0  0.48240  0.69066  0.21298  1.0000
  C   C472      1.0  0.48023  0.71171  0.15066  1.0000
  H   H539      1.0  0.25074  0.51343  0.35708  1.0000
  C   C473      1.0  0.46644  0.89207  0.06357  1.0000
  N   N32       1.0  0.48431  0.68995  0.16761  1.0000
  H   H540      1.0  0.27389  0.52084  0.25153  1.0000
  H   H541      1.0  0.47622  0.93994  0.15850  1.0000
  H   H542      1.0  0.26266  0.92249  0.43384  1.0000
  H   H543      1.0  0.36164  0.89284  0.10408  1.0000
  C   C474      1.0  0.39171  0.88042  0.10584  1.0000
  C   C475      1.0  0.26336  0.97647  0.07585  1.0000
  H   H544      1.0  0.31072  0.50232  0.05615  1.0000
  S   S134      1.0  0.42003  0.51552  0.11866  1.0000
  H   H545      1.0  0.28232  0.93317  0.03400  1.0000
  H   H546      1.0  0.25535  0.98953  0.06742  1.0000
  H   H547      1.0  0.27842  0.80209  0.24411  1.0000
  C   C476      1.0  0.27045  0.50905  0.15436  1.0000
  C   C477      1.0  0.26762  0.77469  0.19364  1.0000
  H   H548      1.0  0.42429  0.87269  0.10485  1.0000
  H   H549      1.0  0.41004  0.89148  0.48356  1.0000
  H   H550      1.0  0.31625  0.52337  0.23603  1.0000
  S   S135      1.0  0.37584  0.93702  0.49899  1.0000
  H   H551      1.0  0.42590  0.93241  0.02204  1.0000
  H   H552      1.0  0.26620  0.98361  0.33968  1.0000
  H   H553      1.0  0.45118  0.51260  0.31052  1.0000
  C   C478      1.0  0.47021  0.64728  0.12675  1.0000
  C   C479      1.0  0.36816  0.99254  0.36780  1.0000
  H   H554      1.0  0.43278  0.99069  0.28043  1.0000
  H   H555      1.0  0.46919  0.50862  0.20182  1.0000
  H   H556      1.0  0.30762  0.94565  0.45671  1.0000
  H   H557      1.0  0.46103  0.71049  0.15982  1.0000
  S   S136      1.0  0.38527  0.51092  0.01254  1.0000
  N   N33       1.0  0.47262  0.53190  0.25604  1.0000
  H   H558      1.0  0.28819  0.94734  0.36015  1.0000
  H   H559      1.0  0.27594  0.52839  0.14223  1.0000
  C   C480      1.0  0.46897  0.52733  0.21119  1.0000
  H   H560      1.0  0.26622  0.98688  0.14014  1.0000
  H   H561      1.0  0.33232  0.95902  0.35483  1.0000
  H   H562      1.0  0.30938  0.51246  0.14803  1.0000
  C   C481      1.0  0.42957  0.90325  0.06021  1.0000
  C   C482      1.0  0.29585  0.95575  0.46014  1.0000
  C   C483      1.0  0.41613  0.88432  0.09094  1.0000
  C   C484      1.0  0.27909  0.50757  0.26767  1.0000
  H   H563      1.0  0.43099  0.50916  0.26692  1.0000
  H   H564      1.0  0.41860  0.86871  0.21244  1.0000
  N   N34       1.0  0.45563  0.90829  0.04403  1.0000
  C   C485      1.0  0.24369  0.76619  0.25731  1.0000
  C   C486      1.0  0.41778  0.63178  0.14649  1.0000
  C   C487      1.0  0.47156  0.55671  0.26678  1.0000
  C   C488      1.0  0.46409  0.66444  0.15147  1.0000
  H   H565      1.0  0.31898  0.90498  0.49298  1.0000
  C   C489      1.0  0.30366  0.50931  0.25839  1.0000
  H   H566      1.0  0.38366  0.92564  0.05005  1.0000
  H   H567      1.0  0.42849  0.87326  0.48824  1.0000
  Fe  Fe68      1.0  0.38327  0.50214  0.08100  1.0000
  N   N35       1.0  0.30256  0.98284  0.32438  1.0000
  H   H568      1.0  0.28374  0.78794  0.17458  1.0000
  H   H569      1.0  0.43104  0.66806  0.17892  1.0000
  C   C490      1.0  0.42446  0.61537  0.12263  1.0000
  H   H570      1.0  0.39744  0.62539  0.15470  1.0000
  C   C491      1.0  0.25325  0.95376  0.45002  1.0000
  C   C492      1.0  0.45003  0.51023  0.27658  1.0000
  C   C493      1.0  0.42715  0.89117  0.49894  1.0000
  H   H571      1.0  0.47584  0.56174  0.29983  1.0000
  C   C494      1.0  0.28889  0.95374  0.32792  1.0000
  H   H572      1.0  0.40222  0.97518  0.25422  1.0000
  H   H573      1.0  0.48436  0.54349  0.19330  1.0000
  H   H574      1.0  0.26827  0.94512  0.31706  1.0000
  H   H575      1.0  0.29848  0.94435  0.30877  1.0000
  C   C495      1.0  0.38016  0.89539  0.09133  1.0000
  H   H576      1.0  0.34508  0.98875  0.17381  1.0000
  H   H577      1.0  0.28202  0.97942  0.26761  1.0000
  C   C496      1.0  0.39269  0.91395  0.06105  1.0000
  H   H578      1.0  0.37710  0.98078  0.37899  1.0000
  C   C497      1.0  0.34226  0.98022  0.35391  1.0000
  H   H579      1.0  0.46959  0.94993  0.03374  1.0000
  C   C498      1.0  0.26262  0.97909  0.46611  1.0000
  H   H580      1.0  0.31423  0.98233  0.26168  1.0000
  H   H581      1.0  0.45363  0.87068  0.05874  1.0000
  H   H582      1.0  0.48358  0.67362  0.22684  1.0000
  H   H583      1.0  0.48399  0.49799  0.30515  1.0000
  S   S137      1.0  0.38152  0.49564  0.20012  1.0000
  H   H584      1.0  0.24512  0.90024  0.15725  1.0000
  H   H585      1.0  0.48110  0.71165  0.11657  1.0000
  H   H586      1.0  0.24145  0.77260  0.28786  1.0000
  H   H587      1.0  0.48594  0.89620  0.05071  1.0000
  H   H588      1.0  0.32074  0.98709  0.00309  1.0000
  C   C499      1.0  0.28844  0.99273  0.47983  1.0000
  C   C500      1.0  0.24446  0.49333  0.16700  1.0000
  H   H589      1.0  0.32519  0.97049  0.69856  1.0000
  Fe  Fe69      1.0  0.38205  0.91456  0.64529  1.0000
  S   S138      1.0  0.39821  0.95234  0.61059  1.0000
  S   S139      1.0  0.40491  0.89435  0.67048  1.0000
  Fe  Fe70      1.0  0.32561  0.90533  0.63651  1.0000
  S   S140      1.0  0.33770  0.94261  0.60081  1.0000
  S   S141      1.0  0.28281  0.88265  0.65528  1.0000
  Fe  Fe71      1.0  0.36480  0.93064  0.56676  1.0000
  H   H590      1.0  0.44813  0.91549  0.98177  1.0000
  Fe  Fe72      1.0  0.36986  0.96120  0.64744  1.0000
  S   S142      1.0  0.35048  0.89199  0.59898  1.0000
  S   S143      1.0  0.35592  0.92494  0.68559  1.0000
  C   C501      1.0  0.25792  0.80475  0.63041  1.0000
  C   C502      1.0  0.27333  0.83228  0.63153  1.0000
  C   C503      1.0  0.26572  0.84786  0.65606  1.0000
  H   H591      1.0  0.26380  0.79290  0.61098  1.0000
  H   H592      1.0  0.29081  0.84146  0.61284  1.0000
  H   H593      1.0  0.34180  0.57284  0.67448  1.0000
  C   C504      1.0  0.41308  0.60221  0.61319  1.0000
  C   C505      1.0  0.45633  0.93299  0.66062  1.0000
  C   C506      1.0  0.43940  0.90792  0.67502  1.0000
  C   C507      1.0  0.45005  0.89272  0.69279  1.0000
  H   H594      1.0  0.44790  0.60167  0.58946  1.0000
  H   H595      1.0  0.44846  0.94509  0.64748  1.0000
  H   H596      1.0  0.43711  0.87336  0.70416  1.0000
  C   C508      1.0  0.42403  0.91620  0.55680  1.0000
  C   C509      1.0  0.44966  0.58678  0.69730  1.0000
  C   C510      1.0  0.45782  0.57070  0.67515  1.0000
  C   C511      1.0  0.44247  0.54317  0.67530  1.0000
  C   C512      1.0  0.41895  0.53146  0.69777  1.0000
  C   C513      1.0  0.41153  0.54746  0.72158  1.0000
  C   C514      1.0  0.42660  0.57499  0.72085  1.0000
  C   C515      1.0  0.39130  0.54751  0.61325  1.0000
  H   H597      1.0  0.44851  0.53094  0.65708  1.0000
  H   H598      1.0  0.39414  0.53863  0.74047  1.0000
  H   H599      1.0  0.42036  0.58725  0.73859  1.0000
  C   C516      1.0  0.33078  0.99014  0.97287  1.0000
  C   C517      1.0  0.45395  0.90256  0.99938  1.0000
  C   C518      1.0  0.35183  0.53307  0.68436  1.0000
  H   H600      1.0  0.42279  0.91739  0.59069  1.0000
  H   H601      1.0  0.40679  0.91744  0.54381  1.0000
  C   C519      1.0  0.27854  0.97184  0.67664  1.0000
  C   C520      1.0  0.41678  0.56265  0.59872  1.0000
  H   H602      1.0  0.42860  0.55322  0.58915  1.0000
  H   H603      1.0  0.42607  0.85390  0.59815  1.0000
  H   H604      1.0  0.38541  0.52121  0.92677  1.0000
  H   H605      1.0  0.47552  0.57949  0.65693  1.0000
  H   H606      1.0  0.31306  0.54416  0.66070  1.0000
  H   H607      1.0  0.31549  0.50191  0.91477  1.0000
  H   H608      1.0  0.36363  0.54960  0.70562  1.0000
  H   H609      1.0  0.33183  0.56663  0.62117  1.0000
  C   C521      1.0  0.38735  0.58724  0.62700  1.0000
  H   H610      1.0  0.37743  0.59807  0.63850  1.0000
  H   H611      1.0  0.47323  0.90559  0.98655  1.0000
  C   C522      1.0  0.47328  0.91046  0.55604  1.0000
  H   H612      1.0  0.43945  0.88182  0.99282  1.0000
  N   N36       1.0  0.30243  0.99190  0.69698  1.0000
  C   C523      1.0  0.33373  0.52011  0.61665  1.0000
  H   H613      1.0  0.23969  0.69760  0.58659  1.0000
  C   C524      1.0  0.37556  0.55930  0.62709  1.0000
  H   H614      1.0  0.36761  0.99144  0.50615  1.0000
  S   S144      1.0  0.46700  0.62158  0.69525  1.0000
  H   H615      1.0  0.46439  0.85361  0.62780  1.0000
  N   N37       1.0  0.42474  0.89155  0.54421  1.0000
  H   H616      1.0  0.37825  0.97654  0.74598  1.0000
  H   H617      1.0  0.33253  0.52135  0.69922  1.0000
  H   H618      1.0  0.42213  0.62350  0.61474  1.0000
  H   H619      1.0  0.34740  0.98538  0.97633  1.0000
  H   H620      1.0  0.48530  0.89025  0.70899  1.0000
  H   H621      1.0  0.31313  0.50861  0.62754  1.0000
  H   H622      1.0  0.38455  0.52655  0.61518  1.0000
  C   C525      1.0  0.44485  0.86963  0.58960  1.0000
  S   S145      1.0  0.26079  0.96295  0.99340  1.0000
  N   N38       1.0  0.34904  0.54294  0.64405  1.0000
  C   C526      1.0  0.24960  0.92642  0.65476  1.0000
  C   C527      1.0  0.42771  0.58995  0.59892  1.0000
  C   C528      1.0  0.27262  0.94485  0.67354  1.0000
  C   C529      1.0  0.37197  0.50065  0.93112  1.0000
  H   H623      1.0  0.47685  0.92699  0.53686  1.0000
  C   C530      1.0  0.33340  0.55745  0.65013  1.0000
  H   H624      1.0  0.36164  0.52026  0.68172  1.0000
  C   C531      1.0  0.48365  0.94245  0.66323  1.0000
  H   H625      1.0  0.33317  0.52662  0.58488  1.0000
  C   C532      1.0  0.47736  0.90224  0.69559  1.0000
  C   C533      1.0  0.44746  0.89036  0.56338  1.0000
  S   S146      1.0  0.39907  0.49695  0.69407  1.0000
  H   H626      1.0  0.24632  0.51174  0.67506  1.0000
  H   H627      1.0  0.39772  0.85012  0.54594  1.0000
  H   H628      1.0  0.38244  0.87103  0.54109  1.0000
  H   H629      1.0  0.30451  0.96623  0.74303  1.0000
  H   H630      1.0  0.39562  0.86914  0.58943  1.0000
  H   H631      1.0  0.28533  0.93731  0.68545  1.0000
  C   C534      1.0  0.46991  0.98472  0.73838  1.0000
  C   C535      1.0  0.46681  0.86917  0.60699  1.0000
  H   H632      1.0  0.24766  0.87499  0.57732  1.0000
  H   H633      1.0  0.34168  0.50570  0.61541  1.0000
  H   H634      1.0  0.31618  0.97526  0.95179  1.0000
  H   H635      1.0  0.46316  0.96388  0.73287  1.0000
  H   H636      1.0  0.33777  0.96182  0.51015  1.0000
  H   H637      1.0  0.31948  0.50155  0.98834  1.0000
  H   H638      1.0  0.31907  0.98528  0.55652  1.0000
  C   C536      1.0  0.31709  0.98048  0.71960  1.0000
  C   C537      1.0  0.26058  0.97919  0.65827  1.0000
  C   C538      1.0  0.24290  0.83563  0.68002  1.0000
  H   H639      1.0  0.24542  0.90591  0.65319  1.0000
  C   C539      1.0  0.39909  0.86941  0.55570  1.0000
  H   H640      1.0  0.43107  0.98097  0.74420  1.0000
  H   H641      1.0  0.44156  0.93410  0.54666  1.0000
  H   H642      1.0  0.36111  0.49366  0.86707  1.0000
  S   S147      1.0  0.55206  0.42584  0.34210  1.0000
  Fe  Fe73      1.0  0.65106  0.11997  0.44418  1.0000
  S   S148      1.0  0.66405  0.15837  0.41154  1.0000
  H   H643      1.0  0.62484  0.14693  0.47843  1.0000
  Fe  Fe74      1.0  0.63962  0.08825  0.36336  1.0000
  S   S149      1.0  0.65167  0.12408  0.32455  1.0000
  S   S150      1.0  0.62531  0.04541  0.34474  1.0000
  Fe  Fe75      1.0  0.68540  0.14371  0.36839  1.0000
  Fe  Fe76      1.0  0.62936  0.13614  0.37003  1.0000
  S   S151      1.0  0.60646  0.15787  0.35147  1.0000
  S   S152      1.0  0.67498  0.10675  0.40412  1.0000
  S   S153      1.0  0.61474  0.09892  0.40576  1.0000
  H   H644      1.0  0.68302  0.01865  0.46571  1.0000
  C   C540      1.0  0.57256  0.14287  0.33958  1.0000
  C   C541      1.0  0.55710  0.11559  0.34009  1.0000
  C   C542      1.0  0.53010  0.10454  0.33143  1.0000
  C   C543      1.0  0.51828  0.12060  0.32216  1.0000
  C   C544      1.0  0.53377  0.14787  0.32160  1.0000
  C   C545      1.0  0.56075  0.15892  0.33031  1.0000
  H   H645      1.0  0.56591  0.10298  0.34708  1.0000
  H   H646      1.0  0.51832  0.08343  0.33186  1.0000
  H   H647      1.0  0.52495  0.16048  0.31460  1.0000
  H   H648      1.0  0.57248  0.18004  0.33002  1.0000
  C   C546      1.0  0.61534  0.03233  0.29474  1.0000
  C   C547      1.0  0.62233  0.04838  0.26023  1.0000
  C   C548      1.0  0.61591  0.03703  0.22074  1.0000
  C   C549      1.0  0.60179  0.00963  0.21541  1.0000
  C   C550      1.0  0.59403  0.99364  0.24997  1.0000
  H   H649      1.0  0.72436  0.20834  0.39042  1.0000
  H   H650      1.0  0.63314  0.06949  0.26390  1.0000
  H   H651      1.0  0.67266  0.03917  0.43797  1.0000
  N   N39       1.0  0.56366  0.45475  0.48346  1.0000
  C   C551      1.0  0.57131  0.46037  0.34414  1.0000
  C   C552      1.0  0.66950  0.02769  0.46660  1.0000
  C   C553      1.0  0.59760  0.47138  0.33140  1.0000
  H   H652      1.0  0.54068  0.46878  0.36707  1.0000
  H   H653      1.0  0.60581  0.45861  0.32127  1.0000
  C   C554      1.0  0.54692  0.46403  0.24625  1.0000
  C   C555      1.0  0.68253  0.05838  0.14088  1.0000
  C   C556      1.0  0.60849  0.15155  0.47129  1.0000
  H   H654      1.0  0.58527  0.46797  0.24719  1.0000
  C   C557      1.0  0.55399  0.14117  0.44891  1.0000
  C   C558      1.0  0.57513  0.10805  0.48819  1.0000
  C   C559      1.0  0.62855  0.49096  0.42536  1.0000
  H   H655      1.0  0.50955  0.46388  0.24129  1.0000
  C   C560      1.0  0.53473  0.14876  0.43967  1.0000
  H   H656      1.0  0.64934  0.01105  0.46551  1.0000
  C   C561      1.0  0.52581  0.16026  0.46971  1.0000
  S   S154      1.0  0.59594  0.99626  0.16507  1.0000
  N   N40       1.0  0.58527  0.13651  0.49750  1.0000
  H   H657      1.0  0.51100  0.16629  0.46226  1.0000
  H   H658      1.0  0.55295  0.43102  0.42834  1.0000
  H   H659      1.0  0.68070  0.05108  0.10864  1.0000
  C   C562      1.0  0.56481  0.14469  0.48879  1.0000
  H   H660      1.0  0.72929  0.99974  0.24304  1.0000
  H   H661      1.0  0.72521  0.23540  0.29231  1.0000
  H   H662      1.0  0.62185  0.04955  0.19417  1.0000
  C   C563      1.0  0.53022  0.47405  0.23359  1.0000
  H   H663      1.0  0.66485  0.04351  0.15688  1.0000
  H   H664      1.0  0.61819  0.23704  0.29125  1.0000
  N   N41       1.0  0.68351  0.20996  0.28677  1.0000
  C   C564      1.0  0.68182  0.20354  0.33079  1.0000
  H   H665      1.0  0.49259  0.26604  0.26644  1.0000
  C   C565      1.0  0.71104  0.21869  0.27326  1.0000
  C   C566      1.0  0.67427  0.22997  0.28109  1.0000
  C   C567      1.0  0.69126  0.25627  0.26952  1.0000
  C   C568      1.0  0.64769  0.22370  0.28902  1.0000
  C   C569      1.0  0.68192  0.27482  0.26543  1.0000
  C   C570      1.0  0.63858  0.24238  0.28483  1.0000
  C   C571      1.0  0.65565  0.26788  0.27298  1.0000
  H   H666      1.0  0.49217  0.23465  0.22202  1.0000
  H   H667      1.0  0.66144  0.19533  0.34275  1.0000
  C   C572      1.0  0.69009  0.06610  0.22966  1.0000
  H   H668      1.0  0.68120  0.07718  0.14052  1.0000
  H   H669      1.0  0.62029  0.48147  0.19987  1.0000
  H   H670      1.0  0.70485  0.02597  0.13493  1.0000
  H   H671      1.0  0.65286  0.06403  0.47641  1.0000
  C   C573      1.0  0.70226  0.01190  0.27005  1.0000
  H   H672      1.0  0.58972  0.10099  0.49573  1.0000
  H   H673      1.0  0.71192  0.26311  0.26389  1.0000
  H   H674      1.0  0.67451  0.17096  0.26466  1.0000
  H   H675      1.0  0.69525  0.29480  0.25675  1.0000
  H   H676      1.0  0.54929  0.16146  0.01560  1.0000
  H   H677      1.0  0.64856  0.28237  0.27005  1.0000
  C   C574      1.0  0.57360  0.47696  0.23637  1.0000
  S   S155      1.0  0.49959  0.37028  0.40990  1.0000
  H   H678      1.0  0.60417  0.14712  0.43817  1.0000
  C   C575      1.0  0.71659  0.09957  0.27894  1.0000
  H   H679      1.0  0.53576  0.41406  0.47297  1.0000
  C   C576      1.0  0.56094  0.47701  0.35756  1.0000
  C   C577      1.0  0.71098  0.07506  0.20073  1.0000
  H   H680      1.0  0.56051  0.13269  0.42435  1.0000
  C   C578      1.0  0.60116  0.00494  0.28940  1.0000
  Fe  Fe77      1.0  0.51082  0.40508  0.36853  1.0000
  H   H681      1.0  0.67145  0.04944  0.22306  1.0000
  H   H682      1.0  0.52330  0.44744  0.48596  1.0000
  H   H683      1.0  0.71735  0.02837  0.28654  1.0000
  H   H684      1.0  0.69401  0.22133  0.34958  1.0000
  H   H685      1.0  0.53919  0.44612  0.26406  1.0000
  H   H686      1.0  0.68876  0.18864  0.33646  1.0000
  C   C579      1.0  0.73528  0.09593  0.21369  1.0000
  H   H687      1.0  0.59872  0.45171  0.42456  1.0000
  S   S156      1.0  0.72564  0.16632  0.33914  1.0000
  H   H688      1.0  0.57050  0.10335  0.45518  1.0000
  C   C580      1.0  0.66677  0.18559  0.26340  1.0000
  H   H689      1.0  0.63377  0.20435  0.29923  1.0000
  N   N42       1.0  0.70747  0.06216  0.15992  1.0000
  H   H690      1.0  0.66553  0.18994  0.23061  1.0000
  C   C581      1.0  0.70893  0.99576  0.24545  1.0000
  C   C582      1.0  0.60474  0.47073  0.43886  1.0000
  H   H691      1.0  0.63987  0.48702  0.40195  1.0000
  C   C583      1.0  0.67616  0.00680  0.27345  1.0000
  H   H692      1.0  0.67657  0.07142  0.28945  1.0000
  H   H693      1.0  0.52678  0.14583  0.40892  1.0000
  C   C584      1.0  0.70663  0.03613  0.16496  1.0000
  H   H694      1.0  0.64648  0.17528  0.27587  1.0000
  C   C585      1.0  0.54305  0.46318  0.47741  1.0000
  C   C586      1.0  0.72893  0.07745  0.13058  1.0000
  H   H695      1.0  0.71860  0.10933  0.30843  1.0000
  C   C587      1.0  0.69288  0.07836  0.26801  1.0000
  H   H696      1.0  0.72485  0.03811  0.17983  1.0000
  H   H697      1.0  0.49832  0.27132  0.37855  1.0000
  H   H698      1.0  0.54608  0.48051  0.49653  1.0000
  H   H699      1.0  0.54233  0.46827  0.44483  1.0000
  H   H700      1.0  0.67095  0.01933  0.29276  1.0000
  H   H701      1.0  0.72507  0.06838  0.09933  1.0000
  H   H702      1.0  0.73162  0.09786  0.12730  1.0000
  S   S157      1.0  0.49285  0.42450  0.40885  1.0000
  H   H703      1.0  0.61585  0.17311  0.47557  1.0000
  H   H704      1.0  0.68982  0.02303  0.18439  1.0000
  H   H705      1.0  0.56899  0.42082  0.46652  1.0000
  C   C588      1.0  0.55513  0.42915  0.46177  1.0000
  C   C589      1.0  0.58922  0.47549  0.46888  1.0000
  H   H706      1.0  0.50189  0.30952  0.29058  1.0000
  H   H707      1.0  0.71387  0.22446  0.24050  1.0000
  H   H708      1.0  0.71701  0.20280  0.27649  1.0000
  C   C590      1.0  0.73781  0.10810  0.25206  1.0000
  C   C591      1.0  0.68879  0.04492  0.84316  1.0000
  H   H709      1.0  0.65524  0.02768  0.78059  1.0000
  Fe  Fe78      1.0  0.71835  0.13924  0.81237  1.0000
  S   S158      1.0  0.70096  0.15708  0.85670  1.0000
  H   H710      1.0  0.71984  0.18085  0.58278  1.0000
  Fe  Fe79      1.0  0.70327  0.16154  0.73716  1.0000
  S   S159      1.0  0.68478  0.18111  0.77705  1.0000
  S   S160      1.0  0.71130  0.17133  0.66909  1.0000
  C   C592      1.0  0.64305  0.02240  0.86280  1.0000
  Fe  Fe80      1.0  0.66734  0.14329  0.81229  1.0000
  S   S161      1.0  0.62650  0.11974  0.83923  1.0000
  H   H711      1.0  0.67020  0.06263  0.78101  1.0000
  S   S162      1.0  0.68367  0.12279  0.76986  1.0000
  H   H712      1.0  0.50004  0.45813  0.89823  1.0000
  S   S163      1.0  0.53338  0.14993  0.81824  1.0000
  C   C593      1.0  0.60086  0.12854  0.83348  1.0000
  C   C594      1.0  0.60377  0.14949  0.80886  1.0000
  C   C595      1.0  0.58298  0.15589  0.80490  1.0000
  C   C596      1.0  0.55923  0.14171  0.82593  1.0000
  C   C597      1.0  0.55637  0.12094  0.85101  1.0000
  C   C598      1.0  0.57703  0.11425  0.85442  1.0000
  H   H713      1.0  0.62197  0.16064  0.79257  1.0000
  H   H714      1.0  0.58532  0.17193  0.78531  1.0000
  H   H715      1.0  0.53819  0.10983  0.86736  1.0000
  H   H716      1.0  0.57466  0.09808  0.87370  1.0000
  C   C599      1.0  0.50549  0.02875  0.74678  1.0000
  C   C600      1.0  0.72248  0.06249  0.50141  1.0000
  H   H717      1.0  0.53041  0.10534  0.76402  1.0000
  H   H718      1.0  0.71362  0.12036  0.90670  1.0000
  H   H719      1.0  0.60943  0.13424  0.54617  1.0000
  H   H720      1.0  0.57784  0.12967  0.56231  1.0000
  H   H721      1.0  0.51685  0.41016  0.81261  1.0000
  H   H722      1.0  0.52943  0.14236  0.97302  1.0000
  H   H723      1.0  0.60112  0.00426  0.94567  1.0000
  H   H724      1.0  0.68438  0.02030  0.54097  1.0000
  C   C601      1.0  0.62071  0.16038  0.92176  1.0000
  C   C602      1.0  0.66268  0.12799  0.55537  1.0000
  C   C603      1.0  0.68669  0.15051  0.55121  1.0000
  C   C604      1.0  0.70131  0.16342  0.58634  1.0000
  C   C605      1.0  0.69216  0.15400  0.62594  1.0000
  C   C606      1.0  0.66818  0.13142  0.63003  1.0000
  C   C607      1.0  0.65355  0.11851  0.59492  1.0000
  H   H725      1.0  0.69400  0.15802  0.52103  1.0000
  H   H726      1.0  0.57032  0.18671  0.89142  1.0000
  H   H727      1.0  0.66089  0.12392  0.66023  1.0000
  H   H728      1.0  0.63504  0.10107  0.59851  1.0000
  C   C608      1.0  0.50506  0.43200  0.85485  1.0000
  C   C609      1.0  0.51403  0.45447  0.88037  1.0000
  C   C610      1.0  0.54102  0.47210  0.88328  1.0000
  H   H729      1.0  0.62622  0.12685  0.93672  1.0000
  C   C611      1.0  0.55028  0.44510  0.83489  1.0000
  C   C612      1.0  0.52339  0.42734  0.83234  1.0000
  C   C613      1.0  0.53606  0.16413  0.50918  1.0000
  H   H730      1.0  0.54335  0.18825  0.91646  1.0000
  H   H731      1.0  0.56422  0.44134  0.81704  1.0000
  H   H732      1.0  0.64887  0.07342  0.85740  1.0000
  C   C614      1.0  0.63656  0.99654  0.84863  1.0000
  H   H733      1.0  0.54770  0.48909  0.90342  1.0000
  H   H734      1.0  0.65351  0.06482  0.53182  1.0000
  H   H735      1.0  0.59708  0.21530  0.94931  1.0000
  H   H736      1.0  0.53070  0.17310  0.98612  1.0000
  H   H737      1.0  0.56952  0.46798  0.54670  1.0000
  H   H738      1.0  0.55900  0.12824  0.99068  1.0000
  H   H739      1.0  0.52911  0.17323  0.53238  1.0000
  H   H740      1.0  0.58691  0.10718  0.98123  1.0000
  C   C615      1.0  0.55927  0.46765  0.86012  1.0000
  H   H741      1.0  0.61035  0.19071  0.90940  1.0000
  H   H742      1.0  0.63625  0.04421  0.79503  1.0000
  N   N43       1.0  0.49602  0.06751  0.76196  1.0000
  S   S164      1.0  0.59333  0.48980  0.86061  1.0000
  H   H743      1.0  0.68815  0.02708  0.82819  1.0000
  C   C616      1.0  0.67046  0.02882  0.54061  1.0000
  H   H744      1.0  0.63304  0.04334  0.91145  1.0000
  H   H745      1.0  0.52645  0.04081  0.74740  1.0000
  H   H746      1.0  0.68251  0.08802  0.84226  1.0000
  H   H747      1.0  0.69507  0.04541  0.87550  1.0000
  C   C617      1.0  0.55489  0.17708  0.91506  1.0000
  C   C618      1.0  0.58155  0.20297  0.97133  1.0000
  C   C619      1.0  0.58204  0.16216  0.95143  1.0000
  C   C620      1.0  0.62961  0.02461  0.89839  1.0000
  H   H748      1.0  0.49061  0.09948  0.73699  1.0000
  H   H749      1.0  0.50205  0.48931  0.78461  1.0000
  C   C621      1.0  0.49664  0.00186  0.73922  1.0000
  C   C622      1.0  0.59423  0.14089  0.54079  1.0000
  N   N44       1.0  0.56556  0.17581  0.95563  1.0000
  H   H750      1.0  0.49614  0.06262  0.82721  1.0000
  H   H751      1.0  0.56242  0.16021  0.54990  1.0000
  H   H752      1.0  0.63762  0.16849  0.90150  1.0000
  H   H753      1.0  0.67378  0.07351  0.89141  1.0000
  H   H754      1.0  0.52852  0.48628  0.80739  1.0000
  C   C623      1.0  0.55528  0.15650  0.51882  1.0000
  C   C624      1.0  0.66710  0.07112  0.85904  1.0000
  C   C625      1.0  0.70014  0.06705  0.50242  1.0000
  H   H755      1.0  0.70459  0.06209  0.82741  1.0000
  H   H756      1.0  0.68924  0.09928  0.50349  1.0000
  C   C626      1.0  0.60485  0.17286  0.92637  1.0000
  Fe  Fe81      1.0  0.72005  0.19305  0.81767  1.0000
  C   C627      1.0  0.70486  0.09373  0.50261  1.0000
  H   H757      1.0  0.53549  0.07898  0.78263  1.0000
  H   H758      1.0  0.53239  0.08251  0.72806  1.0000
  C   C628      1.0  0.65589  0.04491  0.79766  1.0000
  H   H759      1.0  0.55696  0.09612  0.50596  1.0000
  H   H760      1.0  0.56939  0.21328  0.97705  1.0000
  H   H761      1.0  0.54630  0.43429  0.53941  1.0000
  C   C629      1.0  0.73035  0.11438  0.50172  1.0000
  H   H762      1.0  0.73347  0.13457  0.50190  1.0000
  H   H763      1.0  0.49372  0.26056  0.87264  1.0000
  H   H764      1.0  0.58076  0.44422  0.53371  1.0000
  Fe  Fe82      1.0  0.49544  0.13553  0.85487  1.0000
  C   C630      1.0  0.61427  0.13682  0.94156  1.0000
  N   N45       1.0  0.66327  0.04553  0.84128  1.0000
  H   H765      1.0  0.54173  0.15698  0.90335  1.0000
  C   C631      1.0  0.56520  0.45020  0.52774  1.0000
  H   H766      1.0  0.67399  0.04105  0.56893  1.0000
  S   S165      1.0  0.64319  0.11099  0.51240  1.0000
  H   H767      1.0  0.60344  0.16212  0.54935  1.0000
  C   C632      1.0  0.52483  0.08413  0.75893  1.0000
  C   C633      1.0  0.54294  0.16260  0.98392  1.0000
  H   H768      1.0  0.49443  0.09184  0.81182  1.0000
  H   H769      1.0  0.73159  0.21877  0.71948  1.0000
  C   C634      1.0  0.61111  0.00227  0.91846  1.0000
  H   H770      1.0  0.50094  0.40208  0.60287  1.0000
  H   H771      1.0  0.73672  0.24925  0.74162  1.0000
  H   H772      1.0  0.71712  0.10894  0.97872  1.0000
  C   C635      1.0  0.72698  0.11260  0.91431  1.0000
  C   C636      1.0  0.57605  0.13809  0.97137  1.0000
  C   C637      1.0  0.59202  0.12571  0.96632  1.0000
  H   H773      1.0  0.63248  0.03538  0.50482  1.0000
  C   C638      1.0  0.72901  0.10613  0.95514  1.0000
  H   H774      1.0  0.65052  0.01189  0.54289  1.0000
  H   H775      1.0  0.59122  0.20286  0.00068  1.0000
  H   H776      1.0  0.72049  0.04275  0.50136  1.0000
  S   S166      1.0  0.48828  0.39649  0.51713  1.0000
  H   H777      1.0  0.64591  0.99318  0.82185  1.0000
  N   N46       1.0  0.67348  0.04461  0.50343  1.0000
  C   C639      1.0  0.65226  0.05264  0.50416  1.0000
  H   H778      1.0  0.51054  0.99412  0.73408  1.0000
  Fe  Fe83      1.0  0.56653  0.95419  0.14821  1.0000
  S   S167      1.0  0.54862  0.91894  0.18904  1.0000
  C   C640      1.0  0.73273  0.61554  0.06522  1.0000
  Fe  Fe84      1.0  0.54061  0.92161  0.07021  1.0000
  S   S168      1.0  0.52107  0.88389  0.10548  1.0000
  H   H779      1.0  0.59043  0.63169  0.11651  1.0000
  Fe  Fe85      1.0  0.51171  0.90765  0.15264  1.0000
  H   H780      1.0  0.65539  0.53220  0.42886  1.0000
  Fe  Fe86      1.0  0.55930  0.89804  0.13891  1.0000
  S   S169      1.0  0.58381  0.87679  0.15025  1.0000
  S   S170      1.0  0.52879  0.94448  0.11551  1.0000
  S   S171      1.0  0.57963  0.93421  0.10004  1.0000
  H   H781      1.0  0.51626  0.67999  0.17008  1.0000
  H   H782      1.0  0.59896  0.68178  0.15371  1.0000
  Fe  Fe87      1.0  0.56400  0.68573  0.21271  1.0000
  S   S172      1.0  0.60225  0.69716  0.24428  1.0000
  S   S173      1.0  0.54474  0.64609  0.18009  1.0000
  Fe  Fe88      1.0  0.56735  0.73983  0.22687  1.0000
  S   S174      1.0  0.60598  0.75532  0.25962  1.0000
  S   S175      1.0  0.54189  0.76028  0.21759  1.0000
  Fe  Fe89      1.0  0.61714  0.73482  0.20931  1.0000
  S   S176      1.0  0.65842  0.74945  0.18354  1.0000
  Fe  Fe90      1.0  0.58817  0.71641  0.29223  1.0000
  S   S177      1.0  0.59996  0.71463  0.35845  1.0000
  S   S178      1.0  0.57986  0.72215  0.17423  1.0000
  S   S179      1.0  0.54854  0.70212  0.26302  1.0000
  C   C641      1.0  0.64513  0.67963  0.15996  1.0000
  Fe  Fe91      1.0  0.72079  0.57824  0.32920  1.0000
  H   H783      1.0  0.71205  0.64499  0.41780  1.0000
  Fe  Fe92      1.0  0.66445  0.57062  0.32420  1.0000
  S   S180      1.0  0.67564  0.60382  0.27961  1.0000
  S   S181      1.0  0.62190  0.55001  0.34499  1.0000
  Fe  Fe93      1.0  0.69918  0.58645  0.24805  1.0000
  S   S182      1.0  0.70038  0.57695  0.17996  1.0000
  Fe  Fe94      1.0  0.71088  0.62561  0.32035  1.0000
  C   C642      1.0  0.72645  0.77727  0.42978  1.0000
  S   S183      1.0  0.68599  0.55199  0.29054  1.0000
  S   S184      1.0  0.69786  0.59381  0.36713  1.0000
  H   H784      1.0  0.56417  0.57403  0.25459  1.0000
  H   H785      1.0  0.72306  0.63471  0.11507  1.0000
  S   S185      1.0  0.53142  0.92535  0.00324  1.0000
  H   H786      1.0  0.59679  0.64084  0.16911  1.0000
  H   H787      1.0  0.69196  0.70675  0.30506  1.0000
  C   C643      1.0  0.61867  0.77331  0.45941  1.0000
  H   H788      1.0  0.57373  0.52854  0.18476  1.0000
  C   C644      1.0  0.66372  0.67394  0.01051  1.0000
  C   C645      1.0  0.66902  0.75936  0.13253  1.0000
  C   C646      1.0  0.69555  0.76796  0.12254  1.0000
  C   C647      1.0  0.70464  0.77458  0.08199  1.0000
  C   C648      1.0  0.68718  0.77228  0.05080  1.0000
  C   C649      1.0  0.66063  0.76366  0.06073  1.0000
  C   C650      1.0  0.65163  0.75757  0.10147  1.0000
  H   H789      1.0  0.70916  0.76944  0.14631  1.0000
  H   H790      1.0  0.56712  0.54112  0.29979  1.0000
  H   H791      1.0  0.64699  0.76188  0.03685  1.0000
  H   H792      1.0  0.63123  0.75128  0.10872  1.0000
  C   C651      1.0  0.54905  0.68054  0.47398  1.0000
  C   C652      1.0  0.57635  0.69123  0.47569  1.0000
  C   C653      1.0  0.59156  0.70124  0.43994  1.0000
  C   C654      1.0  0.57972  0.70063  0.40208  1.0000
  C   C655      1.0  0.55243  0.68982  0.40035  1.0000
  C   C656      1.0  0.53724  0.67993  0.43613  1.0000
  C   C657      1.0  0.56414  0.75010  0.46637  1.0000
  H   H793      1.0  0.61265  0.70966  0.44171  1.0000
  H   H794      1.0  0.54304  0.68928  0.37155  1.0000
  H   H795      1.0  0.51615  0.67170  0.43444  1.0000
  C   C658      1.0  0.64864  0.57650  0.07286  1.0000
  C   C659      1.0  0.64694  0.58740  0.11102  1.0000
  C   C660      1.0  0.66255  0.58767  0.14428  1.0000
  C   C661      1.0  0.67988  0.57683  0.13966  1.0000
  C   C662      1.0  0.68118  0.56550  0.10172  1.0000
  C   C663      1.0  0.66569  0.56538  0.06845  1.0000
  H   H796      1.0  0.63367  0.59589  0.11471  1.0000
  H   H797      1.0  0.66143  0.59652  0.17327  1.0000
  H   H798      1.0  0.69436  0.55688  0.09800  1.0000
  H   H799      1.0  0.66679  0.55661  0.03943  1.0000
  H   H800      1.0  0.66125  0.67509  0.34929  1.0000
  C   C664      1.0  0.57163  0.84430  0.16878  1.0000
  C   C665      1.0  0.58909  0.83356  0.17364  1.0000
  C   C666      1.0  0.58030  0.80788  0.18852  1.0000
  C   C667      1.0  0.55392  0.79270  0.19878  1.0000
  C   C668      1.0  0.53645  0.80343  0.19392  1.0000
  C   C669      1.0  0.54524  0.82911  0.17900  1.0000
  H   H801      1.0  0.60953  0.84512  0.16571  1.0000
  H   H802      1.0  0.59395  0.79987  0.19205  1.0000
  H   H803      1.0  0.51602  0.79188  0.20186  1.0000
  H   H804      1.0  0.53162  0.83716  0.17549  1.0000
  H   H805      1.0  0.64579  0.55213  0.21736  1.0000
  H   H806      1.0  0.66478  0.89543  0.47051  1.0000
  C   C670      1.0  0.71466  0.73965  0.47285  1.0000
  S   S186      1.0  0.72788  0.66914  0.33721  1.0000
  C   C671      1.0  0.64711  0.94818  0.16066  1.0000
  H   H807      1.0  0.56870  0.51718  0.36885  1.0000
  H   H808      1.0  0.68697  0.68089  0.38423  1.0000
  C   C672      1.0  0.63841  0.66966  0.08730  1.0000
  C   C673      1.0  0.73178  0.67634  0.46200  1.0000
  H   H809      1.0  0.51034  0.59837  0.13813  1.0000
  C   C674      1.0  0.58442  0.50064  0.21361  1.0000
  H   H810      1.0  0.58297  0.97255  0.24635  1.0000
  H   H811      1.0  0.68259  0.71572  0.02226  1.0000
  H   H812      1.0  0.72315  0.66387  0.48819  1.0000
  C   C675      1.0  0.66329  0.72247  0.35507  1.0000
  C   C676      1.0  0.61339  0.49880  0.33180  1.0000
  C   C677      1.0  0.72100  0.63008  0.08252  1.0000
  C   C678      1.0  0.70582  0.63776  0.05856  1.0000
  H   H813      1.0  0.65055  0.70916  0.33050  1.0000
  H   H814      1.0  0.52162  0.56963  0.23358  1.0000
  C   C679      1.0  0.65657  0.69439  0.07144  1.0000
  H   H815      1.0  0.65039  0.72073  0.38180  1.0000
  C   C680      1.0  0.71254  0.76070  0.39725  1.0000
  H   H816      1.0  0.61232  0.76897  0.39420  1.0000
  N   N47       1.0  0.61258  0.51500  0.20271  1.0000
  H   H817      1.0  0.62320  0.70488  0.12116  1.0000
  H   H818      1.0  0.66127  0.71243  0.08815  1.0000
  C   C681      1.0  0.60329  0.76630  0.42428  1.0000
  S   S187      1.0  0.62879  0.57679  0.03186  1.0000
  H   H819      1.0  0.63192  0.93105  0.14345  1.0000
  H   H820      1.0  0.64124  0.91874  0.25256  1.0000
  H   H821      1.0  0.62031  0.62731  0.07238  1.0000
  H   H822      1.0  0.67087  0.74278  0.34332  1.0000
  H   H823      1.0  0.61555  0.55369  0.21353  1.0000
  H   H824      1.0  0.65860  0.70082  0.15512  1.0000
  H   H825      1.0  0.71020  0.74054  0.31909  1.0000
  C   C682      1.0  0.59926  0.50154  0.48470  1.0000
  H   H826      1.0  0.51477  0.69605  0.12338  1.0000
  N   N48       1.0  0.62523  0.66824  0.12712  1.0000
  H   H827      1.0  0.65756  0.68240  0.40159  1.0000
  H   H828      1.0  0.50521  0.64686  0.23574  1.0000
  C   C683      1.0  0.64359  0.92110  0.21874  1.0000
  C   C684      1.0  0.66896  0.69645  0.03362  1.0000
  C   C685      1.0  0.60653  0.64106  0.13924  1.0000
  N   N49       1.0  0.64245  0.94528  0.20553  1.0000
  H   H829      1.0  0.59608  0.67664  0.09929  1.0000
  C   C686      1.0  0.72744  0.76674  0.46750  1.0000
  C   C687      1.0  0.61537  0.94133  0.21321  1.0000
  H   H830      1.0  0.66631  0.94934  0.15161  1.0000
  C   C688      1.0  0.63738  0.51645  0.44056  1.0000
  H   H831      1.0  0.66228  0.92099  0.20999  1.0000
  H   H832      1.0  0.63592  0.67859  0.19052  1.0000
  C   C689      1.0  0.52192  0.55486  0.25359  1.0000
  H   H833      1.0  0.60844  0.53268  0.14654  1.0000
  C   C690      1.0  0.63367  0.64704  0.06308  1.0000
  C   C691      1.0  0.61560  0.51887  0.15769  1.0000
  H   H834      1.0  0.62779  0.90308  0.20435  1.0000
  H   H835      1.0  0.63977  0.78168  0.45647  1.0000
  C   C692      1.0  0.64616  0.64931  0.02525  1.0000
  H   H836      1.0  0.64898  0.51246  0.20575  1.0000
  H   H837      1.0  0.63649  0.52737  0.14796  1.0000
  H   H838      1.0  0.60072  0.92349  0.19703  1.0000
  H   H839      1.0  0.69204  0.70208  0.44671  1.0000
  C   C693      1.0  0.57678  0.50442  0.35818  1.0000
  H   H840      1.0  0.69624  0.64845  0.07233  1.0000
  H   H841      1.0  0.61011  0.93842  0.24631  1.0000
  C   C694      1.0  0.62436  0.54104  0.22356  1.0000
  C   C695      1.0  0.56688  0.51048  0.20165  1.0000
  H   H842      1.0  0.64641  0.96614  0.14946  1.0000
  H   H843      1.0  0.49475  0.94052  0.04091  1.0000
  H   H844      1.0  0.65737  0.66921  0.16176  1.0000
  C   C696      1.0  0.51094  0.62491  0.18614  1.0000
  C   C697      1.0  0.66270  0.96848  0.22730  1.0000
  H   H845      1.0  0.56430  0.74866  0.40024  1.0000
  C   C698      1.0  0.70216  0.72026  0.33111  1.0000
  H   H846      1.0  0.71225  0.76980  0.36862  1.0000
  H   H847      1.0  0.61250  0.95808  0.20174  1.0000
  H   H848      1.0  0.71904  0.71674  0.33943  1.0000
  H   H849      1.0  0.52709  0.50498  0.20161  1.0000
  C   C699      1.0  0.60299  0.51543  0.34505  1.0000
  C   C700      1.0  0.70090  0.72286  0.44049  1.0000
  H   H850      1.0  0.52608  0.71444  0.16956  1.0000
  H   H851      1.0  0.62174  0.53889  0.25741  1.0000
  C   C701      1.0  0.50073  0.51498  0.29325  1.0000
  N   N50       1.0  0.68446  0.71588  0.36678  1.0000
  C   C702      1.0  0.61028  0.68354  0.12508  1.0000
  C   C703      1.0  0.67205  0.68737  0.37613  1.0000
  H   H852      1.0  0.69572  0.96248  0.20560  1.0000
  H   H853      1.0  0.61654  0.62857  0.14289  1.0000
  C   C704      1.0  0.69934  0.73294  0.40157  1.0000
  H   H854      1.0  0.69725  0.92181  0.46988  1.0000
  C   C705      1.0  0.49885  0.60251  0.16086  1.0000
  C   C706      1.0  0.57614  0.75485  0.42777  1.0000
  C   C707      1.0  0.68953  0.97443  0.22422  1.0000
  H   H855      1.0  0.63369  0.50705  0.32247  1.0000
  H   H856      1.0  0.49550  0.73128  0.16166  1.0000
  C   C708      1.0  0.51145  0.69514  0.15708  1.0000
  C   C709      1.0  0.72555  0.66556  0.42211  1.0000
  C   C710      1.0  0.62794  0.50121  0.21475  1.0000
  H   H857      1.0  0.63688  0.98285  0.25641  1.0000
  H   H858      1.0  0.72509  0.78107  0.07480  1.0000
  C   C711      1.0  0.54016  0.49720  0.21124  1.0000
  C   C712      1.0  0.65662  0.98555  0.25233  1.0000
  C   C713      1.0  0.73640  0.68153  0.38800  1.0000
  C   C714      1.0  0.52533  0.51772  0.30439  1.0000
  S   S188      1.0  0.73574  0.61130  0.28449  1.0000
  C   C715      1.0  0.54811  0.53901  0.29069  1.0000
  C   C716      1.0  0.68002  0.91067  0.49010  1.0000
  H   H859      1.0  0.52673  0.50321  0.32385  1.0000
  H   H860      1.0  0.49005  0.65158  0.11877  1.0000
  C   C717      1.0  0.54640  0.55746  0.26516  1.0000
  H   H861      1.0  0.62788  0.49893  0.24853  1.0000
  H   H862      1.0  0.54300  0.74031  0.46664  1.0000
  C   C718      1.0  0.70260  0.63125  0.01703  1.0000
  C   C719      1.0  0.72945  0.60817  0.02300  1.0000
  C   C720      1.0  0.49593  0.63006  0.21543  1.0000
  H   H863      1.0  0.62974  0.54162  0.48192  1.0000
  H   H864      1.0  0.64200  0.63175  0.00720  1.0000
  C   C721      1.0  0.62283  0.52171  0.47032  1.0000
  H   H865      1.0  0.70480  0.55642  0.00771  1.0000
  C   C722      1.0  0.60692  0.76899  0.49818  1.0000
  H   H866      1.0  0.70998  0.88599  0.48944  1.0000
  H   H867      1.0  0.60479  0.49989  0.14084  1.0000
  C   C723      1.0  0.49828  0.53379  0.26787  1.0000
  H   H868      1.0  0.49847  0.70887  0.22638  1.0000
  H   H869      1.0  0.73669  0.79842  0.42587  1.0000
  H   H870      1.0  0.67663  0.86221  0.49505  1.0000
  H   H871      1.0  0.59559  0.99239  0.31594  1.0000
  H   H872      1.0  0.67242  0.92457  0.50012  1.0000
  Fe  Fe95      1.0  0.55720  0.86698  0.69664  1.0000
  S   S189      1.0  0.59359  0.88463  0.73442  1.0000
  S   S190      1.0  0.53835  0.82542  0.67003  1.0000
  Fe  Fe96      1.0  0.54998  0.91652  0.70291  1.0000
  S   S191      1.0  0.58622  0.93789  0.74169  1.0000
  S   S192      1.0  0.52876  0.93939  0.68131  1.0000
  Fe  Fe97      1.0  0.60515  0.92116  0.69742  1.0000
  S   S193      1.0  0.64836  0.94463  0.68093  1.0000
  Fe  Fe98      1.0  0.57184  0.89996  0.77587  1.0000
  S   S194      1.0  0.57799  0.89543  0.84381  1.0000
  S   S195      1.0  0.57012  0.90241  0.65621  1.0000
  S   S196      1.0  0.53421  0.87958  0.74032  1.0000
  Fe  Fe99      1.0  0.67159  0.57490  0.89372  1.0000
  S   S197      1.0  0.65821  0.60170  0.92566  1.0000
  S   S198      1.0  0.71496  0.59605  0.87683  1.0000
  Fe  Fe100     1.0  0.61561  0.53033  0.89023  1.0000
  S   S199      1.0  0.59842  0.55398  0.92218  1.0000
  H   H873      1.0  0.65121  0.61577  0.73523  1.0000
  Fe  Fe101     1.0  0.62498  0.58674  0.88113  1.0000
  S   S200      1.0  0.61426  0.61728  0.85606  1.0000
  Fe  Fe102     1.0  0.63314  0.56728  0.96474  1.0000
  S   S201      1.0  0.64003  0.56254  0.84607  1.0000
  S   S202      1.0  0.64868  0.54107  0.93587  1.0000
  Fe  Fe103     1.0  0.50695  0.64356  0.66499  1.0000
  S   S203      1.0  0.52373  0.62638  0.61828  1.0000
  C   C724      1.0  0.53826  0.73954  0.54415  1.0000
  Fe  Fe104     1.0  0.55595  0.69730  0.66426  1.0000
  S   S204      1.0  0.57664  0.68351  0.61821  1.0000
  S   S205      1.0  0.57827  0.73907  0.68945  1.0000
  Fe  Fe105     1.0  0.53806  0.66494  0.58510  1.0000
  C   C725      1.0  0.61694  0.73013  0.78440  1.0000
  Fe  Fe106     1.0  0.56069  0.64650  0.65566  1.0000
  S   S206      1.0  0.58299  0.62377  0.67175  1.0000
  S   S207      1.0  0.51823  0.68075  0.62948  1.0000
  S   S208      1.0  0.54307  0.66169  0.70417  1.0000
  C   C726      1.0  0.68460  0.97097  0.55297  1.0000
  H   H874      1.0  0.72223  0.69249  0.66742  1.0000
  C   C727      1.0  0.60506  0.61826  0.80487  1.0000
  C   C728      1.0  0.59862  0.63815  0.79353  1.0000
  C   C729      1.0  0.59149  0.63984  0.75299  1.0000
  C   C730      1.0  0.59067  0.62155  0.72342  1.0000
  C   C731      1.0  0.59707  0.60160  0.73480  1.0000
  C   C732      1.0  0.60427  0.59996  0.77538  1.0000
  H   H875      1.0  0.59927  0.65242  0.81618  1.0000
  H   H876      1.0  0.58696  0.65548  0.74449  1.0000
  H   H877      1.0  0.59658  0.58747  0.71201  1.0000
  H   H878      1.0  0.60955  0.58480  0.78366  1.0000
  C   C733      1.0  0.53082  0.58822  0.77263  1.0000
  C   C734      1.0  0.70684  0.67578  0.68282  1.0000
  C   C735      1.0  0.64575  0.94905  0.59653  1.0000
  C   C736      1.0  0.54989  0.80181  0.67601  1.0000
  C   C737      1.0  0.57464  0.80844  0.69210  1.0000
  C   C738      1.0  0.58307  0.78901  0.69613  1.0000
  C   C739      1.0  0.56692  0.76286  0.68395  1.0000
  C   C740      1.0  0.54218  0.75626  0.66784  1.0000
  C   C741      1.0  0.53376  0.77567  0.66384  1.0000
  H   H879      1.0  0.58733  0.82854  0.70114  1.0000
  H   H880      1.0  0.60220  0.79425  0.70872  1.0000
  H   H881      1.0  0.52943  0.73617  0.65883  1.0000
  H   H882      1.0  0.51454  0.77037  0.65149  1.0000
  C   C742      1.0  0.66157  0.95486  0.63129  1.0000
  C   C743      1.0  0.68890  0.96889  0.62667  1.0000
  C   C744      1.0  0.70038  0.97696  0.58776  1.0000
  H   H883      1.0  0.54765  0.82599  0.75929  1.0000
  H   H884      1.0  0.68625  0.62439  0.83769  1.0000
  C   C745      1.0  0.54424  0.91649  0.95930  1.0000
  C   C746      1.0  0.53640  0.92003  0.92011  1.0000
  C   C747      1.0  0.54642  0.91364  0.88437  1.0000
  C   C748      1.0  0.56439  0.90357  0.88753  1.0000
  C   C749      1.0  0.57214  0.89994  0.92671  1.0000
  C   C750      1.0  0.56216  0.90637  0.96241  1.0000
  H   H885      1.0  0.52261  0.92793  0.91734  1.0000
  H   H886      1.0  0.54033  0.91661  0.85446  1.0000
  H   H887      1.0  0.58612  0.89227  0.92953  1.0000
  C   C751      1.0  0.61473  0.71534  0.81909  1.0000
  H   H888      1.0  0.70799  0.78860  0.90312  1.0000
  N   N51       1.0  0.56737  0.75309  0.54435  1.0000
  C   C752      1.0  0.69321  0.87829  0.51140  1.0000
  H   H889      1.0  0.56684  0.81583  0.88203  1.0000
  H   H890      1.0  0.69479  0.74587  0.92481  1.0000
  C   C753      1.0  0.64010  0.75284  0.77689  1.0000
  H   H891      1.0  0.69798  0.73207  0.83330  1.0000
  H   H892      1.0  0.53761  0.60831  0.78326  1.0000
  H   H893      1.0  0.69575  0.59367  0.79157  1.0000
  H   H894      1.0  0.55682  0.84001  0.86912  1.0000
  C   C754      1.0  0.64388  0.88721  0.62181  1.0000
  C   C755      1.0  0.63566  0.72317  0.84649  1.0000
  H   H895      1.0  0.59736  0.74654  0.57464  1.0000
  H   H896      1.0  0.70005  0.79651  0.85481  1.0000
  H   H897      1.0  0.61322  0.95477  0.85747  1.0000
  H   H898      1.0  0.58875  0.50660  0.50792  1.0000
  H   H899      1.0  0.57237  0.54030  0.78451  1.0000
  C   C756      1.0  0.66121  0.76079  0.80390  1.0000
  H   H900      1.0  0.72923  0.63477  0.81459  1.0000
  C   C757      1.0  0.61780  0.85855  0.56746  1.0000
  C   C758      1.0  0.70410  0.75254  0.84426  1.0000
  C   C759      1.0  0.53196  0.74839  0.77030  1.0000
  H   H901      1.0  0.71056  0.76548  0.81700  1.0000
  C   C760      1.0  0.55394  0.81982  0.86117  1.0000
  H   H902      1.0  0.71590  0.73156  0.50213  1.0000
  H   H903      1.0  0.59675  0.69748  0.82450  1.0000
  H   H904      1.0  0.58413  0.79059  0.85020  1.0000
  H   H905      1.0  0.60077  0.72388  0.76299  1.0000
  C   C761      1.0  0.51968  0.52276  0.84739  1.0000
  H   H906      1.0  0.53329  0.80582  0.86874  1.0000
  H   H907      1.0  0.59322  0.83400  0.77709  1.0000
  H   H908      1.0  0.64531  0.89482  0.65285  1.0000
  H   H909      1.0  0.66067  0.62050  0.80370  1.0000
  C   C762      1.0  0.66582  0.89752  0.59595  1.0000
  H   H910      1.0  0.72187  0.75870  0.86360  1.0000
  H   H911      1.0  0.52225  0.50834  0.86688  1.0000
  H   H912      1.0  0.54463  0.71910  0.78152  1.0000
  H   H913      1.0  0.56625  0.52273  0.83177  1.0000
  H   H914      1.0  0.51450  0.92600  0.56944  1.0000
  C   C763      1.0  0.69185  0.78237  0.88038  1.0000
  H   H915      1.0  0.52379  0.78041  0.76187  1.0000
  C   C764      1.0  0.69288  0.64295  0.73758  1.0000
  C   C765      1.0  0.57925  0.75714  0.50289  1.0000
  C   C766      1.0  0.68204  0.63225  0.80918  1.0000
  C   C767      1.0  0.68128  0.66520  0.66823  1.0000
  H   H916      1.0  0.56684  0.77688  0.59586  1.0000
  H   H917      1.0  0.72780  0.55523  0.97091  1.0000
  H   H918      1.0  0.67899  0.77822  0.79626  1.0000
  C   C768      1.0  0.67725  0.73861  0.90461  1.0000
  H   H919      1.0  0.67678  0.67367  0.64180  1.0000
  C   C769      1.0  0.50843  0.55443  0.72199  1.0000
  N   N52       1.0  0.55979  0.81758  0.81732  1.0000
  C   C770      1.0  0.54717  0.73860  0.78944  1.0000
  C   C771      1.0  0.56583  0.75402  0.81820  1.0000
  H   H920      1.0  0.54796  0.84696  0.80048  1.0000
  H   H921      1.0  0.58574  0.69172  0.50446  1.0000
  H   H922      1.0  0.64172  0.76410  0.74959  1.0000
  H   H923      1.0  0.62469  0.93823  0.59969  1.0000
  N   N53       1.0  0.69811  0.63099  0.77409  1.0000
  H   H924      1.0  0.66149  0.73968  0.92353  1.0000
  C   C772      1.0  0.49429  0.92706  0.68040  1.0000
  C   C773      1.0  0.69103  0.60302  0.76531  1.0000
  C   C774      1.0  0.56158  0.53661  0.81414  1.0000
  C   C775      1.0  0.53620  0.57071  0.79528  1.0000
  C   C776      1.0  0.65724  0.95717  0.55756  1.0000
  C   C777      1.0  0.72596  0.64421  0.78711  1.0000
  H   H925      1.0  0.72144  0.98781  0.58475  1.0000
  C   C778      1.0  0.58772  0.83597  0.80928  1.0000
  C   C779      1.0  0.57596  0.73686  0.56894  1.0000
  H   H926      1.0  0.68574  0.65281  0.81560  1.0000
  C   C780      1.0  0.71996  0.56814  0.98470  1.0000
  H   H927      1.0  0.59116  0.96005  0.91968  1.0000
  H   H928      1.0  0.56994  0.55535  0.83200  1.0000
  H   H929      1.0  0.63260  0.71064  0.87251  1.0000
  H   H930      1.0  0.70988  0.54331  0.89014  1.0000
  H   H931      1.0  0.67581  0.78523  0.89530  1.0000
  H   H932      1.0  0.51763  0.73635  0.74766  1.0000
  C   C781      1.0  0.52776  0.54434  0.78190  1.0000
  C   C782      1.0  0.61794  0.97437  0.86885  1.0000
  N   N54       1.0  0.68688  0.89941  0.52598  1.0000
  H   H933      1.0  0.59897  0.84387  0.55637  1.0000
  H   H934      1.0  0.67187  0.71771  0.89735  1.0000
  H   H935      1.0  0.69868  0.86941  0.53741  1.0000
  H   H936      1.0  0.57046  0.79195  0.54687  1.0000
  C   C783      1.0  0.66146  0.64365  0.68758  1.0000
  H   H937      1.0  0.63694  0.86096  0.51036  1.0000
  C   C784      1.0  0.57596  0.77895  0.56506  1.0000
  H   H938      1.0  0.59192  0.85682  0.81430  1.0000
  H   H939      1.0  0.64152  0.63550  0.67620  1.0000
  H   H940      1.0  0.68346  0.91305  0.60881  1.0000
  S   S209      1.0  0.52873  0.66821  0.51803  1.0000
  C   C785      1.0  0.61991  0.86788  0.60760  1.0000
  H   H941      1.0  0.60285  0.86044  0.62760  1.0000
  C   C786      1.0  0.53574  0.77390  0.77892  1.0000
  H   H942      1.0  0.56653  0.73254  0.59976  1.0000
  C   C787      1.0  0.55484  0.79031  0.80778  1.0000
  C   C788      1.0  0.65964  0.74625  0.83968  1.0000
  H   H943      1.0  0.52999  0.73638  0.57580  1.0000
  N   N55       1.0  0.68262  0.75463  0.86697  1.0000
  H   H944      1.0  0.70127  0.97356  0.65343  1.0000
  C   C789      1.0  0.49503  0.90997  0.57411  1.0000
  H   H945      1.0  0.64485  0.95252  0.53085  1.0000
  C   C790      1.0  0.72962  0.55604  0.87990  1.0000
  H   H946      1.0  0.57077  0.71770  0.55327  1.0000
  C   C791      1.0  0.54369  0.82638  0.79269  1.0000
  N   N56       1.0  0.53301  0.52596  0.80718  1.0000
  C   C792      1.0  0.73681  0.58220  0.87037  1.0000
  H   H947      1.0  0.53314  0.50043  0.75792  1.0000
  C   C793      1.0  0.71271  0.66497  0.71704  1.0000
  H   H948      1.0  0.70180  0.60108  0.73796  1.0000
  H   H949      1.0  0.57760  0.74631  0.83307  1.0000
  H   H950      1.0  0.72759  0.92846  0.52201  1.0000
  C   C794      1.0  0.66434  0.88847  0.55475  1.0000
  C   C795      1.0  0.60537  0.97725  0.90381  1.0000
  C   C796      1.0  0.66716  0.63257  0.72153  1.0000
  H   H951      1.0  0.59747  0.78930  0.57005  1.0000
  H   H952      1.0  0.73291  0.67422  0.72662  1.0000
  H   H953      1.0  0.71796  0.91324  0.57079  1.0000
  H   H954      1.0  0.60126  0.83280  0.82983  1.0000
  H   H955      1.0  0.70813  0.93753  0.55447  1.0000
  H   H956      1.0  0.56843  0.90359  0.99231  1.0000
  H   H957      1.0  0.50865  0.88947  0.61440  1.0000
  C   C797      1.0  0.63964  0.86855  0.54139  1.0000
  S   S210      1.0  0.69743  0.77845  0.99884  1.0000
  C   C798      1.0  0.56951  0.77942  0.82757  1.0000
  C   C799      1.0  0.71109  0.92049  0.54437  1.0000
  H   H958      1.0  0.51313  0.59388  0.71837  1.0000
  H   H959      1.0  0.52746  0.54146  0.86532  1.0000
  H   H960      1.0  0.66975  0.59094  0.75948  1.0000
  H   H961      1.0  0.54711  0.57808  0.82336  1.0000
  H   H962      1.0  0.50616  0.51706  0.73176  1.0000
  H   H963      1.0  0.52238  0.81416  0.79839  1.0000
  S   S211      1.0  0.69821  0.98016  0.50326  1.0000
  H   H964      1.0  0.49826  0.51572  0.84345  1.0000
  H   H965      1.0  0.49663  0.96173  0.65162  1.0000
  H   H966      1.0  0.61966  0.77470  0.52450  1.0000
  C   C800      1.0  0.51706  0.58014  0.73600  1.0000
  C   C801      1.0  0.51357  0.53665  0.74445  1.0000
  H   H967      1.0  0.73240  0.66516  0.79564  1.0000
  H   H968      1.0  0.67323  0.67556  0.98109  1.0000
  H   H969      1.0  0.71115  0.61222  0.96700  1.0000
  H   H970      1.0  0.70987  0.57261  0.95941  1.0000
  C   C802      1.0  0.49180  0.88934  0.59943  1.0000
  H   H971      1.0  0.53055  0.71965  0.52958  1.0000
  H   H972      1.0  0.53015  0.75114  0.52790  1.0000
  C   C803      1.0  0.52369  0.49942  0.78825  1.0000
  H   H973      1.0  0.73677  0.89771  0.67194  1.0000
  H   H974      1.0  0.49766  0.54829  0.69346  1.0000
  H   H975      1.0  0.69058  0.63701  0.99855  1.0000
  C   C804      1.0  0.71431  0.61682  0.99935  1.0000
  H   H976      1.0  0.79438  0.02252  0.19980  1.0000
  C   C805      1.0  0.92886  0.26310  0.14144  1.0000
  H   H977      1.0  0.82528  0.01789  0.01162  1.0000
  S   S212      1.0  0.81373  0.01815  0.45431  1.0000
  H   H978      1.0  0.91722  0.30303  0.48103  1.0000
  H   H979      1.0  0.91022  0.30933  0.04207  1.0000
  S   S213      1.0  0.76242  0.02898  0.44700  1.0000
  Fe  Fe107     1.0  0.77596  0.07307  0.04065  1.0000
  Fe  Fe108     1.0  0.79156  0.06071  0.12440  1.0000
  S   S214      1.0  0.81808  0.04541  0.09628  1.0000
  S   S215      1.0  0.78154  0.06607  0.19077  1.0000
  Fe  Fe109     1.0  0.83150  0.08031  0.05387  1.0000
  H   H980      1.0  0.86241  0.12175  0.30346  1.0000
  Fe  Fe110     1.0  0.78599  0.02481  0.05001  1.0000
  S   S216      1.0  0.80760  0.09716  0.08559  1.0000
  S   S217      1.0  0.75848  0.03769  0.08120  1.0000
  H   H981      1.0  0.93955  0.35348  0.02039  1.0000
  H   H982      1.0  0.90860  0.25140  0.14995  1.0000
  H   H983      1.0  0.88493  0.16925  0.31021  1.0000
  Fe  Fe111     1.0  0.83985  0.31130  0.31707  1.0000
  S   S218      1.0  0.85839  0.29155  0.27862  1.0000
  S   S219      1.0  0.79906  0.29027  0.34570  1.0000
  Fe  Fe112     1.0  0.88738  0.36541  0.30951  1.0000
  S   S220      1.0  0.90937  0.34909  0.27047  1.0000
  S   S221      1.0  0.91101  0.40955  0.32189  1.0000
  Fe  Fe113     1.0  0.87161  0.32650  0.23703  1.0000
  S   S222      1.0  0.86792  0.31755  0.16822  1.0000
  Fe  Fe114     1.0  0.89487  0.31565  0.31504  1.0000
  S   S223      1.0  0.92164  0.29737  0.33036  1.0000
  S   S224      1.0  0.85024  0.34478  0.27284  1.0000
  S   S225      1.0  0.87567  0.33347  0.35662  1.0000
  C   C806      1.0  0.90021  0.43287  0.33746  1.0000
  C   C807      1.0  0.87389  0.42569  0.34585  1.0000
  C   C808      1.0  0.86624  0.44499  0.35766  1.0000
  C   C809      1.0  0.88475  0.47163  0.36114  1.0000
  C   C810      1.0  0.91107  0.47882  0.35278  1.0000
  C   C811      1.0  0.91871  0.45952  0.34095  1.0000
  H   H984      1.0  0.85944  0.40528  0.34332  1.0000
  H   H985      1.0  0.84581  0.43923  0.36391  1.0000
  H   H986      1.0  0.82232  0.08083  0.41932  1.0000
  H   H987      1.0  0.93911  0.46529  0.33439  1.0000
  C   C812      1.0  0.93744  0.28082  0.46248  1.0000
  C   C813      1.0  0.92390  0.29552  0.45531  1.0000
  C   C814      1.0  0.91867  0.30044  0.41513  1.0000
  C   C815      1.0  0.92725  0.29099  0.38151  1.0000
  C   C816      1.0  0.94104  0.27647  0.38862  1.0000
  C   C817      1.0  0.94598  0.27125  0.42890  1.0000
  H   H988      1.0  0.85303  0.01570  0.03239  1.0000
  H   H989      1.0  0.90810  0.31167  0.41018  1.0000
  H   H990      1.0  0.94776  0.26907  0.36283  1.0000
  H   H991      1.0  0.86313  0.43907  0.25809  1.0000
  C   C818      1.0  0.90399  0.37103  0.05670  1.0000
  C   C819      1.0  0.91221  0.38081  0.09662  1.0000
  C   C820      1.0  0.90124  0.36484  0.13117  1.0000
  C   C821      1.0  0.88201  0.33882  0.12606  1.0000
  C   C822      1.0  0.87411  0.32893  0.08614  1.0000
  C   C823      1.0  0.88494  0.34494  0.05163  1.0000
  H   H992      1.0  0.92719  0.40087  0.10076  1.0000
  H   H993      1.0  0.90778  0.37253  0.16165  1.0000
  H   H994      1.0  0.85934  0.30878  0.08187  1.0000
  H   H995      1.0  0.75290  0.25668  0.39099  1.0000
  H   H996      1.0  0.79447  0.99712  0.26080  1.0000
  S   S226      1.0  0.74893  0.08930  0.01775  1.0000
  H   H997      1.0  0.83066  0.07943  0.30663  1.0000
  C   C824      1.0  0.88016  0.48044  0.26219  1.0000
  C   C825      1.0  0.88470  0.15361  0.03692  1.0000
  N   N57       1.0  0.84739  0.08466  0.36725  1.0000
  C   C826      1.0  0.88745  0.16950  0.37580  1.0000
  Fe  Fe115     1.0  0.77811  0.00442  0.41420  1.0000
  C   C827      1.0  0.93741  0.29392  0.02968  1.0000
  C   C828      1.0  0.76913  0.21192  0.31865  1.0000
  C   C829      1.0  0.86221  0.07347  0.38996  1.0000
  C   C830      1.0  0.78180  0.01835  0.30305  1.0000
  C   C831      1.0  0.77452  0.03850  0.30697  1.0000
  C   C832      1.0  0.77462  0.05300  0.27229  1.0000
  C   C833      1.0  0.78183  0.04738  0.23342  1.0000
  C   C834      1.0  0.78884  0.02708  0.22950  1.0000
  H   H998      1.0  0.77369  0.19955  0.29816  1.0000
  H   H999      1.0  0.76881  0.04290  0.33662  1.0000
  H   H1000     1.0  0.76905  0.06861  0.27555  1.0000
  Fe  Fe116     1.0  0.79657  0.04040  0.48991  1.0000
  H   H1001     1.0  0.88282  0.08179  0.37890  1.0000
  H   H1002     1.0  0.86274  0.08059  0.30839  1.0000
  C   C835      1.0  0.78563  0.23925  0.31955  1.0000
  C   C836      1.0  0.77979  0.25559  0.34538  1.0000
  C   C837      1.0  0.74673  0.20058  0.34373  1.0000
  C   C838      1.0  0.91954  0.48206  0.20980  1.0000
  H   H1003     1.0  0.95635  0.25983  0.43388  1.0000
  H   H1004     1.0  0.80270  0.24769  0.29988  1.0000
  S   S227      1.0  0.91845  0.39204  0.01436  1.0000
  C   C839      1.0  0.88145  0.15430  0.41096  1.0000
  N   N58       1.0  0.89900  0.43271  0.20460  1.0000
  C   C840      1.0  0.89626  0.43171  0.15938  1.0000
  C   C841      1.0  0.92403  0.43253  0.21507  1.0000
  C   C842      1.0  0.87733  0.40828  0.22114  1.0000
  C   C843      1.0  0.89911  0.45709  0.22081  1.0000
  C   C844      1.0  0.74117  0.21683  0.37024  1.0000
  H   H1005     1.0  0.97350  0.25563  0.08064  1.0000
  H   H1006     1.0  0.80976  0.05350  0.38443  1.0000
  C   C845      1.0  0.93564  0.17165  0.00535  1.0000
  H   H1007     1.0  0.89388  0.19468  0.03956  1.0000
  H   H1008     1.0  0.91305  0.44815  0.14414  1.0000
  H   H1009     1.0  0.89513  0.41317  0.14613  1.0000
  H   H1010     1.0  0.87813  0.43276  0.15032  1.0000
  H   H1011     1.0  0.92825  0.43645  0.24839  1.0000
  H   H1012     1.0  0.94106  0.44757  0.19822  1.0000
  H   H1013     1.0  0.92359  0.41325  0.20793  1.0000
  H   H1014     1.0  0.87837  0.40766  0.25513  1.0000
  H   H1015     1.0  0.85780  0.40628  0.21259  1.0000
  H   H1016     1.0  0.87809  0.39031  0.20913  1.0000
  C   C846      1.0  0.84705  0.02771  0.01270  1.0000
  H   H1017     1.0  0.74790  0.07832  0.13984  1.0000
  H   H1018     1.0  0.86267  0.07728  0.42352  1.0000
  H   H1019     1.0  0.89746  0.19078  0.37833  1.0000
  H   H1020     1.0  0.90371  0.26738  0.21392  1.0000
  N   N59       1.0  0.93379  0.30222  0.18573  1.0000
  C   C847      1.0  0.94964  0.30999  0.22378  1.0000
  C   C848      1.0  0.93509  0.32610  0.16640  1.0000
  C   C849      1.0  0.90613  0.28544  0.19802  1.0000
  C   C850      1.0  0.94424  0.28907  0.15685  1.0000
  H   H1021     1.0  0.80957  0.08372  0.37079  1.0000
  C   C851      1.0  0.98099  0.29050  0.11569  1.0000
  C   C852      1.0  0.86130  0.11376  0.36938  1.0000
  C   C853      1.0  0.86580  0.46412  0.48309  1.0000
  H   H1022     1.0  0.92756  0.23154  0.10264  1.0000
  H   H1023     1.0  0.83413  0.05199  0.32433  1.0000
  H   H1024     1.0  0.94178  0.31917  0.24681  1.0000
  H   H1025     1.0  0.94961  0.29260  0.23876  1.0000
  C   C854      1.0  0.82115  0.07530  0.38629  1.0000
  H   H1026     1.0  0.92637  0.33595  0.18652  1.0000
  C   C855      1.0  0.86746  0.12985  0.33406  1.0000
  C   C856      1.0  0.97059  0.30246  0.14286  1.0000
  H   H1027     1.0  0.89907  0.29592  0.21991  1.0000
  H   H1028     1.0  0.75640  0.12429  0.26108  1.0000
  H   H1029     1.0  0.87850  0.33712  0.02113  1.0000
  C   C857      1.0  0.88040  0.15730  0.33747  1.0000
  H   H1030     1.0  0.89264  0.27994  0.17132  1.0000
  C   C858      1.0  0.87927  0.45698  0.24741  1.0000
  C   C859      1.0  0.89378  0.13539  0.02654  1.0000
  C   C860      1.0  0.90105  0.18072  0.03145  1.0000
  C   C861      1.0  0.75746  0.24421  0.37069  1.0000
  C   C862      1.0  0.86842  0.12689  0.40790  1.0000
  H   H1031     1.0  0.85319  0.05167  0.38641  1.0000
  H   H1032     1.0  0.86514  0.14683  0.04922  1.0000
  H   H1033     1.0  0.97035  0.32452  0.21824  1.0000
  Fe  Fe117     1.0  0.74143  0.99428  0.48844  1.0000
  C   C863      1.0  0.93948  0.25136  0.11424  1.0000
  H   H1034     1.0  0.86378  0.11603  0.43608  1.0000
  H   H1035     1.0  0.88683  0.16378  0.44085  1.0000
  H   H1036     1.0  0.95549  0.34097  0.15968  1.0000
  C   C864      1.0  0.84369  0.07390  0.32473  1.0000
  H   H1037     1.0  0.93518  0.48372  0.18949  1.0000
  S   S228      1.0  0.87404  0.10101  0.03216  1.0000
  H   H1038     1.0  0.98344  0.32230  0.15289  1.0000
  H   H1039     1.0  0.86652  0.46544  0.44901  1.0000
  C   C865      1.0  0.92651  0.18986  0.01540  1.0000
  C   C866      1.0  0.78882  0.01268  0.26415  1.0000
  H   H1040     1.0  0.85314  0.04690  0.02856  1.0000
  H   H1041     1.0  0.86512  0.47994  0.28312  1.0000
  H   H1042     1.0  0.75271  0.10313  0.19487  1.0000
  C   C867      1.0  0.96547  0.26495  0.10163  1.0000
  H   H1043     1.0  0.92397  0.32107  0.13708  1.0000
  S   S229      1.0  0.94595  0.22404  0.00744  1.0000
  S   S230      1.0  0.78340  0.00019  0.34559  1.0000
  H   H1044     1.0  0.96820  0.28396  0.01412  1.0000
  C   C868      1.0  0.96234  0.29949  0.01559  1.0000
  S   S231      1.0  0.80088  0.05864  0.00596  1.0000
  H   H1045     1.0  0.84560  0.44910  0.49091  1.0000
  H   H1046     1.0  0.97569  0.39408  0.02625  1.0000
  C   C869      1.0  0.92973  0.31374  0.03138  1.0000
  C   C870      1.0  0.94693  0.33922  0.01882  1.0000
  C   C871      1.0  0.91934  0.14458  0.01089  1.0000
  H   H1047     1.0  0.92403  0.27411  0.03905  1.0000
  H   H1048     1.0  0.88002  0.45682  0.49158  1.0000
  C   C872      1.0  0.97973  0.32490  0.00322  1.0000
  C   C873      1.0  0.97259  0.34560  0.00437  1.0000
  H   H1049     1.0  0.92662  0.13069  0.00300  1.0000
  H   H1050     1.0  0.83307  0.48548  0.49957  1.0000
  H   H1051     1.0  0.77154  0.12521  0.50010  1.0000
  C   C874      1.0  0.75180  0.10917  0.50071  1.0000
  C   C875      1.0  0.74786  0.08329  0.50061  1.0000
  H   H1052     1.0  0.76463  0.07933  0.50006  1.0000
  H   H1053     1.0  0.77806  0.26994  0.64809  1.0000
  C   C876      1.0  0.97735  0.47396  0.74842  1.0000
  H   H1054     1.0  0.80512  0.23479  0.90973  1.0000
  C   C877      1.0  0.75963  0.09905  0.89418  1.0000
  H   H1055     1.0  0.86274  0.49100  0.91851  1.0000
  Fe  Fe118     1.0  0.88745  0.34373  0.87396  1.0000
  S   S232      1.0  0.92351  0.35547  0.91257  1.0000
  S   S233      1.0  0.86504  0.30102  0.85260  1.0000
  Fe  Fe119     1.0  0.89700  0.40044  0.86573  1.0000
  S   S234      1.0  0.93349  0.41637  0.90377  1.0000
  S   S235      1.0  0.87902  0.42298  0.83235  1.0000
  Fe  Fe120     1.0  0.94380  0.38846  0.86797  1.0000
  N   N60       1.0  0.87231  0.48993  0.50288  1.0000
  Fe  Fe121     1.0  0.91076  0.38230  0.94595  1.0000
  S   S236      1.0  0.90885  0.37473  0.82677  1.0000
  S   S237      1.0  0.87309  0.36836  0.91042  1.0000
  H   H1056     1.0  0.78522  0.22387  0.72048  1.0000
  Fe  Fe122     1.0  0.96004  0.19735  0.54882  1.0000
  S   S238      1.0  0.93908  0.21743  0.58000  1.0000
  H   H1057     1.0  0.80671  0.20394  0.85616  1.0000
  H   H1058     1.0  0.80936  0.99409  0.94889  1.0000
  C   C878      1.0  0.90909  0.47368  0.86244  1.0000
  C   C879      1.0  0.88853  0.45704  0.83703  1.0000
  C   C880      1.0  0.87480  0.46761  0.81475  1.0000
  H   H1059     1.0  0.91983  0.46580  0.87971  1.0000
  H   H1060     1.0  0.85891  0.45486  0.79497  1.0000
  H   H1061     1.0  0.96430  0.39736  0.77059  1.0000
  C   C881      1.0  0.86960  0.48897  0.63527  1.0000
  H   H1062     1.0  0.75733  0.16890  0.93689  1.0000
  C   C882      1.0  0.77875  0.23120  0.69367  1.0000
  C   C883      1.0  0.77543  0.25253  0.84720  1.0000
  C   C884      1.0  0.78676  0.27722  0.86691  1.0000
  C   C885      1.0  0.81418  0.29245  0.86857  1.0000
  C   C886      1.0  0.83049  0.28301  0.85067  1.0000
  C   C887      1.0  0.81915  0.25837  0.83076  1.0000
  C   C888      1.0  0.79175  0.24327  0.82877  1.0000
  H   H1063     1.0  0.77428  0.28457  0.88115  1.0000
  H   H1064     1.0  0.82267  0.31140  0.88393  1.0000
  H   H1065     1.0  0.83166  0.25105  0.81654  1.0000
  H   H1066     1.0  0.78333  0.22443  0.81323  1.0000
  H   H1067     1.0  0.98193  0.29194  0.73290  1.0000
  C   C889      1.0  0.98541  0.40648  0.76772  1.0000
  H   H1068     1.0  0.89757  0.21600  0.95305  1.0000
  C   C890      1.0  0.79270  0.18782  0.87577  1.0000
  Fe  Fe123     1.0  0.97354  0.23472  0.62292  1.0000
  H   H1069     1.0  0.98470  0.30368  0.78447  1.0000
  N   N61       1.0  0.79753  0.19445  0.91994  1.0000
  H   H1070     1.0  0.88825  0.24704  0.91249  1.0000
  C   C891      1.0  0.90506  0.15852  0.79747  1.0000
  N   N62       1.0  0.91041  0.15292  0.66577  1.0000
  C   C892      1.0  0.89757  0.16761  0.64756  1.0000
  C   C893      1.0  0.93764  0.16421  0.64972  1.0000
  C   C894      1.0  0.89672  0.12516  0.65124  1.0000
  C   C895      1.0  0.90906  0.15453  0.71103  1.0000
  C   C896      1.0  0.88460  0.14181  0.73170  1.0000
  H   H1071     1.0  0.86381  0.13391  0.78937  1.0000
  H   H1072     1.0  0.90881  0.09869  0.51588  1.0000
  H   H1073     1.0  0.96933  0.33395  0.76294  1.0000
  H   H1074     1.0  0.87245  0.45498  0.93223  1.0000
  H   H1075     1.0  0.87661  0.15944  0.65656  1.0000
  H   H1076     1.0  0.90746  0.18867  0.65748  1.0000
  H   H1077     1.0  0.89817  0.16699  0.61345  1.0000
  H   H1078     1.0  0.94850  0.18571  0.65561  1.0000
  C   C897      1.0  0.86889  0.99402  0.94703  1.0000
  H   H1079     1.0  0.94869  0.15454  0.66319  1.0000
  H   H1080     1.0  0.87522  0.11604  0.65628  1.0000
  H   H1081     1.0  0.89926  0.12347  0.61752  1.0000
  H   H1082     1.0  0.90444  0.11295  0.66672  1.0000
  H   H1083     1.0  0.86664  0.13070  0.71498  1.0000
  C   C898      1.0  0.86486  0.46576  0.57069  1.0000
  C   C899      1.0  0.74650  0.09629  0.96576  1.0000
  C   C900      1.0  0.85690  0.18828  0.96002  1.0000
  C   C901      1.0  0.86393  0.46583  0.61359  1.0000
  Fe  Fe124     1.0  0.96231  0.25108  0.53804  1.0000
  S   S239      1.0  0.94386  0.27587  0.51392  1.0000
  C   C902      1.0  0.82480  0.20016  0.92961  1.0000
  C   C903      1.0  0.79023  0.27414  0.72779  1.0000
  C   C904      1.0  0.78411  0.29360  0.74507  1.0000
  C   C905      1.0  0.81657  0.27847  0.73171  1.0000
  C   C906      1.0  0.80292  0.31555  0.76596  1.0000
  C   C907      1.0  0.83526  0.30060  0.75240  1.0000
  C   C908      1.0  0.82842  0.31899  0.76972  1.0000
  H   H1084     1.0  0.78547  0.43453  0.87550  1.0000
  H   H1085     1.0  0.77777  0.15326  0.93512  1.0000
  N   N63       1.0  0.81584  0.48778  0.88587  1.0000
  H   H1086     1.0  0.90356  0.16019  0.83043  1.0000
  H   H1087     1.0  0.76462  0.29186  0.74303  1.0000
  H   H1088     1.0  0.84833  0.13836  0.52660  1.0000
  H   H1089     1.0  0.79766  0.32979  0.77989  1.0000
  H   H1090     1.0  0.86865  0.48894  0.66848  1.0000
  H   H1091     1.0  0.84284  0.33565  0.78682  1.0000
  H   H1092     1.0  0.98526  0.41052  0.70214  1.0000
  C   C909      1.0  0.89562  0.10739  0.51833  1.0000
  S   S240      1.0  0.94006  0.15371  0.53237  1.0000
  C   C910      1.0  0.76179  0.09272  0.93507  1.0000
  H   H1093     1.0  0.79474  0.16983  0.86781  1.0000
  C   C911      1.0  0.83094  0.18253  0.95200  1.0000
  C   C912      1.0  0.84934  0.04620  0.94594  1.0000
  C   C913      1.0  0.86147  0.12958  0.52461  1.0000
  C   C914      1.0  0.93141  0.16976  0.73561  1.0000
  C   C915      1.0  0.84632  0.22334  0.91487  1.0000
  H   H1094     1.0  0.97975  0.45627  0.74809  1.0000
  H   H1095     1.0  0.95328  0.23587  0.77684  1.0000
  H   H1096     1.0  0.77256  0.18392  0.86678  1.0000
  C   C916      1.0  0.88273  0.14371  0.77429  1.0000
  C   C917      1.0  0.87219  0.22902  0.92359  1.0000
  S   S241      1.0  0.77427  0.00738  0.53373  1.0000
  C   C918      1.0  0.77758  0.17208  0.94344  1.0000
  H   H1097     1.0  0.77547  0.46622  0.90548  1.0000
  C   C919      1.0  0.74676  0.23719  0.73376  1.0000
  C   C920      1.0  0.88860  0.14556  0.52932  1.0000
  H   H1098     1.0  0.79041  0.46776  0.83457  1.0000
  H   H1099     1.0  0.86108  0.17449  0.97698  1.0000
  H   H1100     1.0  0.77251  0.21351  0.92376  1.0000
  C   C921      1.0  0.81098  0.41944  0.89554  1.0000
  N   N64       1.0  0.76979  0.25082  0.70648  1.0000
  H   H1101     1.0  0.75241  0.27249  0.67666  1.0000
  H   H1102     1.0  0.89620  0.16645  0.53480  1.0000
  S   S242      1.0  0.73967  0.17610  0.77597  1.0000
  C   C922      1.0  0.79333  0.48497  0.91169  1.0000
  H   H1103     1.0  0.74615  0.24205  0.65207  1.0000
  C   C923      1.0  0.76125  0.25924  0.66923  1.0000
  H   H1104     1.0  0.79491  0.23938  0.67075  1.0000
  S   S243      1.0  0.74091  0.23370  0.84690  1.0000
  H   H1105     1.0  0.77527  0.08511  0.94285  1.0000
  C   C924      1.0  0.80465  0.43983  0.88784  1.0000
  C   C925      1.0  0.82283  0.46653  0.89532  1.0000
  S   S244      1.0  0.74076  0.11737  0.83207  1.0000
  H   H1106     1.0  0.88941  0.00493  0.95432  1.0000
  H   H1107     1.0  0.86011  0.44714  0.55588  1.0000
  H   H1108     1.0  0.95074  0.18097  0.72272  1.0000
  H   H1109     1.0  0.85864  0.44779  0.63017  1.0000
  C   C926      1.0  0.87748  0.21158  0.94628  1.0000
  H   H1110     1.0  0.93811  0.16181  0.61592  1.0000
  H   H1111     1.0  0.82433  0.48700  0.82167  1.0000
  C   C927      1.0  0.83535  0.42496  0.91155  1.0000
  C   C928      1.0  0.92931  0.17155  0.77815  1.0000
  H   H1112     1.0  0.96345  0.38612  0.97454  1.0000
  C   C929      1.0  0.97381  0.24100  0.77328  1.0000
  N   N65       1.0  0.85887  0.03101  0.97133  1.0000
  H   H1113     1.0  0.85603  0.06655  0.95825  1.0000
  H   H1114     1.0  0.84344  0.23728  0.89623  1.0000
  H   H1115     1.0  0.79711  0.39925  0.88857  1.0000
  C   C930      1.0  0.98126  0.33821  0.73431  1.0000
  H   H1116     1.0  0.76276  0.21360  0.67874  1.0000
  H   H1117     1.0  0.85502  0.30314  0.75641  1.0000
  H   H1118     1.0  0.96847  0.32530  0.70946  1.0000
  H   H1119     1.0  0.94662  0.18351  0.79614  1.0000
  H   H1120     1.0  0.81610  0.16408  0.96363  1.0000
  H   H1121     1.0  0.89281  0.06716  0.98813  1.0000
  C   C931      1.0  0.87164  0.48916  0.54824  1.0000
  S   S245      1.0  0.96356  0.23620  0.69066  1.0000
  C   C932      1.0  0.90582  0.13452  0.52620  1.0000
  C   C933      1.0  0.85335  0.45082  0.92038  1.0000
  C   C934      1.0  0.98427  0.24223  0.73372  1.0000
  H   H1122     1.0  0.82764  0.03735  0.94524  1.0000
  C   C935      1.0  0.79319  0.21768  0.92927  1.0000
  H   H1123     1.0  0.85649  0.04770  0.91381  1.0000
  H   H1124     1.0  0.84056  0.40922  0.91642  1.0000
  C   C936      1.0  0.84742  0.47143  0.91223  1.0000
  H   H1125     1.0  0.82321  0.26486  0.71982  1.0000
  H   H1126     1.0  0.77155  0.09624  0.87064  1.0000
  H   H1127     1.0  0.79801  0.22414  0.96176  1.0000
  H   H1128     1.0  0.89786  0.04974  0.94572  1.0000
  C   C937      1.0  0.80832  0.48611  0.84213  1.0000
  C   C938      1.0  0.85102  0.00465  0.95300  1.0000
  C   C939      1.0  0.74238  0.10918  0.88367  1.0000
  C   C940      1.0  0.88766  0.04710  0.97575  1.0000
  H   H1129     1.0  0.98679  0.32491  0.51243  1.0000
  H   H1130     1.0  0.79796  0.48554  0.94484  1.0000
  C   C941      1.0  0.95468  0.47253  0.76699  1.0000
  H   H1131     1.0  0.94041  0.45431  0.78068  1.0000
  H   H1132     1.0  0.95522  0.17841  0.99314  1.0000
  H   H1133     1.0  0.75267  0.23188  0.76304  1.0000
  H   H1134     1.0  0.78068  0.17536  0.97708  1.0000
  H   H1135     1.0  0.98142  0.24559  0.83858  1.0000
  C   C942      1.0  0.85128  0.10249  0.51652  1.0000
  C   C943      1.0  0.86848  0.09142  0.51346  1.0000
  S   S246      1.0  0.81717  0.08359  0.50869  1.0000
  C   C944      1.0  0.98102  0.39177  0.99408  1.0000
  H   H1136     1.0  0.98647  0.35884  0.72641  1.0000
  S   S247      1.0  0.98132  0.23000  0.50365  1.0000
  H   H1137     1.0  0.98067  0.36253  0.92738  1.0000
  H   H1138     1.0  0.86090  0.07059  0.50729  1.0000
  S   S248      1.0  0.98652  0.40025  0.85175  1.0000
  H   H1139     1.0  0.89594  0.03833  0.99792  1.0000
  C   C945      1.0  0.94086  0.71211  0.45255  1.0000
  H   H1140     1.0  0.83311  0.85849  0.12130  1.0000
  H   H1141     1.0  0.83938  0.87003  0.01005  1.0000
  Fe  Fe125     1.0  0.89764  0.53946  0.38439  1.0000
  S   S249      1.0  0.93639  0.56050  0.41639  1.0000
  H   H1142     1.0  0.81922  0.83376  0.08117  1.0000
  Fe  Fe126     1.0  0.89151  0.58935  0.37713  1.0000
  S   S250      1.0  0.92990  0.61397  0.40850  1.0000
  S   S251      1.0  0.86988  0.61119  0.35336  1.0000
  Fe  Fe127     1.0  0.94596  0.59217  0.36941  1.0000
  C   C946      1.0  0.98724  0.69224  0.23199  1.0000
  Fe  Fe128     1.0  0.91763  0.58101  0.45323  1.0000
  S   S252      1.0  0.90842  0.56963  0.33441  1.0000
  S   S253      1.0  0.87802  0.55783  0.42482  1.0000
  H   H1143     1.0  0.93718  0.65464  0.34188  1.0000
  Fe  Fe129     1.0  0.96142  0.80227  0.03076  1.0000
  S   S254      1.0  0.94318  0.76609  0.06907  1.0000
  C   C947      1.0  0.77987  0.95865  0.02129  1.0000
  C   C948      1.0  0.93061  0.66179  0.47706  1.0000
  C   C949      1.0  0.81668  0.71779  0.47134  1.0000
  S   S255      1.0  0.81086  0.89768  0.00268  1.0000
  H   H1144     1.0  0.89630  0.78028  0.04305  1.0000
  H   H1145     1.0  0.74360  0.60973  0.08602  1.0000
  C   C950      1.0  0.86940  0.89523  0.07362  1.0000
  C   C951      1.0  0.74898  0.70313  0.46828  1.0000
  H   H1146     1.0  0.95625  0.81878  0.44716  1.0000
  C   C952      1.0  0.80322  0.96225  0.03960  1.0000
  H   H1147     1.0  0.96057  0.77773  0.26460  1.0000
  C   C953      1.0  0.88867  0.79041  0.02387  1.0000
  N   N66       1.0  0.79312  0.65001  0.42045  1.0000
  H   H1148     1.0  0.90934  0.69264  0.40979  1.0000
  H   H1149     1.0  0.74189  0.57145  0.05779  1.0000
  C   C954      1.0  0.79774  0.92013  0.01110  1.0000
  C   C955      1.0  0.80798  0.67853  0.42963  1.0000
  C   C956      1.0  0.96700  0.72092  0.33157  1.0000
  C   C957      1.0  0.83519  0.59655  0.35397  1.0000
  C   C958      1.0  0.82232  0.60759  0.33066  1.0000
  C   C959      1.0  0.79481  0.59710  0.33193  1.0000
  C   C960      1.0  0.77998  0.57576  0.35721  1.0000
  C   C961      1.0  0.79287  0.56466  0.38027  1.0000
  C   C962      1.0  0.82030  0.57487  0.37851  1.0000
  H   H1150     1.0  0.83366  0.62427  0.31140  1.0000
  H   H1151     1.0  0.78515  0.60565  0.31363  1.0000
  H   H1152     1.0  0.78158  0.54814  0.39987  1.0000
  H   H1153     1.0  0.82993  0.56621  0.39665  1.0000
  H   H1154     1.0  0.86004  0.73411  0.39265  1.0000
  C   C963      1.0  0.82934  0.69495  0.40428  1.0000
  H   H1155     1.0  0.96164  0.61110  0.27038  1.0000
  C   C964      1.0  0.75514  0.58367  0.03292  1.0000
  C   C965      1.0  0.94718  0.69508  0.33121  1.0000
  Fe  Fe130     1.0  0.97873  0.78601  0.10957  1.0000
  H   H1156     1.0  0.82171  0.64199  0.45096  1.0000
  H   H1157     1.0  0.78597  0.68023  0.48431  1.0000
  H   H1158     1.0  0.84840  0.76599  0.04130  1.0000
  H   H1159     1.0  0.76892  0.65629  0.37649  1.0000
  C   C966      1.0  0.95276  0.67474  0.34191  1.0000
  C   C967      1.0  0.75989  0.71907  0.43415  1.0000
  H   H1160     1.0  0.92043  0.82539  0.11210  1.0000
  C   C968      1.0  0.78126  0.64601  0.37912  1.0000
  H   H1161     1.0  0.90044  0.50883  0.45463  1.0000
  H   H1162     1.0  0.92308  0.83520  0.44451  1.0000
  C   C969      1.0  0.90078  0.50454  0.25152  1.0000
  H   H1163     1.0  0.84087  0.83975  0.01552  1.0000
  H   H1164     1.0  0.80037  0.61616  0.41719  1.0000
  C   C970      1.0  0.80204  0.69083  0.46353  1.0000
  H   H1165     1.0  0.76851  0.62480  0.37220  1.0000
  H   H1166     1.0  0.85232  0.49846  0.45404  1.0000
  H   H1167     1.0  0.83064  0.94654  0.04754  1.0000
  S   S256      1.0  0.96945  0.78038  0.17797  1.0000
  C   C971      1.0  0.93900  0.81007  0.46639  1.0000
  H   H1168     1.0  0.92550  0.49924  0.35504  1.0000
  H   H1169     1.0  0.85620  0.90393  0.06542  1.0000
  H   H1170     1.0  0.83488  0.68702  0.37782  1.0000
  H   H1171     1.0  0.90738  0.88061  0.04225  1.0000
  H   H1172     1.0  0.93646  0.52422  0.21710  1.0000
  S   S257      1.0  0.87486  0.82118  0.48748  1.0000
  C   C972      1.0  0.92004  0.81918  0.46463  1.0000
  C   C973      1.0  0.85158  0.86120  0.02191  1.0000
  H   H1173     1.0  0.92737  0.69078  0.32289  1.0000
  H   H1174     1.0  0.86986  0.86925  0.00336  1.0000
  C   C974      1.0  0.85315  0.49858  0.48816  1.0000
  C   C975      1.0  0.91643  0.85458  0.07638  1.0000
  H   H1175     1.0  0.81852  0.86441  0.07692  1.0000
  H   H1176     1.0  0.88735  0.90571  0.05477  1.0000
  H   H1177     1.0  0.90162  0.52258  0.26405  1.0000
  C   C976      1.0  0.98253  0.61993  0.26479  1.0000
  C   C977      1.0  0.93549  0.78974  0.49295  1.0000
  S   S258      1.0  0.79861  0.79114  0.48812  1.0000
  H   H1178     1.0  0.84594  0.82441  0.12031  1.0000
  C   C978      1.0  0.98139  0.78492  0.25985  1.0000
  S   S259      1.0  0.77653  0.82227  0.01855  1.0000
  H   H1179     1.0  0.79617  0.65340  0.35429  1.0000
  C   C979      1.0  0.81111  0.63791  0.42128  1.0000
  C   C980      1.0  0.77158  0.63553  0.45001  1.0000
  C   C981      1.0  0.75357  0.70832  0.39427  1.0000
  H   H1180     1.0  0.74255  0.86898  0.48988  1.0000
  H   H1181     1.0  0.77320  0.73970  0.43844  1.0000
  S   S260      1.0  0.75430  0.96841  0.45200  1.0000
  N   N67       1.0  0.85662  0.86638  0.06634  1.0000
  H   H1182     1.0  0.96604  0.68002  0.22530  1.0000
  H   H1183     1.0  0.97915  0.62412  0.19977  1.0000
  C   C982      1.0  0.83082  0.85521  0.08757  1.0000
  C   C983      1.0  0.87389  0.85513  0.07999  1.0000
  C   C984      1.0  0.86547  0.83376  0.10763  1.0000
  C   C985      1.0  0.89985  0.86506  0.06449  1.0000
  C   C986      1.0  0.88224  0.82340  0.11925  1.0000
  H   H1184     1.0  0.90023  0.64799  0.43120  1.0000
  C   C987      1.0  0.90766  0.83381  0.10373  1.0000
  H   H1185     1.0  0.87489  0.90003  0.10641  1.0000
  H   H1186     1.0  0.75679  0.64299  0.44995  1.0000
  H   H1187     1.0  0.85812  0.51897  0.49822  1.0000
  C   C988      1.0  0.92094  0.69017  0.43371  1.0000
  C   C989      1.0  0.95588  0.70908  0.48356  1.0000
  C   C990      1.0  0.91580  0.66506  0.44594  1.0000
  H   H1188     1.0  0.77203  0.60078  0.04707  1.0000
  H   H1189     1.0  0.76329  0.57149  0.01750  1.0000
  Fe  Fe131     1.0  0.96728  0.75179  0.03175  1.0000
  Fe  Fe132     1.0  0.78874  0.98385  0.49443  1.0000
  C   C991      1.0  0.86153  0.78239  0.02285  1.0000
  C   C992      1.0  0.81227  0.94327  0.03402  1.0000
  H   H1190     1.0  0.87538  0.80690  0.13996  1.0000
  H   H1191     1.0  0.77913  0.63698  0.48171  1.0000
  H   H1192     1.0  0.82601  0.64515  0.39638  1.0000
  H   H1193     1.0  0.76215  0.72088  0.36817  1.0000
  C   C993      1.0  0.97820  0.68013  0.35296  1.0000
  C   C994      1.0  0.89725  0.80786  0.48888  1.0000
  H   H1194     1.0  0.84867  0.75425  0.45208  1.0000
  C   C995      1.0  0.89886  0.50888  0.48869  1.0000
  H   H1195     1.0  0.75877  0.91755  0.49095  1.0000
  H   H1196     1.0  0.94454  0.73169  0.44348  1.0000
  C   C996      1.0  0.83753  0.73330  0.44592  1.0000
  H   H1197     1.0  0.98141  0.66362  0.36145  1.0000
  H   H1198     1.0  0.81426  0.97959  0.05806  1.0000
  C   C997      1.0  0.92039  0.50538  0.22524  1.0000
  H   H1199     1.0  0.96251  0.73674  0.32354  1.0000
  C   C998      1.0  0.84386  0.72190  0.41244  1.0000
  H   H1200     1.0  0.76082  0.61417  0.44207  1.0000
  H   H1201     1.0  0.92573  0.64189  0.48573  1.0000
  H   H1202     1.0  0.93595  0.86198  0.06330  1.0000
  S   S261      1.0  0.87378  0.49508  0.37511  1.0000
  H   H1203     1.0  0.73834  0.77962  0.49257  1.0000
  H   H1204     1.0  0.97073  0.72703  0.49701  1.0000
  H   H1205     1.0  0.97551  0.68353  0.15102  1.0000
  N   N68       1.0  0.74096  0.59221  0.00366  1.0000
  S   S262      1.0  0.95939  0.77851  0.49838  1.0000
  H   H1206     1.0  0.90418  0.52950  0.49799  1.0000
  S   S263      1.0  0.74566  0.56336  0.36307  1.0000
  H   H1207     1.0  0.96906  0.71735  0.17808  1.0000
  S   S264      1.0  0.76880  0.98306  0.02336  1.0000
  C   C999      1.0  0.95127  0.68369  0.49664  1.0000
  S   S265      1.0  0.94850  0.70838  0.01457  1.0000
  H   H1208     1.0  0.98727  0.73751  0.21924  1.0000
  H   H1209     1.0  0.81155  0.72680  0.49705  1.0000
  C   C1000     1.0  0.91737  0.83996  0.57793  1.0000
  Fe  Fe133     1.0  0.88667  0.56356  0.82169  1.0000
  S   S266      1.0  0.90578  0.59710  0.77776  1.0000
  S   S267      1.0  0.91040  0.54491  0.84916  1.0000
  Fe  Fe134     1.0  0.83637  0.56989  0.82774  1.0000
  S   S268      1.0  0.85184  0.60401  0.78459  1.0000
  S   S269      1.0  0.79641  0.54934  0.85914  1.0000
  Fe  Fe135     1.0  0.86671  0.58033  0.74632  1.0000
  S   S270      1.0  0.85695  0.57413  0.67808  1.0000
  Fe  Fe136     1.0  0.88970  0.61806  0.81941  1.0000
  S   S271      1.0  0.91673  0.66095  0.83457  1.0000
  S   S272      1.0  0.84867  0.54505  0.78749  1.0000
  S   S273      1.0  0.87318  0.58573  0.86538  1.0000
  H   H1210     1.0  0.96314  0.82059  0.59938  1.0000
  S   S274      1.0  0.75787  0.78355  0.93782  1.0000
  H   H1211     1.0  0.92237  0.76716  0.97833  1.0000
  Fe  Fe137     1.0  0.78887  0.85625  0.97521  1.0000
  H   H1212     1.0  0.90873  0.84127  0.95759  1.0000
  C   C1001     1.0  0.77071  0.92659  0.64094  1.0000
  H   H1213     1.0  0.74685  0.93210  0.98523  1.0000
  Fe  Fe138     1.0  0.77098  0.81966  0.89930  1.0000
  S   S275      1.0  0.75856  0.81417  0.83193  1.0000
  S   S276      1.0  0.80997  0.84122  0.93133  1.0000
  Fe  Fe139     1.0  0.78839  0.81485  0.53392  1.0000
  S   S277      1.0  0.76929  0.78137  0.57818  1.0000
  H   H1214     1.0  0.88069  0.53018  0.63108  1.0000
  Fe  Fe140     1.0  0.83645  0.80533  0.52289  1.0000
  S   S278      1.0  0.82114  0.77168  0.56669  1.0000
  C   C1002     1.0  0.77091  0.90923  0.50227  1.0000
  Fe  Fe141     1.0  0.78261  0.75892  0.53437  1.0000
  Fe  Fe142     1.0  0.80913  0.79698  0.60659  1.0000
  S   S279      1.0  0.82019  0.80370  0.67443  1.0000
  S   S280      1.0  0.82753  0.83189  0.56485  1.0000
  C   C1003     1.0  0.77546  0.80967  0.78904  1.0000
  C   C1004     1.0  0.80119  0.81338  0.79183  1.0000
  C   C1005     1.0  0.81428  0.81080  0.75658  1.0000
  C   C1006     1.0  0.80181  0.80432  0.71822  1.0000
  C   C1007     1.0  0.77584  0.80004  0.71558  1.0000
  C   C1008     1.0  0.76282  0.80287  0.75077  1.0000
  H   H1215     1.0  0.81118  0.81863  0.82100  1.0000
  H   H1216     1.0  0.83437  0.81418  0.75897  1.0000
  H   H1217     1.0  0.76588  0.79477  0.68641  1.0000
  C   C1009     1.0  0.77373  0.56239  0.86237  1.0000
  C   C1010     1.0  0.78085  0.58852  0.85260  1.0000
  C   C1011     1.0  0.76251  0.59840  0.85687  1.0000
  H   H1218     1.0  0.78794  0.50107  0.90598  1.0000
  H   H1219     1.0  0.79565  0.94999  0.92179  1.0000
  S   S281      1.0  0.92928  0.59039  0.52045  1.0000
  H   H1220     1.0  0.80050  0.60112  0.84189  1.0000
  C   C1012     1.0  0.82439  0.98802  0.94317  1.0000
  H   H1221     1.0  0.83778  0.86735  0.64662  1.0000
  H   H1222     1.0  0.81795  0.67404  0.93792  1.0000
  C   C1013     1.0  0.85547  0.70828  0.93291  1.0000
  H   H1223     1.0  0.73911  0.64307  0.76271  1.0000
  C   C1014     1.0  0.74808  0.54627  0.87624  1.0000
  C   C1015     1.0  0.76508  0.93524  0.99916  1.0000
  C   C1016     1.0  0.93883  0.69605  0.96432  1.0000
  C   C1017     1.0  0.91891  0.67023  0.95879  1.0000
  C   C1018     1.0  0.91150  0.65935  0.91922  1.0000
  C   C1019     1.0  0.92437  0.67408  0.88486  1.0000
  C   C1020     1.0  0.94430  0.69991  0.89041  1.0000
  C   C1021     1.0  0.95146  0.71090  0.92997  1.0000
  H   H1224     1.0  0.76873  0.59630  0.95564  1.0000
  H   H1225     1.0  0.89597  0.63954  0.91537  1.0000
  H   H1226     1.0  0.95441  0.71140  0.86396  1.0000
  H   H1227     1.0  0.96712  0.73065  0.93392  1.0000
  C   C1022     1.0  0.76183  0.88180  0.50157  1.0000
  C   C1023     1.0  0.86039  0.96831  0.93233  1.0000
  H   H1228     1.0  0.93145  0.51325  0.88569  1.0000
  C   C1024     1.0  0.83044  0.88210  0.64174  1.0000
  C   C1025     1.0  0.83754  0.51457  0.89326  1.0000
  H   H1229     1.0  0.96473  0.59934  0.83171  1.0000
  C   C1026     1.0  0.90894  0.58665  0.56370  1.0000
  C   C1027     1.0  0.88212  0.57861  0.55996  1.0000
  C   C1028     1.0  0.86661  0.57514  0.59532  1.0000
  C   C1029     1.0  0.87773  0.57992  0.63471  1.0000
  C   C1030     1.0  0.90465  0.58837  0.63838  1.0000
  C   C1031     1.0  0.92014  0.59168  0.60303  1.0000
  H   H1230     1.0  0.87325  0.57483  0.52993  1.0000
  H   H1231     1.0  0.84580  0.56862  0.59219  1.0000
  H   H1232     1.0  0.91345  0.59207  0.66846  1.0000
  H   H1233     1.0  0.94089  0.59792  0.60623  1.0000
  C   C1032     1.0  0.90174  0.51106  0.84370  1.0000
  H   H1234     1.0  0.74236  0.52601  0.88376  1.0000
  H   H1235     1.0  0.89046  0.74194  0.98975  1.0000
  H   H1236     1.0  0.96106  0.63922  0.82024  1.0000
  H   H1237     1.0  0.86084  0.82669  0.95524  1.0000
  H   H1238     1.0  0.93801  0.67466  0.57543  1.0000
  C   C1033     1.0  0.88823  0.76579  0.92072  1.0000
  H   H1239     1.0  0.74288  0.79987  0.74830  1.0000
  C   C1034     1.0  0.97310  0.64832  0.84807  1.0000
  C   C1035     1.0  0.95554  0.83292  0.58637  1.0000
  H   H1240     1.0  0.90942  0.76212  0.53687  1.0000
  H   H1241     1.0  0.80695  0.95168  0.61100  1.0000
  S   S282      1.0  0.75119  0.83757  0.93998  1.0000
  C   C1036     1.0  0.88138  0.49448  0.81797  1.0000
  H   H1242     1.0  0.87587  0.77803  0.53318  1.0000
  C   C1037     1.0  0.81623  0.96253  0.92797  1.0000
  H   H1243     1.0  0.76238  0.89828  0.97671  1.0000
  H   H1244     1.0  0.93396  0.62685  0.90171  1.0000
  C   C1038     1.0  0.95813  0.86859  0.54434  1.0000
  C   C1039     1.0  0.98062  0.65956  0.93888  1.0000
  H   H1245     1.0  0.78457  0.85053  0.60399  1.0000
  H   H1246     1.0  0.92204  0.87132  0.53822  1.0000
  C   C1040     1.0  0.86847  0.81673  0.97480  1.0000
  H   H1247     1.0  0.91536  0.73327  0.97291  1.0000
  C   C1041     1.0  0.94926  0.66456  0.56321  1.0000
  H   H1248     1.0  0.87214  0.76190  0.94302  1.0000
  H   H1249     1.0  0.84347  0.51787  0.92601  1.0000
  H   H1250     1.0  0.84455  0.90062  0.65711  1.0000
  H   H1251     1.0  0.88024  0.76464  0.88941  1.0000
  H   H1252     1.0  0.87413  0.96027  0.92897  1.0000
  C   C1042     1.0  0.98603  0.64147  0.91548  1.0000
  S   S283      1.0  0.81698  0.78450  0.99804  1.0000
  H   H1253     1.0  0.93482  0.64438  0.55361  1.0000
  H   H1254     1.0  0.96509  0.66417  0.93032  1.0000
  C   C1043     1.0  0.80688  0.91617  0.63236  1.0000
  H   H1255     1.0  0.82741  0.64915  0.88302  1.0000
  H   H1256     1.0  0.82636  0.92256  0.62019  1.0000
  C   C1044     1.0  0.97745  0.60913  0.85867  1.0000
  H   H1257     1.0  0.91764  0.80882  0.61328  1.0000
  N   N69       1.0  0.89969  0.74738  0.92494  1.0000
  C   C1045     1.0  0.96836  0.51792  0.75067  1.0000
  H   H1258     1.0  0.97485  0.59301  0.87987  1.0000
  H   H1259     1.0  0.89669  0.83376  0.58308  1.0000
  C   C1046     1.0  0.88016  0.72050  0.91278  1.0000
  C   C1047     1.0  0.79266  0.89161  0.65208  1.0000
  C   C1048     1.0  0.88484  0.70569  0.88130  1.0000
  H   H1260     1.0  0.96822  0.88484  0.52382  1.0000
  C   C1049     1.0  0.86592  0.68028  0.87090  1.0000
  C   C1050     1.0  0.84191  0.66889  0.89125  1.0000
  C   C1051     1.0  0.79591  0.93326  0.62690  1.0000
  H   H1261     1.0  0.92981  0.60258  0.86416  1.0000
  N   N70       1.0  0.96682  0.67958  0.52913  1.0000
  C   C1052     1.0  0.91241  0.77800  0.51648  1.0000
  H   H1262     1.0  0.83122  0.88527  0.60810  1.0000
  H   H1263     1.0  0.82740  0.93236  0.91304  1.0000
  C   C1053     1.0  0.87758  0.51237  0.57140  1.0000
  Fe  Fe143     1.0  0.74026  0.80243  0.98030  1.0000
  H   H1264     1.0  0.79456  0.83329  0.63976  1.0000
  H   H1265     1.0  0.76830  0.61869  0.84950  1.0000
  H   H1266     1.0  0.85059  0.71834  0.95724  1.0000
  H   H1267     1.0  0.87005  0.66928  0.84701  1.0000
  H   H1268     1.0  0.76239  0.93995  0.63633  1.0000
  C   C1054     1.0  0.79578  0.92586  0.51765  1.0000
  H   H1269     1.0  0.90307  0.78655  0.92626  1.0000
  H   H1270     1.0  0.96461  0.53486  0.75157  1.0000
  C   C1055     1.0  0.78650  0.84758  0.63725  1.0000
  H   H1271     1.0  0.81491  0.88702  0.71985  1.0000
  S   S284      1.0  0.94001  0.82217  0.99936  1.0000
  H   H1272     1.0  0.75031  0.61364  0.94678  1.0000
  H   H1273     1.0  0.87082  0.50239  0.80036  1.0000
  H   H1274     1.0  0.75521  0.86726  0.68183  1.0000
  N   N71       1.0  0.80345  0.87286  0.65815  1.0000
  C   C1056     1.0  0.94213  0.61370  0.89063  1.0000
  H   H1275     1.0  0.90914  0.65858  0.98529  1.0000
  H   H1276     1.0  0.81555  0.87926  0.53906  1.0000
  H   H1277     1.0  0.93915  0.59923  0.91511  1.0000
  Fe  Fe144     1.0  0.79536  0.80619  0.97289  1.0000
  H   H1278     1.0  0.90302  0.71311  0.86435  1.0000
  S   S285      1.0  0.75633  0.71567  0.51916  1.0000
  C   C1057     1.0  0.83411  0.95257  0.92301  1.0000
  H   H1279     1.0  0.96654  0.66263  0.85998  1.0000
  C   C1058     1.0  0.92923  0.82588  0.59476  1.0000
  H   H1280     1.0  0.93447  0.74575  0.90303  1.0000
  H   H1281     1.0  0.91996  0.75898  0.86696  1.0000
  C   C1059     1.0  0.77768  0.87078  0.51553  1.0000
  H   H1282     1.0  0.96036  0.66197  0.58905  1.0000
  S   S286      1.0  0.76485  0.83612  0.51611  1.0000
  C   C1060     1.0  0.80425  0.86818  0.70262  1.0000
  H   H1283     1.0  0.76644  0.83775  0.65041  1.0000
  C   C1061     1.0  0.76708  0.88552  0.66633  1.0000
  C   C1062     1.0  0.80292  0.88747  0.52945  1.0000
  H   H1284     1.0  0.85497  0.51824  0.87404  1.0000
  H   H1285     1.0  0.93826  0.77816  0.91001  1.0000
  H   H1286     1.0  0.78439  0.85749  0.71639  1.0000
  C   C1063     1.0  0.83666  0.68289  0.92216  1.0000
  H   H1287     1.0  0.83133  0.92765  0.54177  1.0000
  C   C1064     1.0  0.85130  0.79556  0.99849  1.0000
  C   C1065     1.0  0.95018  0.49445  0.76798  1.0000
  C   C1066     1.0  0.75633  0.90280  0.66079  1.0000
  C   C1067     1.0  0.90723  0.74738  0.96828  1.0000
  C   C1068     1.0  0.87642  0.51219  0.61420  1.0000
  N   N72       1.0  0.97014  0.62831  0.87885  1.0000
  C   C1069     1.0  0.97089  0.85469  0.56095  1.0000
  H   H1288     1.0  0.83177  0.53007  0.88546  1.0000
  H   H1289     1.0  0.97916  0.71659  0.56135  1.0000
  H   H1290     1.0  0.81440  0.85605  0.70872  1.0000
  C   C1070     1.0  0.81184  0.91486  0.53072  1.0000
  C   C1071     1.0  0.89333  0.78694  0.51441  1.0000
  C   C1072     1.0  0.89560  0.82487  0.97603  1.0000
  C   C1073     1.0  0.92408  0.75789  0.89994  1.0000
  S   S287      1.0  0.98324  0.78659  0.99028  1.0000
  C   C1074     1.0  0.93176  0.86121  0.55267  1.0000
  H   H1291     1.0  0.77585  0.62605  0.98420  1.0000
  H   H1292     1.0  0.88303  0.53086  0.55646  1.0000
  C   C1075     1.0  0.91562  0.50057  0.86577  1.0000
  C   C1076     1.0  0.77385  0.91601  0.99426  1.0000
  S   S288      1.0  0.80706  0.96022  0.52329  1.0000
  C   C1077     1.0  0.75979  0.60773  0.97126  1.0000
  C   C1078     1.0  0.97983  0.66432  0.51216  1.0000
  H   H1293     1.0  0.80394  0.50250  0.83368  1.0000
  C   C1079     1.0  0.98759  0.70446  0.54665  1.0000
  H   H1294     1.0  0.93249  0.49321  0.78212  1.0000
  H   H1295     1.0  0.91407  0.50402  0.50110  1.0000
  H   H1296     1.0  0.96556  0.64446  0.50100  1.0000
  C   C1080     1.0  0.90583  0.81174  0.00045  1.0000
